data_mof_unit_29647.cif
_audit_creation_date              2012-10-26T21:08:08-0400
_audit_creation_method            fapswitch 2.2
_symmetry_space_group_name_H-M    P1
_symmetry_Int_Tables_number       1
_space_group_crystal_system       triclinic
_cell_length_a                    15.85658
_cell_length_b                    10.762303
_cell_length_c                    9.616891
_cell_angle_alpha                 90.103641
_cell_angle_beta                  90.194377
_cell_angle_gamma                 92.508774
_cell_volume                      1639.56878392

loop_
_atom_site_label
_atom_site_type_symbol
_atom_type_description
_atom_site_fract_x
_atom_site_fract_y
_atom_site_fract_z
_atom_type_partial_charge
C1    C     C_R   0.499163 0.262776 0.499858 0.585051
C2    C     C_R   0.279809 0.052504 0.641744 0.288492
C3    C     C_R   0.279492 0.922408 0.642373 0.275940
C4    C     C_R   0.340003 0.499422 0.499818 0.529626
C5    C     C_R   0.350602 0.861835 0.597433 -0.102866
C6    C     C_R   0.423197 0.929925 0.550591 -0.029932
C7    C     C_R   0.423622 0.061066 0.549936 -0.068057
C8    C     C_R   0.495730 0.128562 0.499371 0.028122
C9    C     C_R   0.564996 0.067114 0.446412 0.219784
C10   C     C_R   0.563834 0.938641 0.446663 -0.107202
C11   C     C_R   0.494644 0.870488 0.500119 -0.013003
C12   C     C_3   0.083081 0.500443 0.501015 0.050624
C13   C     C_R   0.611667 0.666095 0.144620 -0.073932
C14   C     C_R   0.665934 0.747618 0.072938 -0.145671
C15   C     C_R   0.665976 0.747499 0.929655 -0.145942
C16   C     C_R   0.498710 0.737052 0.500062 0.514796
C17   C     C_R   0.611692 0.665940 0.857108 -0.074444
C18   C     C_R   0.554819 0.581629 0.925701 0.161618
C19   C     C_R   0.554804 0.581631 0.075163 0.164867
C20   C     C_R   0.447861 0.422300 0.073363 0.031002
C21   C     C_R   0.447870 0.422342 0.925597 0.029684
C22   C     C_R   0.660028 0.500314 0.500248 0.561944
C23   C     C_3   0.975132 0.606872 0.559384 -0.086535
C24   C     C_3   0.968967 0.402225 0.575800 -0.045358
C25   C     C_3   0.024308 0.395475 0.444420 0.248128
C26   C     C_1   0.250321 0.499762 0.499738 0.055655
C27   C     C_1   0.749804 0.500444 0.500858 0.027788
C28   C     C_3   0.028365 0.508732 0.631262 0.257694
C29   C     C_3   0.917136 0.500315 0.501800 -0.046871
C30   C     C_3   0.030746 0.598109 0.427397 -0.150223
C31   C     C_3   0.971052 0.491846 0.369619 -0.092289
C32   C     C_1   0.174779 0.500136 0.500264 0.092760
C33   C     C_1   0.825414 0.500454 0.501414 -0.005083
C34   C     C_R   0.351196 0.121053 0.596056 -0.119937
Cl1   Cl    Cl    0.057908 0.255229 0.368077 -0.458450
Cl2   Cl    Cl    0.190237 0.832528 0.696515 -0.465512
Cl3   Cl    Cl    0.067347 0.520128 0.804864 -0.460269
Cl4   Cl    Cl    0.655818 0.148520 0.382784 -0.559086
Cl5   Cl    Cl    0.191078 0.132465 0.695525 -0.432197
Cu1   Cu    Cu3+1 0.499990 0.499990 0.640660 0.968011
Cu2   Cu    Cu3+1 0.500010 0.500010 0.359340 0.992825
H1    H     H_    0.347776 0.761293 0.597454 0.161191
H2    H     H_    0.708582 0.810945 0.873949 0.148282
H3    H     H_    0.946348 0.484018 0.261663 0.180064
H4    H     H_    0.057170 0.678307 0.366767 0.178953
H5    H     H_    0.953841 0.693783 0.607750 0.178615
H6    H     H_    0.617872 0.891442 0.407106 0.133007
H7    H     H_    0.405086 0.358517 0.127986 0.140302
H8    H     H_    0.708478 0.811194 0.129339 0.154074
H9    H     H_    0.617339 0.673176 0.747537 0.178539
H10   H     H_    0.405104 0.358568 0.870162 0.141458
H11   H     H_    0.942985 0.321877 0.636664 0.182916
H12   H     H_    0.348624 0.221322 0.594979 0.147743
H13   H     H_    0.617395 0.673555 0.254232 0.171608
N1    N     N_R   0.500800 0.501210 0.147910 -0.243842
N2    N     N_R   0.500830 0.501290 0.852040 -0.246209
O1    O     O_R   0.499990 0.319640 0.618810 -0.502454
O2    O     O_R   0.500000 0.319660 0.381240 -0.463805
O3    O     O_R   0.379070 0.499980 0.618770 -0.493806
O4    O     O_R   0.379080 0.500000 0.381190 -0.495574
O5    O     O_R   0.500000 0.680340 0.618760 -0.524428
O6    O     O_R   0.500010 0.680360 0.381190 -0.518955
O7    O     O_R   0.620920 0.500000 0.618810 -0.513216
O8    O     O_R   0.620930 0.500020 0.381230 -0.496018

loop_
_geom_bond_atom_site_label_1
_geom_bond_atom_site_label_2
_ccdc_geom_bond_type
C17   H9    S    
C24   H11   S    
C21   N2    A    
C4    C26   S    
C5    H1    S    
C26   C32   T    
C6    C7    A    
C1    O1    A    
C1    C8    S    
C9    C10   A    
C13   H13   S    
C30   H4    S    
Cu2   O8    S    
C18   N2    A    
C12   C25   S    
C3    C5    A    
C10   C11   A    
C2    C34   A    
C17   C18   A    
C22   O7    A    
C15   H2    S    
C7    C8    A    
C29   C31   S    
Cu1   O3    S    
C1    O2    A    
C27   C33   T    
C24   C29   S    
C30   C31   S    
C4    O4    A    
C20   H7    S    
Cu1   O7    S    
C16   O6    A    
C3    Cl2   S    
C25   Cl1   S    
C20   N1    A    
C23   C29   S    
C4    O3    A    
C9    Cl4   S    
C12   C28   S    
Cu2   O2    S    
C2    C3    A    
C22   C27   S    
C6    C11   A    
C5    C6    A    
C7    C34   A    
C14   H8    S    
C16   O5    A    
C13   C19   A    
C22   O8    A    
C23   C30   S    
C29   C33   S    
C21   H10   S    
C23   H5    S    
C24   C25   S    
C34   H12   S    
C25   C31   S    
C18   C19   A    
C31   H3    S    
C19   N1    A    
C10   H6    S    
C15   C17   A    
Cu2   O6    S    
C14   C15   A    
Cu2   N1    S    
Cu1   Cu2   S    
Cu1   O1    S    
C13   C14   A    
C12   C30   S    
C20   C21   A    
C23   C28   S    
C2    Cl5   S    
C11   C16   S    
C12   C32   S    
Cu1   O5    S    
C24   C28   S    
Cu2   O4    S    
C28   Cl3   S    
C8    C9    A    
Cu1   N2    S    
