data_mof_unit_16452.cif
_audit_creation_date              2012-12-10T20:27:11-0500
_audit_creation_method            fapswitch 2.2
_symmetry_space_group_name_H-M    P1
_symmetry_Int_Tables_number       1
_space_group_crystal_system       triclinic
_cell_length_a                    10.809144
_cell_length_b                    10.7288
_cell_length_c                    9.867484
_cell_angle_alpha                 89.964072
_cell_angle_beta                  104.228134
_cell_angle_gamma                 90.370021
_cell_volume                      1109.19761811

loop_
_atom_site_label
_atom_site_type_symbol
_atom_type_description
_atom_site_fract_x
_atom_site_fract_y
_atom_site_fract_z
_atom_type_partial_charge
C1    C     C_R   0.498831 0.260529 0.499705 0.884648
C2    C     C_R   0.494320 0.129341 0.497854 -0.117342
C3    C     C_R   0.457653 0.064504 0.370225 -0.226191
C4    C     C_R   0.458262 0.934993 0.370171 -0.220389
C5    C     C_R   0.496309 0.870640 0.497774 -0.088508
C6    C     C_R   0.529637 0.937857 0.620870 0.069006
C7    C     C_3   0.583123 0.926674 0.774938 -0.480908
C8    C     C_3   0.580478 0.070445 0.776183 0.026985
C9    C     C_R   0.391415 0.469814 0.042036 0.171379
C10   C     C_R   0.602723 0.542095 0.099416 -0.135162
C11   C     C_R   0.602570 0.542354 0.955535 -0.151001
C12   C     C_R   0.259085 0.503644 0.441694 0.948535
C13   C     C_R   0.392117 0.469112 0.899527 0.188687
C14   C     C_3   0.321192 0.348766 0.872329 -0.547074
C15   C     C_3   0.319832 0.348316 0.026530 -0.244612
C16   C     C_R   0.500053 0.739489 0.499837 0.880525
C17   C     C_R   0.740973 0.503084 0.558484 0.946378
C18   C     C_2   0.122865 0.518576 0.409172 -0.370248
C19   C     C_2   0.068501 0.537431 0.514581 -0.162971
C20   C     C_2   0.877654 0.514927 0.592055 -0.387170
C21   C     C_2   0.932781 0.539885 0.488487 -0.148508
C22   C     C_R   0.528100 0.062353 0.620986 0.100673
H1    H     H_    0.877935 0.553422 0.381314 0.178612
H2    H     H_    0.686495 0.574456 0.175625 0.142704
H3    H     H_    0.685879 0.575072 0.923710 0.140948
H4    H     H_    0.226338 0.359752 0.797844 0.201385
H5    H     H_    0.379854 0.273377 0.844016 0.198655
H6    H     H_    0.378614 0.272012 0.085588 0.154079
H7    H     H_    0.123533 0.542517 0.622829 0.183477
H8    H     H_    0.932969 0.501335 0.698852 0.150852
H9    H     H_    0.067391 0.514102 0.301536 0.173604
H10   H     H_    0.429641 0.112999 0.271336 0.154388
H11   H     H_    0.429840 0.886063 0.271247 0.168672
H12   H     H_    0.513867 0.883020 0.827570 0.183615
H13   H     H_    0.679850 0.884880 0.802080 0.205016
H14   H     H_    0.511150 0.107683 0.832076 0.109052
N1    N     N_R   0.499160 0.499140 0.142600 -0.111481
N2    N     N_R   0.499160 0.499180 0.856960 -0.100509
O1    O     O_R   0.500020 0.316790 0.614700 -0.621873
O2    O     O_R   0.500000 0.316760 0.385350 -0.623798
O3    O     O_R   0.317820 0.500020 0.571850 -0.617835
O4    O     O_R   0.317800 0.499980 0.342510 -0.611384
O5    O     O_R   0.500000 0.683240 0.614650 -0.616628
O6    O     O_R   0.499980 0.683210 0.385300 -0.625516
O7    O     O_R   0.682200 0.500020 0.657490 -0.624780
O8    O     O_R   0.682180 0.499980 0.428150 -0.620600
Zn1   Zn    Zn3+2 0.500010 0.500020 0.653140 0.931450
Zn2   Zn    Zn3+2 0.499990 0.499980 0.346860 0.939260
N3    N     N_2   0.706226 0.129223 0.820975 -0.279342
H15   H     H_    0.702201 0.219120 0.856588 0.238081
C23   C     C_3   0.797572 0.116176 0.736001 -0.724966
H16   H     H_    0.892413 0.150537 0.795915 0.236452
H17   H     H_    0.767722 0.172755 0.639304 0.225054
H18   H     H_    0.807546 0.017277 0.708033 0.237059
C24   C     C_R   0.186641 0.356480 0.050357 0.215336
C25   C     C_R   0.143569 0.262608 0.127374 -0.155193
C26   C     C_R   0.018575 0.263921 0.143494 -0.135492
C27   C     C_R   0.935319 0.358894 0.083064 -0.132164
C28   C     C_R   0.977427 0.453594 0.007811 -0.180022
C29   C     C_R   0.102316 0.452872 0.991610 -0.155759
H19   H     H_    0.206042 0.187304 0.173423 0.113848
H20   H     H_    0.986061 0.190860 0.202323 0.139747
H21   H     H_    0.838539 0.359544 0.095336 0.134461
H22   H     H_    0.913317 0.527587 0.961654 0.130276
H23   H     H_    0.132466 0.526488 0.931585 0.114529

loop_
_geom_bond_atom_site_label_1
_geom_bond_atom_site_label_2
_ccdc_geom_bond_type
C2    C22   A    
C11   N2    A    
C8    C22   S    
C24   C25   A    
C12   O3    A    
C14   H5    S    
C16   O6    A    
C14   C15   S    
C23   H18   S    
C24   C29   A    
C9    N1    A    
C2    C3    A    
O3    Zn1   S    
C17   O8    A    
C28   C29   A    
C15   C24   S    
C20   H8    S    
C13   C14   S    
C14   H4    S    
N1    Zn2   S    
C16   O5    A    
N2    Zn1   S    
C6    C7    S    
C7    H13   S    
C10   N1    A    
C5    C6    A    
C8    N3    S    
C19   C21   S    
C13   N2    A    
C29   H23   S    
C1    C2    S    
O4    Zn2   S    
C26   C27   A    
C21   H1    S    
C9    C15   S    
C3    H10   S    
C7    H12   S    
O8    Zn2   S    
C7    C8    S    
C10   C11   A    
C1    O1    A    
C23   H17   S    
C15   H6    S    
C23   H16   S    
C19   H7    S    
C28   H22   S    
C26   H20   S    
C17   C20   S    
C9    C13   A    
C20   C21   D    
O1    Zn1   S    
N3    H15   S    
C8    H14   S    
O7    Zn1   S    
C12   C18   S    
C27   H21   S    
C25   C26   A    
C11   H3    S    
C25   H19   S    
C18   C19   D    
C5    C16   S    
C12   O4    A    
C18   H9    S    
C1    O2    A    
C10   H2    S    
C27   C28   A    
C4    H11   S    
O5    Zn1   S    
O2    Zn2   S    
C3    C4    A    
O6    Zn2   S    
C17   O7    A    
C4    C5    A    
N3    C23   S    
C6    C22   A    
