data_mof_unit_30178.cif
_audit_creation_date              2012-10-26T17:12:29-0400
_audit_creation_method            fapswitch 2.2
_symmetry_space_group_name_H-M    P1
_symmetry_Int_Tables_number       1
_space_group_crystal_system       triclinic
_cell_length_a                    16.67272
_cell_length_b                    16.8435
_cell_length_c                    16.676296
_cell_angle_alpha                 67.721971
_cell_angle_beta                  68.107654
_cell_angle_gamma                 67.96998
_cell_volume                      3869.2073085

loop_
_atom_site_label
_atom_site_type_symbol
_atom_type_description
_atom_site_fract_x
_atom_site_fract_y
_atom_site_fract_z
_atom_type_partial_charge
C1    C     C_R   0.015531 0.830535 0.569797 0.592310
C2    C     C_R   0.031975 0.563325 0.827996 0.574767
C3    C     C_R   0.172120 0.970082 0.436149 0.595276
C4    C     C_R   0.827880 0.029918 0.563851 0.595276
C5    C     C_R   0.449220 0.076684 0.700074 0.286823
C6    C     C_R   0.550779 0.923316 0.299926 0.286823
C7    C     C_R   0.918621 0.728364 0.531153 0.271074
C8    C     C_R   0.081380 0.271636 0.468847 0.271074
C9    C     C_R   0.678506 0.465322 0.104830 0.274039
C10   C     C_R   0.321494 0.534678 0.895169 0.274039
C11   C     C_R   0.300152 0.922083 0.551263 0.282585
C12   C     C_R   0.984469 0.169465 0.430202 0.592310
C13   C     C_R   0.699848 0.077917 0.448737 0.282585
C14   C     C_R   0.495273 0.264629 0.062483 0.277944
C15   C     C_R   0.504726 0.735371 0.937517 0.277944
C16   C     C_R   0.909818 0.545918 0.307258 0.275611
C17   C     C_R   0.090182 0.454081 0.692742 0.275611
C18   C     C_R   0.542445 0.024250 0.542436 -0.024630
C19   C     C_R   0.457554 0.975750 0.457564 -0.024630
C20   C     C_R   0.009070 0.546356 0.550013 -0.038266
C21   C     C_R   0.990930 0.453643 0.449987 -0.038266
C22   C     C_R   0.548588 0.549381 0.006397 -0.037162
C23   C     C_R   0.828293 0.564840 0.028239 0.580501
C24   C     C_R   0.451412 0.450620 0.993603 -0.037162
C25   C     C_R   0.585045 0.017207 0.453592 0.025476
C26   C     C_R   0.414955 0.982793 0.546408 0.025476
C27   C     C_R   0.044730 0.452502 0.569371 0.009955
C28   C     C_R   0.955270 0.547498 0.430629 0.009955
C29   C     C_R   0.477276 0.594085 0.964532 0.009693
C30   C     C_R   0.522723 0.405916 0.035468 0.009693
C31   C     C_R   0.546107 0.983822 0.414572 0.023357
C32   C     C_R   0.453893 0.016178 0.585428 0.023357
C33   C     C_R   0.433368 0.543446 0.951789 0.002338
C34   C     C_R   0.171707 0.435160 0.971761 0.580500
C35   C     C_R   0.566632 0.456554 0.048211 0.002338
C36   C     C_R   0.042274 0.407375 0.513359 0.008193
C37   C     C_R   0.957726 0.592625 0.486641 0.008193
C38   C     C_R   0.404080 0.055859 0.657152 0.317255
C39   C     C_R   0.595920 0.944141 0.342848 0.317255
C40   C     C_R   0.899781 0.678071 0.492726 0.316442
C41   C     C_R   0.100219 0.321929 0.507274 0.316442
C42   C     C_R   0.619029 0.420906 0.110693 0.306895
C43   C     C_R   0.380970 0.579094 0.889307 0.306895
C44   C     C_R   0.343810 0.942019 0.596413 0.311609
C45   C     C_R   0.564054 0.029621 0.827827 0.583495
C46   C     C_R   0.656190 0.057981 0.403587 0.311610
C47   C     C_R   0.550329 0.311660 0.058695 0.308551
C48   C     C_R   0.449670 0.688340 0.941305 0.308550
C49   C     C_R   0.924107 0.593014 0.352058 0.297530
C50   C     C_R   0.075893 0.406986 0.647942 0.297530
C51   C     C_R   0.544416 0.053233 0.674794 -0.048325
C52   C     C_R   0.455584 0.946767 0.325205 -0.048324
C53   C     C_R   0.987043 0.688143 0.576334 -0.070168
C54   C     C_R   0.012957 0.311857 0.423666 -0.070168
C55   C     C_R   0.672501 0.553637 0.049402 -0.074646
C56   C     C_R   0.435945 0.970379 0.172173 0.583495
C57   C     C_R   0.327499 0.446363 0.950598 -0.074646
C58   C     C_R   0.325165 0.946297 0.455896 -0.042284
C59   C     C_R   0.674835 0.053703 0.544104 -0.042284
C60   C     C_R   0.427263 0.307202 0.017122 -0.070226
C61   C     C_R   0.572737 0.692798 0.982878 -0.070226
C62   C     C_R   0.944460 0.452268 0.326636 -0.070949
C63   C     C_R   0.055540 0.547732 0.673364 -0.070949
C64   C     C_R   0.597272 0.047831 0.728167 0.024363
C65   C     C_R   0.402728 0.952169 0.271833 0.024363
C66   C     C_R   0.015887 0.735034 0.611485 0.010772
C67   C     C_R   0.429400 0.167580 0.988671 0.581465
C68   C     C_R   0.984113 0.264966 0.388515 0.010772
C69   C     C_R   0.730178 0.603094 0.039018 0.027256
C70   C     C_R   0.269822 0.396906 0.960981 0.027256
C71   C     C_R   0.271712 0.951854 0.403020 0.030680
C72   C     C_R   0.728288 0.048146 0.596979 0.030680
C73   C     C_R   0.386681 0.260311 0.994732 0.006306
C74   C     C_R   0.613319 0.739689 0.005267 0.006307
C75   C     C_R   0.949358 0.402205 0.271780 0.030692
C76   C     C_R   0.050642 0.597795 0.728220 0.030692
C77   C     C_R   0.688041 0.046453 0.687834 0.347367
C78   C     C_R   0.570600 0.832420 0.011329 0.581465
C79   C     C_R   0.311959 0.953547 0.312166 0.347366
C80   C     C_R   0.045501 0.688536 0.689446 0.378315
C81   C     C_R   0.954499 0.311463 0.310554 0.378315
C82   C     C_R   0.695151 0.694923 0.027029 0.370950
C83   C     C_R   0.304850 0.305078 0.972970 0.370950
C84   C     C_R   0.587815 0.042365 0.587701 -0.049858
C85   C     C_R   0.412185 0.957635 0.412299 -0.049858
C86   C     C_R   0.018697 0.593893 0.599004 -0.071967
C87   C     C_R   0.981303 0.406106 0.400995 -0.071967
C88   C     C_R   0.597906 0.598674 0.012682 -0.070597
C89   C     C_R   0.968025 0.436675 0.172004 0.574767
C90   C     C_R   0.402094 0.401326 0.987318 -0.070597
Cl1   Cl    Cl    0.386831 0.156030 0.762365 -0.364777
Cl2   Cl    Cl    0.502944 0.838045 0.853424 -0.481390
Cl3   Cl    Cl    0.833253 0.605224 0.240169 -0.355184
Cl4   Cl    Cl    0.166746 0.394776 0.759831 -0.355182
Cl5   Cl    Cl    0.285801 0.100020 0.678767 -0.285923
Cl6   Cl    Cl    0.714198 0.899979 0.321234 -0.285923
Cl7   Cl    Cl    0.789760 0.708950 0.480841 -0.362791
Cl8   Cl    Cl    0.210240 0.291050 0.519159 -0.362792
Cl9   Cl    Cl    0.589694 0.338752 0.212691 -0.332041
Cl10  Cl    Cl    0.410306 0.661248 0.787309 -0.332041
Cl11  Cl    Cl    0.324715 0.894939 0.714463 -0.282452
Cl12  Cl    Cl    0.613169 0.843970 0.237635 -0.364778
Cl13  Cl    Cl    0.675285 0.105060 0.285537 -0.282452
Cl14  Cl    Cl    0.662929 0.250014 0.058759 -0.365724
Cl15  Cl    Cl    0.337070 0.749986 0.941241 -0.365723
Cl16  Cl    Cl    0.924265 0.705576 0.293601 -0.356674
Cl17  Cl    Cl    0.075735 0.294424 0.706399 -0.356674
Cl18  Cl    Cl    0.839014 0.830064 0.545453 -0.512847
Cl19  Cl    Cl    0.160986 0.169937 0.454546 -0.512848
Cl20  Cl    Cl    0.742956 0.418071 0.183815 -0.370779
Cl21  Cl    Cl    0.257043 0.581930 0.816184 -0.370778
Cl22  Cl    Cl    0.237017 0.843015 0.613748 -0.355189
Cl23  Cl    Cl    0.762983 0.156985 0.386252 -0.355189
Cl24  Cl    Cl    0.497055 0.161955 0.146576 -0.481392
Cu1   Cu    Cu3+1 0.995180 0.995180 0.424630 1.288647
Cu2   Cu    Cu3+1 0.004820 0.004820 0.575370 1.288647
Cu3   Cu    Cu3+1 0.995180 0.424630 0.995180 1.277965
Cu4   Cu    Cu3+1 0.004820 0.575370 0.004820 1.277965
Cu5   Cu    Cu3+1 0.424630 0.995180 0.995180 1.307145
Cu6   Cu    Cu3+1 0.575370 0.004820 0.004820 1.307146
F1    F     F_    0.738322 0.042363 0.738130 -0.572840
F2    F     F_    0.261678 0.957637 0.261870 -0.572840
F3    F     F_    0.064476 0.732316 0.730971 -0.520211
F4    F     F_    0.935524 0.267684 0.269029 -0.520211
F5    F     F_    0.741105 0.740892 0.036926 -0.527948
F6    F     F_    0.258896 0.259109 0.963070 -0.527946
O1    O     O_R   0.124540 0.978640 0.385460 -0.441003
O2    O     O_R   0.124540 0.385460 0.978640 -0.411558
O3    O     O_R   0.021360 0.875460 0.614540 -0.416612
O4    O     O_R   0.978640 0.124540 0.385460 -0.416611
O5    O     O_R   0.013780 0.867370 0.487190 -0.502195
O6    O     O_R   0.986220 0.132630 0.512810 -0.502195
O7    O     O_R   0.867370 0.487190 0.013780 -0.508667
O8    O     O_R   0.132630 0.512810 0.986220 -0.508667
O9    O     O_R   0.487190 0.013780 0.867370 -0.465937
O10   O     O_R   0.512810 0.986220 0.132630 -0.465937
O11   O     O_R   0.512810 0.132630 0.986220 -0.499856
O12   O     O_R   0.875460 0.021360 0.614540 -0.441003
O13   O     O_R   0.487190 0.867370 0.013780 -0.499857
O14   O     O_R   0.986220 0.512810 0.132630 -0.508249
O15   O     O_R   0.013780 0.487190 0.867370 -0.508249
O16   O     O_R   0.132630 0.986220 0.512810 -0.468480
O17   O     O_R   0.867370 0.013780 0.487190 -0.468480
O18   O     O_R   0.978640 0.385460 0.124540 -0.422553
O19   O     O_R   0.021360 0.614540 0.875460 -0.422553
O20   O     O_R   0.385460 0.124540 0.978640 -0.411278
O21   O     O_R   0.614540 0.875460 0.021360 -0.411278
O22   O     O_R   0.614540 0.021360 0.875460 -0.441406
O23   O     O_R   0.385460 0.978640 0.124540 -0.441406
O24   O     O_R   0.875460 0.614540 0.021360 -0.411557

loop_
_geom_bond_atom_site_label_1
_geom_bond_atom_site_label_2
_ccdc_geom_bond_type
C25   C31   A    
C21   C87   A    
C26   C32   A    
C65   C79   A    
C22   C29   A    
C45   O22   A    
C64   C77   A    
C23   C69   S    
Cu3   O15   S    
C19   C31   A    
C78   O13   A    
C4    O17   A    
C71   C79   A    
C26   C44   A    
C66   C80   A    
C21   C36   A    
Cu1   O5    S    
Cu5   O20   S    
C22   C35   A    
C12   C68   S    
C16   Cl3   S    
C12   O4    A    
C30   C35   A    
C68   C81   A    
C52   C85   A    
C37   C40   A    
C1    O3    A    
C54   C87   A    
C3    O1    A    
C58   C71   A    
C54   C68   A    
C63   C76   A    
C34   O8    A    
Cu1   Cu2   S    
C29   C33   A    
C60   C73   A    
C80   F3    S    
Cu1   O1    S    
C55   C88   A    
Cu4   O24   S    
C19   C26   A    
C69   C82   A    
C15   Cl2   S    
C14   C47   A    
Cu2   O3    S    
C20   C86   A    
C38   Cl5   S    
C18   C84   A    
C7    C40   A    
C53   C86   A    
C67   C73   S    
C32   C38   A    
C57   C70   A    
C11   C58   A    
C34   C70   S    
C2    O19   A    
Cu4   O8    S    
C27   C50   A    
C59   C72   A    
C10   C43   A    
Cu3   O7    S    
C8    C41   A    
C5    C38   A    
C36   C41   A    
C3    O16   A    
C16   C62   A    
C15   C48   A    
C74   C82   A    
Cu4   O14   S    
C56   O10   A    
C24   C33   A    
Cu2   O12   S    
C15   C61   A    
C79   F2    S    
Cu1   O17   S    
C45   O9    A    
C57   C90   A    
C23   O7    A    
C81   F4    S    
C33   C43   A    
C30   C47   A    
C11   C44   A    
Cu3   O18   S    
C16   C49   A    
C8    C54   A    
C40   Cl7   S    
C75   C81   A    
C29   C48   A    
C1    O5    A    
C14   Cl24  S    
Cu5   O9    S    
Cu6   O10   S    
C3    C71   S    
C82   F5    S    
C72   C77   A    
C70   C83   A    
C61   C88   A    
C28   C49   A    
C48   Cl15  S    
Cu2   O6    S    
Cu5   Cu6   S    
C89   O14   A    
C10   C57   A    
C67   O20   A    
C1    C66   S    
C9    C42   A    
C10   Cl21  S    
C5    Cl1   S    
C43   Cl10  S    
C53   C66   A    
C55   C69   A    
C78   O21   A    
C7    Cl18  S    
Cu2   O16   S    
C21   C28   A    
Cu6   O22   S    
C22   C88   A    
C63   C86   A    
C50   Cl17  S    
C61   C74   A    
C62   C75   A    
C18   C32   A    
C7    C53   A    
C83   F6    S    
C58   C85   A    
C4    C72   S    
C2    C76   S    
C46   Cl13  S    
C9    Cl20  S    
C47   Cl14  S    
C12   O6    A    
C11   Cl22  S    
C6    C39   A    
C23   O24   A    
Cu4   O19   S    
C51   C64   A    
C76   C80   A    
C19   C85   A    
C24   C90   A    
C17   C50   A    
C44   Cl11  S    
C49   Cl16  S    
C13   C59   A    
C20   C27   A    
C60   C90   A    
C27   C36   A    
C89   O18   A    
C14   C60   A    
C62   C87   A    
C45   C64   S    
Cu3   Cu4   S    
C59   C84   A    
Cu5   O13   S    
C18   C25   A    
C42   Cl9   S    
C17   C63   A    
C20   C37   A    
C13   C46   A    
C28   C37   A    
C51   C84   A    
C35   C42   A    
C31   C39   A    
C6    Cl12  S    
C9    C55   A    
C67   O11   A    
Cu3   O2    S    
C24   C30   A    
C39   Cl6   S    
C77   F1    S    
C75   C89   S    
C4    O12   A    
Cu6   O11   S    
Cu6   O21   S    
C34   O2    A    
C74   C78   S    
C2    O15   A    
C41   Cl8   S    
C5    C51   A    
Cu5   O23   S    
C17   Cl4   S    
C6    C52   A    
C56   O23   A    
C8    Cl19  S    
C25   C46   A    
C73   C83   A    
C13   Cl23  S    
C52   C65   A    
C56   C65   S    
Cu1   O4    S    
