data_mof_unit_59419.cif
_audit_creation_date              2012-12-10T17:15:11-0500
_audit_creation_method            fapswitch 2.2
_symmetry_space_group_name_H-M    P1
_symmetry_Int_Tables_number       1
_space_group_crystal_system       triclinic
_cell_length_a                    10.06517
_cell_length_b                    10.841162
_cell_length_c                    12.934503
_cell_angle_alpha                 91.677545
_cell_angle_beta                  93.076598
_cell_angle_gamma                 96.044217
_cell_volume                      1400.6527752

loop_
_atom_site_label
_atom_site_type_symbol
_atom_type_description
_atom_site_fract_x
_atom_site_fract_y
_atom_site_fract_z
_atom_type_partial_charge
C1    C     C_R   0.442761 0.267281 0.498493 0.787039
C2    C     C_R   0.556861 0.733641 0.510751 0.803180
C3    C     C_2   0.071690 0.490080 0.508246 -0.146779
C4    C     C_2   0.928305 0.509591 0.491544 -0.153899
C5    C     C_R   0.474527 0.499441 0.698225 0.880181
C6    C     C_R   0.522209 0.491645 0.301007 0.923994
C7    C     C_R   0.527692 0.474038 0.190251 -0.182086
C8    C     C_R   0.457048 0.490897 0.807194 -0.173404
C9    C     C_R   0.331558 0.537053 0.953075 -0.196179
C10   C     C_R   0.649887 0.419138 0.043828 -0.198482
C11   C     C_R   0.346876 0.538925 0.848196 -0.303384
C12   C     C_R   0.643462 0.435841 0.149666 -0.286299
C13   C     C_R   0.551227 0.436881 0.871071 0.443873
C14   C     C_R   0.415523 0.492782 0.124100 0.437061
C15   C     C_R   0.544111 0.448580 0.977592 0.014146
C16   C     C_R   0.429632 0.492440 0.018371 0.017875
C17   C     C_2   0.406129 0.135830 0.513053 0.297140
C18   C     C_2   0.590570 0.867751 0.528921 0.294919
C19   C     C_2   0.505896 0.067671 0.537231 -0.240638
C20   C     C_2   0.486298 0.934284 0.535862 -0.219469
H1    H     H_    0.728487 0.417539 0.199661 0.189688
H2    H     H_    0.273055 0.579141 0.799404 0.190731
H3    H     H_    0.245578 0.575344 0.982940 0.195190
H4    H     H_    0.739783 0.388131 0.014087 0.194225
H5    H     H_    0.383934 0.890681 0.534896 0.195931
H6    H     H_    0.607631 0.110979 0.552403 0.202624
H7    H     H_    0.898734 0.575569 0.435490 0.164525
H8    H     H_    0.101254 0.423888 0.564129 0.159885
H9    H     H_    0.868617 0.387708 0.595330 0.171390
H10   H     H_    0.131357 0.612532 0.404902 0.177476
N1    N     N_2   0.162330 0.550370 0.457540 -0.199392
N2    N     N_2   0.837670 0.449630 0.542460 -0.192132
O1    O     O_R   0.567930 0.307680 0.508550 -0.639224
O2    O     O_R   0.432070 0.692320 0.491450 -0.619026
O3    O     O_R   0.351090 0.340020 0.481290 -0.609238
O4    O     O_R   0.648910 0.659980 0.518710 -0.613234
O5    O     O_R   0.590490 0.486480 0.665020 -0.569142
O6    O     O_R   0.409510 0.513520 0.334980 -0.570465
O7    O     O_R   0.373660 0.518820 0.637760 -0.633538
O8    O     O_R   0.626340 0.481180 0.362240 -0.616146
Zn1   Zn    Zn3+2 0.644780 0.478400 0.518200 0.944216
Zn2   Zn    Zn3+2 0.355220 0.521600 0.481800 0.945539
O9    O     O_3   0.294442 0.518996 0.161776 -0.642036
C21   C     C_3   0.214335 0.406820 0.180583 0.138893
H11   H     H_    0.162421 0.422294 0.252758 0.184911
H12   H     H_    0.273008 0.326331 0.194528 0.117627
C22   C     C_3   0.108000 0.373883 0.092045 -0.413101
H13   H     H_    0.054126 0.456100 0.075337 0.234826
H14   H     H_    0.156941 0.346365 0.021274 0.224941
C23   C     C_3   0.006708 0.266627 0.119383 -0.934717
H15   H     H_    0.058057 0.182993 0.136094 0.273792
H16   H     H_    0.932492 0.243902 0.053111 0.260808
H17   H     H_    0.952731 0.292685 0.188098 0.263162
O10   O     O_3   0.652168 0.375940 0.830202 -0.643682
C24   C     C_3   0.599515 0.255001 0.793572 0.100066
H18   H     H_    0.646390 0.235471 0.719913 0.166959
H19   H     H_    0.489006 0.244243 0.775007 0.103206
C25   C     C_3   0.636146 0.158532 0.871361 -0.368811
H20   H     H_    0.746704 0.158430 0.877978 0.221781
H21   H     H_    0.601589 0.182549 0.948741 0.230802
C26   C     C_3   0.571438 0.028830 0.838139 -0.976027
H22   H     H_    0.461647 0.023146 0.845587 0.271340
H23   H     H_    0.612301 0.959241 0.888786 0.274465
H24   H     H_    0.591758 0.006355 0.756662 0.265539
O11   O     O_3   0.720106 0.930038 0.529116 -0.655532
C27   C     C_3   0.822285 0.868790 0.578893 0.111593
H25   H     H_    0.915753 0.932944 0.579058 0.153451
H26   H     H_    0.845460 0.787154 0.532414 0.169686
C28   C     C_3   0.798076 0.840667 0.693019 -0.384291
H27   H     H_    0.807666 0.929284 0.739428 0.220182
H28   H     H_    0.696315 0.793141 0.701569 0.217979
C29   C     C_3   0.898939 0.757649 0.737239 -0.898177
H29   H     H_    0.887129 0.666381 0.694610 0.280401
H30   H     H_    0.881493 0.741961 0.820102 0.265418
H31   H     H_    0.002671 0.801747 0.731421 0.255075
O12   O     O_3   0.274799 0.082428 0.496231 -0.632184
C30   C     C_3   0.197297 0.118201 0.578209 0.101162
H32   H     H_    0.091432 0.112627 0.547834 0.164377
H33   H     H_    0.224511 0.215828 0.607299 0.129176
C31   C     C_3   0.206230 0.030111 0.668181 -0.406779
H34   H     H_    0.166712 0.934529 0.640859 0.223122
H35   H     H_    0.312309 0.029184 0.695840 0.225585
C32   C     C_3   0.127565 0.070619 0.758600 -0.968380
H36   H     H_    0.170798 0.163630 0.789922 0.265040
H37   H     H_    0.132815 0.003249 0.821325 0.273877
H38   H     H_    0.021017 0.074543 0.733217 0.265803

loop_
_geom_bond_atom_site_label_1
_geom_bond_atom_site_label_2
_ccdc_geom_bond_type
C27   H26   S    
C24   H18   S    
C8    C13   A    
N1    Zn2   S    
C5    O5    A    
C2    C18   S    
C19   C20   S    
O2    Zn2   S    
C1    O1    A    
C22   H14   S    
C30   H32   S    
C18   O11   S    
C3    H8    S    
C9    C16   A    
O6    Zn2   S    
H9    N2    S    
C10   C15   A    
C29   H31   S    
H10   N1    S    
C27   C28   S    
C20   H5    S    
C25   H21   S    
C15   C16   A    
C19   H6    S    
C26   H23   S    
C28   H28   S    
O3    Zn2   S    
C7    C14   A    
C22   H13   S    
C17   O12   S    
C23   H16   S    
N2    Zn1   S    
C6    O6    A    
O7    Zn2   S    
C18   C20   D    
C21   C22   S    
C29   H29   S    
C2    O2    A    
C25   C26   S    
C27   H25   S    
O4    Zn1   S    
C26   H22   S    
C31   C32   S    
C21   H12   S    
C22   C23   S    
C30   H33   S    
C7    C12   A    
C23   H17   S    
O12   C30   S    
C29   H30   S    
C9    H3    S    
C10   H4    S    
C25   H20   S    
C12   H1    S    
C26   H24   S    
O9    C21   S    
C32   H36   S    
C23   H15   S    
C3    N1    D    
C9    C11   A    
C4    N2    D    
C10   C12   A    
C31   H35   S    
O8    Zn1   S    
C32   H37   S    
C24   H19   S    
C6    O8    A    
C3    C4    S    
C4    H7    S    
C21   H11   S    
C1    O3    A    
C13   O10   S    
C30   C31   S    
C2    O4    A    
C5    O7    A    
O10   C24   S    
C28   C29   S    
C31   H34   S    
C5    C8    S    
C6    C7    S    
C11   H2    S    
C1    C17   S    
O1    Zn1   S    
C13   C15   A    
C8    C11   A    
C17   C19   D    
C14   C16   A    
O5    Zn1   S    
C28   H27   S    
C32   H38   S    
O11   C27   S    
C24   C25   S    
C14   O9    S    
