data_mof_unit_54676.cif
_audit_creation_date              2012-12-10T18:07:30-0500
_audit_creation_method            fapswitch 2.2
_symmetry_space_group_name_H-M    P1
_symmetry_Int_Tables_number       1
_space_group_crystal_system       triclinic
_cell_length_a                    11.498015
_cell_length_b                    12.672652
_cell_length_c                    13.182168
_cell_angle_alpha                 82.328698
_cell_angle_beta                  91.918222
_cell_angle_gamma                 102.23102
_cell_volume                      1860.35198384

loop_
_atom_site_label
_atom_site_type_symbol
_atom_type_description
_atom_site_fract_x
_atom_site_fract_y
_atom_site_fract_z
_atom_type_partial_charge
C1    C     C_R   0.482458 0.439205 0.690454 0.914684
C2    C     C_R   0.685389 0.616092 0.908748 0.453339
C3    C     C_R   0.638767 0.529877 0.851257 -0.236922
C4    C     C_R   0.717657 0.501154 0.499755 0.947350
C5    C     C_R   0.505082 0.518334 0.130964 0.439410
C6    C     C_R   0.629138 0.692879 0.162738 -0.216747
C7    C     C_R   0.456138 0.403617 0.798427 -0.198414
C8    C     C_R   0.270144 0.077372 0.448503 -0.240999
C9    C     C_R   0.661666 0.803451 0.608266 -0.098479
C10   C     C_R   0.699785 0.907561 0.636883 -0.230668
C11   C     C_R   0.627607 0.984311 0.610536 0.471187
C12   C     C_R   0.551140 0.593159 0.199754 -0.257550
C13   C     C_R   0.530185 0.961075 0.542763 -0.178077
C14   C     C_R   0.492587 0.852885 0.520493 0.095789
C15   C     C_R   0.463937 0.039607 0.500071 -0.046666
C16   C     C_R   0.521042 0.560074 0.308980 0.897982
C17   C     C_R   0.341864 0.001945 0.476969 0.016945
C18   C     C_R   0.298941 0.889950 0.474133 -0.219643
C19   C     C_R   0.384749 0.826509 0.465712 0.471561
C20   C     C_R   0.514097 0.152185 0.474820 0.135040
C21   C     C_R   0.321406 0.186867 0.432848 -0.013839
C22   C     C_R   0.282403 0.499294 0.499022 0.947786
C23   C     C_R   0.348006 0.329471 0.827635 -0.052244
C24   C     C_1   0.838809 0.503115 0.499147 -0.057668
C25   C     C_1   0.940970 0.502022 0.498424 0.052932
C26   C     C_1   0.059199 0.499271 0.497831 0.054480
C27   C     C_1   0.161346 0.497959 0.497973 -0.117261
C28   C     C_R   0.665169 0.711609 0.058719 -0.105207
C29   C     C_2   0.680618 0.773092 0.233037 1.035682
C30   C     C_2   0.170322 0.838067 0.472406 0.898512
C31   C     C_2   0.641755 0.187874 0.448716 0.940568
C32   C     C_3   0.599833 0.050385 0.759957 0.162251
C33   C     C_3   0.492896 0.101113 0.768551 -0.784872
C34   C     C_R   0.292846 0.338839 0.917165 -0.272276
C35   C     C_2   0.813952 0.934950 0.693815 1.006079
C36   C     C_3   0.306208 0.782163 0.306077 0.073669
C37   C     C_3   0.341223 0.736456 0.214178 -0.760034
C38   C     C_3   0.882730 0.631494 0.948350 0.081196
C39   C     C_3   0.006742 0.697564 0.921052 -0.627128
C40   C     C_2   0.746582 0.815108 0.017551 1.026709
C41   C     C_3   0.529537 0.341707 0.162501 0.113854
C42   C     C_3   0.460044 0.225026 0.165164 -0.727284
C43   C     C_2   0.279093 0.251650 0.762185 0.921306
C44   C     C_2   0.257775 0.452992 0.044695 0.973350
C45   C     C_R   0.340199 0.422200 0.974931 0.036876
C46   C     C_2   0.719131 0.498489 0.778862 0.929856
C47   C     C_R   0.459524 0.481233 0.956891 0.063411
C48   C     C_R   0.519475 0.469784 0.869070 -0.088267
C49   C     C_R   0.522541 0.548206 0.026256 -0.053326
C50   C     C_R   0.621773 0.630267 0.994321 -0.112709
H1    H     H_    0.175599 0.054076 0.436086 0.213745
H2    H     H_    0.419858 0.065212 0.718270 0.268002
H3    H     H_    0.461433 0.085649 0.848962 0.231632
H4    H     H_    0.517933 0.190256 0.745101 0.271859
H5    H     H_    0.940897 0.050690 0.747242 0.354249
H6    H     H_    0.318604 0.871933 0.284158 0.165564
H7    H     H_    0.210869 0.744830 0.320467 0.174086
H8    H     H_    0.330424 0.646958 0.231958 0.249418
H9    H     H_    0.283095 0.755115 0.148167 0.227244
H10   H     H_    0.434200 0.774909 0.193028 0.273357
H11   H     H_    0.879020 0.546017 0.934671 0.138477
H12   H     H_    0.713305 0.741976 0.629689 0.235699
H13   H     H_    0.868066 0.632420 0.031224 0.132826
H14   H     H_    0.013957 0.783161 0.935256 0.261843
H15   H     H_    0.074044 0.662311 0.968616 0.194773
H16   H     H_    0.024960 0.696378 0.839033 0.284535
H17   H     H_    0.897142 0.926469 0.035294 0.354372
H18   H     H_    0.590209 0.346839 0.229925 0.185084
H19   H     H_    0.585114 0.361032 0.092077 0.112250
H20   H     H_    0.404060 0.216690 0.095239 0.249773
H21   H     H_    0.522580 0.168810 0.168497 0.234517
H22   H     H_    0.401791 0.202035 0.233274 0.260253
H23   H     H_    0.204766 0.289564 0.934640 0.197176
H24   H     H_    0.192361 0.227257 0.629212 0.345257
H25   H     H_    0.199792 0.572832 0.099678 0.326935
H26   H     H_    0.669164 0.337023 0.826924 0.297783
H27   H     H_    0.264865 0.244212 0.411908 0.178798
H28   H     H_    0.781235 0.804570 0.358063 0.344926
H29   H     H_    0.008831 0.832736 0.406186 0.359195
H30   H     H_    0.809183 0.252014 0.491205 0.342213
H31   H     H_    0.670271 0.085803 0.812758 0.212256
H32   H     H_    0.573930 0.961294 0.787278 0.140382
N1    N     N_R   0.440320 0.222190 0.444690 -0.161440
N2    N     N_R   0.559060 0.776980 0.554780 -0.119584
O1    O     O_R   0.471500 0.366730 0.627160 -0.582698
O2    O     O_R   0.752229 0.743365 0.315143 -0.793613
O3    O     O_2   0.133229 0.756544 0.532497 -0.596159
O4    O     O_R   0.093184 0.877332 0.399732 -0.823161
O5    O     O_2   0.674295 0.175970 0.364430 -0.657292
O6    O     O_R   0.725060 0.233138 0.518859 -0.694831
O7    O     O_3   0.644413 0.076864 0.658762 -0.547798
O8    O     O_2   0.867308 0.863433 0.726381 -0.559221
O9    O     O_R   0.862821 0.042858 0.708002 -0.748213
O10   O     O_3   0.375259 0.754306 0.393173 -0.571528
O11   O     O_3   0.798424 0.678124 0.887242 -0.543326
O12   O     O_R   0.509620 0.544830 0.662520 -0.610532
O13   O     O_2   0.724274 0.863683 0.935117 -0.622458
O14   O     O_R   0.848964 0.856197 0.071990 -0.795574
O15   O     O_3   0.448787 0.411816 0.165656 -0.603093
O16   O     O_2   0.246741 0.155949 0.797448 -0.634926
O17   O     O_R   0.241485 0.288254 0.664629 -0.787366
O18   O     O_2   0.180543 0.383045 0.090430 -0.615602
O19   O     O_R   0.265237 0.562474 0.054722 -0.832086
O20   O     O_2   0.787789 0.568854 0.725190 -0.534528
O21   O     O_R   0.720026 0.389265 0.772893 -0.770000
O22   O     O_R   0.646490 0.410960 0.482310 -0.609041
O23   O     O_R   0.684610 0.589050 0.517670 -0.596885
O24   O     O_R   0.490380 0.455170 0.337480 -0.583435
O25   O     O_R   0.528500 0.633270 0.372840 -0.547516
O26   O     O_R   0.315390 0.410950 0.482330 -0.612713
O27   O     O_R   0.353510 0.589040 0.517690 -0.559560
O28   O     O_2   0.662376 0.865540 0.217800 -0.608359
Zn1   Zn    Zn3+2 0.474550 0.381080 0.476390 1.003379
Zn2   Zn    Zn3+2 0.525450 0.618920 0.523610 1.035159

loop_
_geom_bond_atom_site_label_1
_geom_bond_atom_site_label_2
_ccdc_geom_bond_type
H25   O19   S    
H26   O21   S    
C41   C42   S    
N1    Zn1   S    
C29   O28   D    
C14   N2    A    
H5    O9    S    
O12   Zn2   S    
C47   C49   A    
C33   H2    S    
C39   H14   S    
C26   C27   T    
C2    O11   S    
C40   O14   S    
C38   C39   S    
C4    C24   S    
C32   O7    S    
C28   C40   S    
C46   O21   S    
C3    C48   A    
C42   H20   S    
C23   C43   S    
C18   C19   A    
C2    C50   A    
H17   O14   S    
C28   C50   A    
C6    C28   A    
C12   C16   S    
C31   O5    D    
C38   O11   S    
C41   O15   S    
C10   C35   S    
C18   C30   S    
C9    C10   A    
C37   H8    S    
C38   H11   S    
C35   O8    D    
H28   O2    S    
C45   C47   A    
C13   C14   A    
C1    O1    A    
C39   H15   S    
C5    C49   A    
H29   O4    S    
C44   O19   S    
C16   O25   A    
C8    C21   A    
C41   H18   S    
C35   O9    S    
C33   H3    S    
C15   C20   A    
C4    O23   A    
O22   Zn1   S    
C9    H12   S    
C21   N1    A    
C24   C25   T    
C5    C12   A    
C36   H7    S    
C40   O13   D    
C44   O18   D    
C34   H23   S    
C32   H31   S    
C25   C26   S    
C4    O22   A    
O24   Zn1   S    
C43   O17   S    
O23   Zn2   S    
C36   H6    S    
C11   O7    S    
C22   O26   A    
C47   C48   A    
O26   Zn1   S    
C31   O6    S    
C42   H22   S    
C17   C18   A    
C34   C45   A    
C43   O16   D    
C8    H1    S    
C29   O2    S    
C37   H9    S    
C19   O10   S    
O25   Zn2   S    
H24   O17   S    
C49   C50   A    
C22   C27   S    
C13   C15   A    
C39   H16   S    
C30   O4    S    
C44   C45   S    
C41   H19   S    
C38   H13   S    
C33   H4    S    
C15   C17   A    
C36   C37   S    
C23   C34   A    
N2    Zn2   S    
C1    C7    S    
C14   C19   A    
C5    O15   S    
C32   H32   S    
C3    C46   S    
C8    C17   A    
C7    C48   A    
O1    Zn1   S    
C2    C3    A    
C32   C33   S    
C6    C12   A    
C11   C13   A    
C46   O20   D    
C1    O12   A    
C7    C23   A    
C42   H21   S    
O27   Zn2   S    
H30   O6    S    
C37   H10   S    
C10   C11   A    
C16   O24   A    
C9    N2    A    
C36   O10   S    
C6    C29   S    
C22   O27   A    
C20   N1    A    
C21   H27   S    
C30   O3    D    
C20   C31   S    
