data_mof_unit_17958.cif
_audit_creation_date              2012-12-10T19:42:32-0500
_audit_creation_method            fapswitch 2.2
_symmetry_space_group_name_H-M    P1
_symmetry_Int_Tables_number       1
_space_group_crystal_system       triclinic
_cell_length_a                    10.939297
_cell_length_b                    10.937763
_cell_length_c                    9.906346
_cell_angle_alpha                 99.653369
_cell_angle_beta                  99.645082
_cell_angle_gamma                 93.269504
_cell_volume                      1147.57976596

loop_
_atom_site_label
_atom_site_type_symbol
_atom_type_description
_atom_site_fract_x
_atom_site_fract_y
_atom_site_fract_z
_atom_type_partial_charge
C1    C     C_R   0.498965 0.261860 0.498492 0.788937
C2    C     C_R   0.501034 0.738140 0.501509 0.788939
C3    C     C_R   0.872493 0.500668 0.504757 -0.088627
C4    C     C_R   0.127507 0.499324 0.495245 -0.088629
C5    C     C_R   0.962091 0.540946 0.627897 -0.001227
C6    C     C_R   0.037907 0.459043 0.372107 -0.001222
C7    C     C_R   0.255961 0.045187 0.026085 -0.129009
C8    C     C_R   0.744050 0.954821 0.973910 -0.129018
C9    C     C_R   0.293179 0.030180 0.163779 -0.167083
C10   C     C_R   0.706824 0.969826 0.836217 -0.167089
C11   C     C_R   0.415751 0.068267 0.233034 0.121867
C12   C     C_R   0.584251 0.931733 0.766967 0.121867
C13   C     C_R   0.500511 0.120544 0.162317 -0.049180
C14   C     C_R   0.499498 0.879450 0.837688 -0.049180
C15   C     C_R   0.462210 0.137917 0.025897 -0.146320
C16   C     C_R   0.537807 0.862077 0.974108 -0.146325
C17   C     C_R   0.339941 0.100082 0.957519 -0.151571
C18   C     C_R   0.660077 0.899919 0.042480 -0.151563
C19   C     C_R   0.460334 0.912153 0.379094 -0.251360
C20   C     C_R   0.539659 0.087847 0.620908 -0.251366
C21   C     C_R   0.500685 0.872495 0.504769 -0.088578
C22   C     C_R   0.499311 0.127504 0.495232 -0.088576
C23   C     C_R   0.261863 0.498988 0.498495 0.788907
C24   C     C_R   0.738137 0.501010 0.501505 0.788910
C25   C     C_R   0.540847 0.962113 0.627937 -0.001248
C26   C     C_R   0.459148 0.037886 0.372065 -0.001252
C27   C     C_2   0.510819 0.510607 0.080649 0.172518
C28   C     C_2   0.489188 0.489389 0.919353 0.172533
C29   C     C_R   0.137715 0.462241 0.025900 -0.146921
C30   C     C_R   0.862272 0.537743 0.974098 -0.146913
C31   C     C_R   0.120430 0.500487 0.162362 -0.049483
C32   C     C_R   0.879566 0.499497 0.837639 -0.049482
C33   C     C_R   0.068318 0.415646 0.233099 0.121973
C34   C     C_R   0.931678 0.584339 0.766904 0.121967
C35   C     C_R   0.030381 0.293017 0.163872 -0.167041
C36   C     C_R   0.969606 0.706969 0.836131 -0.167038
C37   C     C_R   0.045357 0.255829 0.026154 -0.128905
C38   C     C_R   0.954622 0.744156 0.973846 -0.128891
C39   C     C_R   0.100041 0.339912 0.957536 -0.151686
C40   C     C_R   0.899938 0.660072 0.042462 -0.151692
C41   C     C_R   0.912176 0.460215 0.379113 -0.251312
C42   C     C_R   0.087823 0.539775 0.620890 -0.251300
Cu1   Cu    Cu3+1 0.521120 0.521140 0.639640 0.967201
Cu2   Cu    Cu3+1 0.478880 0.478860 0.360360 0.967198
H1    H     H_    0.109776 0.311206 0.850170 0.125533
H2    H     H_    0.890197 0.688778 0.149826 0.125527
H3    H     H_    0.596746 0.145571 0.212054 0.115665
H4    H     H_    0.403263 0.854418 0.787957 0.115669
H5    H     H_    0.529362 0.175664 0.971766 0.121082
H6    H     H_    0.470662 0.824323 0.028243 0.121095
H7    H     H_    0.429478 0.844566 0.284161 0.156687
H8    H     H_    0.570516 0.155434 0.715841 0.156675
H9    H     H_    0.620673 0.619887 0.905113 0.196028
H10   H     H_    0.379333 0.380110 0.094880 0.196014
H11   H     H_    0.175233 0.529495 0.971729 0.121237
H12   H     H_    0.824754 0.470488 0.028267 0.121227
H13   H     H_    0.145336 0.596760 0.212091 0.115701
H14   H     H_    0.854666 0.403225 0.787910 0.115696
H15   H     H_    0.986359 0.227408 0.215418 0.117645
H16   H     H_    0.013625 0.772581 0.784585 0.117645
H17   H     H_    0.012515 0.162497 0.971865 0.111053
H18   H     H_    0.987459 0.837491 0.028135 0.111056
H19   H     H_    0.844614 0.429273 0.284190 0.156639
H20   H     H_    0.155385 0.570716 0.715813 0.156651
H21   H     H_    0.311203 0.109864 0.850180 0.125426
H22   H     H_    0.688820 0.890137 0.149818 0.125424
H23   H     H_    0.162677 0.012225 0.971779 0.111053
H24   H     H_    0.837334 0.987789 0.028212 0.111048
H25   H     H_    0.227633 0.986028 0.215289 0.117690
H26   H     H_    0.772364 0.013983 0.784703 0.117691
N1    N     N_2   0.447120 0.447110 0.150550 -0.273873
N2    N     N_2   0.552880 0.552890 0.849450 -0.273881
O1    O     O_R   0.517830 0.337490 0.617920 -0.558496
O2    O     O_R   0.482170 0.662510 0.382080 -0.558481
O3    O     O_R   0.482150 0.301790 0.382070 -0.577954
O4    O     O_R   0.517850 0.698210 0.617930 -0.577958
O5    O     O_R   0.337480 0.517860 0.617920 -0.558311
O6    O     O_R   0.662520 0.482140 0.382080 -0.558330
O7    O     O_R   0.301810 0.482160 0.382070 -0.578027
O8    O     O_R   0.698190 0.517840 0.617930 -0.578024
N3    N     N_3   0.395970 0.396427 0.840019 -0.508787
H27   H     H_    0.310427 0.417519 0.865376 0.186029
H28   H     H_    0.416865 0.310752 0.865173 0.186137
N4    N     N_3   0.604042 0.603564 0.159985 -0.508852
H29   H     H_    0.689587 0.582424 0.134711 0.186086
H30   H     H_    0.583204 0.689225 0.134791 0.186136

loop_
_geom_bond_atom_site_label_1
_geom_bond_atom_site_label_2
_ccdc_geom_bond_type
Cu1   O1    S    
C38   C40   A    
C5    C42   A    
Cu1   N2    S    
C32   H14   S    
N3    H27   S    
C27   N1    D    
C40   H2    S    
C27   N4    S    
C19   C21   A    
N4    H30   S    
C20   C22   A    
C20   C25   A    
Cu2   N1    S    
C35   H15   S    
C19   C26   A    
C24   O8    A    
H10   N1    S    
C7    C17   A    
C6    C41   A    
C31   C33   A    
C2    O2    A    
C39   H1    S    
C1    C22   S    
C3    C24   S    
C28   N2    D    
N3    H28   S    
Cu2   O7    S    
C1    O3    A    
N4    H29   S    
C4    C6    A    
C13   H3    S    
C4    C23   S    
C14   H4    S    
C29   H11   S    
C11   C26   S    
C36   H16   S    
Cu1   O8    S    
C30   H12   S    
C8    C18   A    
C32   C34   A    
Cu2   O3    S    
Cu1   Cu2   S    
C29   C31   A    
C5    C34   S    
C29   C39   A    
C2    C21   S    
C30   C40   A    
C23   O5    A    
Cu2   O2    S    
C9    C11   A    
C10   C12   A    
C10   H26   S    
C16   C18   A    
C12   C14   A    
C8    H24   S    
C13   C15   A    
C14   C16   A    
C18   H22   S    
C41   H19   S    
C42   H20   S    
C2    O4    A    
C24   O6    A    
Cu1   O4    S    
C7    C9    A    
C21   C25   A    
C3    C41   A    
C35   C37   A    
C28   N3    S    
C8    C10   A    
C9    H25   S    
C3    C5    A    
C37   H17   S    
C15   C17   A    
Cu1   O5    S    
C17   H21   S    
C6    C33   S    
C12   C25   S    
C1    O1    A    
C31   H13   S    
Cu2   O6    S    
C37   C39   A    
C30   C32   A    
C11   C13   A    
C4    C42   A    
C36   C38   A    
C33   C35   A    
C34   C36   A    
C15   H5    S    
C16   H6    S    
C7    H23   S    
C19   H7    S    
C20   H8    S    
C22   C26   A    
C27   C28   S    
C23   O7    A    
H9    N2    S    
C38   H18   S    
