data_mof_unit_7787.cif
_audit_creation_date              2012-12-10T17:31:13-0500
_audit_creation_method            fapswitch 2.2
_symmetry_space_group_name_H-M    P1
_symmetry_Int_Tables_number       1
_space_group_crystal_system       triclinic
_cell_length_a                    11.972189
_cell_length_b                    12.873602
_cell_length_c                    15.447376
_cell_angle_alpha                 86.860227
_cell_angle_beta                  115.471852
_cell_angle_gamma                 93.724311
_cell_volume                      2143.91418022

loop_
_atom_site_label
_atom_site_type_symbol
_atom_type_description
_atom_site_fract_x
_atom_site_fract_y
_atom_site_fract_z
_atom_type_partial_charge
C1    C     C_R   0.475868 0.299440 0.496853 0.883375
C2    C     C_R   0.667493 0.970532 0.559810 -0.261624
C3    C     C_R   0.340292 0.136698 0.447896 -0.016589
C4    C     C_R   0.660192 0.862643 0.554967 -0.014791
C5    C     C_R   0.566342 0.131995 0.529714 -0.283898
C6    C     C_R   0.434396 0.867974 0.470698 -0.285722
C7    C     C_R   0.559038 0.025705 0.522691 0.170377
C8    C     C_R   0.441854 0.974121 0.478258 0.170946
C9    C     C_R   0.998363 0.589576 0.401835 -0.355187
C10   C     C_R   0.001866 0.410804 0.598563 -0.362905
C11   C     C_R   0.120302 0.582116 0.412550 0.018367
C12   C     C_R   0.524252 0.700486 0.503472 0.884397
C13   C     C_R   0.879775 0.418045 0.587614 0.017723
C14   C     C_R   0.163956 0.463155 0.544473 -0.030581
C15   C     C_R   0.836210 0.537066 0.455756 -0.034457
C16   C     C_R   0.575895 0.492987 0.680568 0.865433
C17   C     C_R   0.423421 0.502443 0.319437 0.867751
C18   C     C_R   0.042058 0.468178 0.536436 0.088610
C19   C     C_R   0.958179 0.532169 0.463940 0.085171
C20   C     C_R   0.618713 0.471698 0.783391 -0.060230
C21   C     C_R   0.374759 0.486809 0.216467 -0.061893
C22   C     C_R   0.773963 0.420045 0.939661 -0.206035
C23   C     C_R   0.629898 0.394737 0.108988 -0.235826
C24   C     C_R   0.206667 0.467758 0.058339 -0.209449
C25   C     C_R   0.741296 0.448158 0.843524 -0.212305
C26   C     C_R   0.248039 0.487836 0.155415 -0.214591
C27   C     C_R   0.529761 0.465542 0.819344 -0.265225
C28   C     C_R   0.458605 0.463082 0.180660 -0.264937
C29   C     C_R   0.558501 0.432073 0.913355 0.091476
C30   C     C_R   0.419301 0.439488 0.084825 0.091629
C31   C     C_R   0.683635 0.413265 0.975296 0.183074
C32   C     C_R   0.291820 0.445931 0.022218 0.184586
C33   C     C_R   0.466912 0.424587 0.948571 0.071529
C34   C     C_R   0.338407 0.425108 0.887383 -0.234718
C35   C     C_R   0.505661 0.418582 0.048676 0.069636
C36   C     C_R   0.776221 0.805736 0.600612 0.141796
C37   C     C_R   0.863315 0.815283 0.561886 -0.162985
C38   C     C_R   0.969897 0.757547 0.601984 -0.140450
C39   C     C_R   0.990433 0.690429 0.681111 -0.104027
C40   C     C_R   0.904959 0.681584 0.720833 -0.121567
C41   C     C_R   0.798430 0.739363 0.681140 -0.098761
C42   C     C_R   0.223309 0.192360 0.406261 0.142515
C43   C     C_R   0.193194 0.256364 0.323339 -0.097887
C44   C     C_R   0.084135 0.310906 0.286237 -0.128381
C45   C     C_R   0.716878 0.390200 0.072122 -0.242815
C46   C     C_R   0.004488 0.301568 0.331276 -0.105919
C47   C     C_R   0.033173 0.237002 0.413029 -0.140275
C48   C     C_R   0.142053 0.182314 0.450389 -0.162830
C49   C     C_R   0.252055 0.433614 0.924228 -0.247018
C50   C     C_R   0.541792 0.811813 0.509502 -0.105889
C51   C     C_R   0.458670 0.187989 0.491621 -0.104177
C52   C     C_R   0.333346 0.028993 0.442203 -0.261248
H1    H     H_    0.811452 0.372999 0.120190 0.139212
H2    H     H_    0.811208 0.451317 0.816407 0.144163
H3    H     H_    0.869565 0.404206 0.986172 0.127626
H4    H     H_    0.108778 0.471312 0.011253 0.127534
H5    H     H_    0.661582 0.377288 0.184793 0.145185
H6    H     H_    0.302163 0.417261 0.810721 0.139197
H7    H     H_    0.343855 0.828791 0.434929 0.158973
H8    H     H_    0.656883 0.171340 0.564853 0.159136
H9    H     H_    0.243501 0.988266 0.408452 0.140716
H10   H     H_    0.757326 0.011039 0.594472 0.140255
H11   H     H_    0.771131 0.586825 0.400975 0.125242
H12   H     H_    0.154606 0.435599 0.875384 0.138632
H13   H     H_    0.229050 0.413388 0.599251 0.120368
H14   H     H_    0.847518 0.865894 0.499743 0.127056
H15   H     H_    0.036032 0.764095 0.571170 0.137977
H16   H     H_    0.072409 0.645114 0.711491 0.130816
H17   H     H_    0.920910 0.629532 0.782047 0.117321
H18   H     H_    0.732215 0.731092 0.711916 0.105224
H19   H     H_    0.254717 0.264771 0.288293 0.114527
H20   H     H_    0.061385 0.360548 0.222692 0.113008
H21   H     H_    0.920665 0.344459 0.303015 0.124050
H22   H     H_    0.971448 0.229931 0.447856 0.137447
H23   H     H_    0.849539 0.374239 0.636093 0.122265
H24   H     H_    0.163921 0.133298 0.514332 0.127512
H25   H     H_    0.150512 0.625935 0.364066 0.123657
H26   H     H_    0.936046 0.639525 0.345300 0.147015
H27   H     H_    0.064242 0.360995 0.655226 0.143002
H28   H     H_    0.556016 0.467420 0.228034 0.159091
H29   H     H_    0.437915 0.490000 0.773359 0.158175
H30   H     H_    0.181664 0.505148 0.182353 0.148707
N1    N     N_R   0.799120 0.480200 0.517090 -0.090385
N2    N     N_R   0.200880 0.519800 0.482910 -0.090491
O1    O     O_R   0.580150 0.341050 0.504560 -0.623156
O2    O     O_R   0.419850 0.658950 0.495440 -0.622123
O3    O     O_R   0.388090 0.353760 0.493600 -0.605082
O4    O     O_R   0.611910 0.646240 0.506400 -0.603561
O5    O     O_R   0.650890 0.490020 0.640860 -0.620239
O6    O     O_R   0.349110 0.509980 0.359140 -0.620190
O7    O     O_R   0.458830 0.502730 0.629890 -0.623124
O8    O     O_R   0.541170 0.497270 0.370110 -0.624429
Zn1   Zn    Zn3+2 0.628240 0.491510 0.507320 0.942625
Zn2   Zn    Zn3+2 0.371760 0.508490 0.492680 0.943867

loop_
_geom_bond_atom_site_label_1
_geom_bond_atom_site_label_2
_ccdc_geom_bond_type
C1    O3    A    
C21   C26   A    
C4    C36   S    
C3    C42   S    
C23   C45   A    
C27   C29   A    
C39   H16   S    
C14   C18   A    
C2    C7    A    
C14   N2    A    
C7    C8    A    
C15   C19   A    
C42   C48   A    
C30   C35   A    
C36   C37   A    
C24   C26   A    
C52   H9    S    
C38   C39   A    
C20   C25   A    
N1    Zn1   S    
O3    Zn2   S    
C29   C33   A    
C18   C19   A    
C48   H24   S    
O2    Zn2   S    
O4    Zn1   S    
O1    Zn1   S    
C9    C19   A    
C13   H23   S    
C22   C25   A    
C11   H25   S    
C8    C52   A    
C16   C20   S    
C45   H1    S    
C16   O5    A    
C26   H30   S    
C49   H12   S    
C36   C41   A    
C17   O8    A    
C44   C46   A    
O6    Zn2   S    
C1    O1    A    
C22   C31   A    
C12   O4    A    
C27   H29   S    
C25   H2    S    
C40   H17   S    
C39   C40   A    
C5    C7    A    
C3    C51   A    
C6    C8    A    
C17   C21   S    
C4    C50   A    
C2    C4    A    
C43   C44   A    
C24   C32   A    
C37   C38   A    
C9    C11   A    
C47   C48   A    
C3    C52   A    
C37   H14   S    
C33   C34   A    
N2    Zn2   S    
C6    C50   A    
C1    C51   S    
C40   C41   A    
C21   C28   A    
C23   C35   A    
C42   C43   A    
C23   H5    S    
C46   C47   A    
C34   C49   A    
C43   H19   S    
C5    H8    S    
C6    H7    S    
C17   O6    A    
C47   H22   S    
C10   C13   A    
C12   C50   S    
C10   H27   S    
C22   H3    S    
C20   C27   A    
C11   N2    A    
C24   H4    S    
C13   N1    A    
C12   O2    A    
C28   C30   A    
C29   C31   A    
O7    Zn2   S    
C30   C32   A    
C10   C18   A    
C15   N1    A    
O8    Zn1   S    
C33   C35   A    
C14   H13   S    
C44   H20   S    
C9    H26   S    
O5    Zn1   S    
C28   H28   S    
C32   C49   A    
C38   H15   S    
C16   O7    A    
C31   C45   A    
C34   H6    S    
C15   H11   S    
C5    C51   A    
C46   H21   S    
C2    H10   S    
C41   H18   S    
