data_mof_unit_12293.cif
_audit_creation_date              2012-10-26T18:54:55-0400
_audit_creation_method            fapswitch 2.2
_symmetry_space_group_name_H-M    P1
_symmetry_Int_Tables_number       1
_space_group_crystal_system       triclinic
_cell_length_a                    10.825626
_cell_length_b                    9.628697
_cell_length_c                    10.784556
_cell_angle_alpha                 89.725805
_cell_angle_beta                  93.445955
_cell_angle_gamma                 89.349884
_cell_volume                      1122.02464003

loop_
_atom_site_label
_atom_site_type_symbol
_atom_type_description
_atom_site_fract_x
_atom_site_fract_y
_atom_site_fract_z
_atom_type_partial_charge
C1    C     C_R   0.262397 0.501199 0.498707 0.570700
C2    C     C_R   0.439033 0.601650 0.930459 0.031919
C3    C     C_R   0.503181 0.500297 0.129289 0.007108
C4    C     C_R   0.508682 0.502508 0.870845 0.012931
C5    C     C_R   0.583250 0.409264 0.070832 -0.164012
C6    C     C_R   0.585484 0.409825 0.941454 -0.161867
C7    C     C_3   0.303891 0.632678 0.908078 -0.126656
C8    C     C_3   0.294717 0.619809 0.048328 -0.129316
C9    C     C_R   0.071391 0.419329 0.584383 0.263056
C10   C     C_R   0.942665 0.425125 0.590325 0.211535
C11   C     C_R   0.870855 0.499127 0.497758 0.002221
C12   C     C_R   0.737119 0.499351 0.500110 0.529280
C13   C     C_R   0.127820 0.504552 0.498836 0.005872
C14   C     C_R   0.927250 0.577795 0.406243 -0.030453
C15   C     C_R   0.056546 0.592388 0.415644 -0.073324
C16   C     C_3   0.279257 0.779619 0.857058 -0.404996
C17   C     C_3   0.221269 0.491561 0.084718 -0.419385
C18   C     C_3   0.851256 0.642978 0.297555 -0.363624
C19   C     C_3   0.118274 0.703663 0.341755 -0.357871
C20   C     C_3   0.346667 0.144063 0.311347 -0.339246
C21   C     C_3   0.655322 0.137123 0.685960 -0.330517
C22   C     C_R   0.431005 0.073831 0.410214 0.100418
C23   C     C_R   0.569850 0.070555 0.588897 0.086648
C24   C     C_R   0.435336 0.924693 0.408646 0.327669
C25   C     C_R   0.566623 0.921498 0.589966 0.331004
C26   C     C_R   0.498974 0.500076 0.262582 0.521314
C27   C     C_R   0.502989 0.499996 0.737305 0.546658
C28   C     C_R   0.432744 0.596925 0.058077 0.034968
Cu1   Cu    Cu3+1 0.500000 0.640660 0.500000 1.037681
Cu2   Cu    Cu3+1 0.500000 0.359340 0.500000 0.943897
H1    H     H_    0.642008 0.336689 0.124846 0.132607
H2    H     H_    0.239932 0.466281 0.184514 0.123228
H3    H     H_    0.094121 0.279450 0.716719 0.366390
H4    H     H_    0.816755 0.416229 0.710592 0.315444
H5    H     H_    0.756978 0.600078 0.284475 0.146744
H6    H     H_    0.843601 0.757003 0.310522 0.147416
H7    H     H_    0.895391 0.620246 0.209427 0.118808
H8    H     H_    0.154740 0.784474 0.406739 0.190429
H9    H     H_    0.195431 0.658532 0.292611 0.169310
H10   H     H_    0.056639 0.758155 0.271518 0.115035
H11   H     H_    0.322605 0.251886 0.328685 0.192182
H12   H     H_    0.645508 0.337435 0.896894 0.118601
H13   H     H_    0.389760 0.139622 0.220536 0.099083
H14   H     H_    0.256159 0.090550 0.303395 0.103087
H15   H     H_    0.672290 0.246029 0.670010 0.213669
H16   H     H_    0.616615 0.126556 0.778477 0.085609
H17   H     H_    0.748051 0.086255 0.687794 0.142554
H18   H     H_    0.369741 0.901211 0.238174 0.292123
H19   H     H_    0.641898 0.892388 0.756926 0.297640
H20   H     H_    0.254227 0.551625 0.851837 0.179503
H21   H     H_    0.266287 0.717166 0.094267 0.154478
H22   H     H_    0.179391 0.805556 0.860930 0.138183
H23   H     H_    0.334156 0.857745 0.911526 0.137211
H24   H     H_    0.304039 0.784832 0.758724 0.173383
H25   H     H_    0.120730 0.512806 0.067084 0.143400
H26   H     H_    0.247171 0.398864 0.030485 0.153947
N1    N     N_R   0.500000 0.852070 0.500000 -0.179245
N2    N     N_R   0.500000 0.147940 0.500000 -0.242431
O1    O     O_R   0.319640 0.618740 0.499990 -0.493750
O2    O     O_3   0.890516 0.361564 0.689331 -0.739940
O3    O     O_3   0.371989 0.849295 0.317613 -0.702756
O4    O     O_3   0.635478 0.842741 0.676839 -0.663857
O5    O     O_R   0.680360 0.618740 0.500010 -0.460807
O6    O     O_R   0.319620 0.381170 0.499990 -0.472860
O7    O     O_R   0.680380 0.381170 0.500010 -0.514173
O8    O     O_R   0.499990 0.618810 0.319660 -0.454143
O9    O     O_R   0.500010 0.618810 0.680340 -0.454128
O10   O     O_R   0.499960 0.381240 0.319650 -0.531346
O11   O     O_R   0.500040 0.381240 0.680350 -0.512887
O12   O     O_3   0.145686 0.340970 0.667880 -0.691356

loop_
_geom_bond_atom_site_label_1
_geom_bond_atom_site_label_2
_ccdc_geom_bond_type
C22   N2    A    
C23   N2    A    
C10   O2    S    
C11   C12   S    
Cu1   O5    S    
Cu1   Cu2   S    
H19   O4    S    
C19   H8    S    
Cu2   O6    S    
C2    C28   A    
C9    C10   A    
C14   C18   S    
C2    C4    A    
C8    C17   S    
C27   O11   A    
C3    C5    A    
C26   O10   A    
C20   H13   S    
C16   H24   S    
C13   C15   A    
C20   H11   S    
C10   C11   A    
C7    C8    S    
C14   C15   A    
C23   C25   A    
H4    O2    S    
C17   H26   S    
H18   O3    S    
C24   O3    S    
C19   H9    S    
H3    O12   S    
Cu2   N2    S    
C18   H5    S    
C7    C16   S    
C20   H14   S    
C18   H7    S    
Cu1   N1    S    
C15   C19   S    
C21   H15   S    
C25   O4    S    
C1    O1    A    
C21   C23   S    
C6    H12   S    
C5    C6    A    
C8    C28   S    
C11   C14   A    
C22   C24   A    
Cu2   O7    S    
C1    C13   S    
C19   H10   S    
Cu1   O8    S    
C26   O8    A    
C1    O6    A    
C16   H22   S    
C25   N1    A    
Cu2   O11   S    
C27   O9    A    
C9    O12   S    
C4    C6    A    
C21   H16   S    
C12   O7    A    
C8    H21   S    
C12   O5    A    
C17   H2    S    
C17   H25   S    
C16   H23   S    
C3    C28   A    
C9    C13   A    
C4    C27   S    
C2    C7    S    
C5    H1    S    
Cu1   O9    S    
C18   H6    S    
C3    C26   S    
Cu2   O10   S    
Cu1   O1    S    
C7    H20   S    
C20   C22   S    
C24   N1    A    
C21   H17   S    
