data_mof_unit_61340.cif
_audit_creation_date              2012-12-11T16:14:39-0500
_audit_creation_method            fapswitch 2.2
_symmetry_space_group_name_H-M    P1
_symmetry_Int_Tables_number       1
_space_group_crystal_system       triclinic
_cell_length_a                    13.557042
_cell_length_b                    13.562257
_cell_length_c                    28.450291
_cell_angle_alpha                 90.37572
_cell_angle_beta                  90.273317
_cell_angle_gamma                 60.165088
_cell_volume                      4537.58032003

loop_
_atom_site_label
_atom_site_type_symbol
_atom_type_description
_atom_site_fract_x
_atom_site_fract_y
_atom_site_fract_z
_atom_type_partial_charge
Br1   Br    Br    0.416292 0.345908 0.708000 -0.494561
C1    C     C_R   0.280005 0.620407 0.566624 0.553150
C2    C     C_1   0.644825 0.650928 0.653635 0.004024
C3    C     C_1   0.631560 0.233731 0.612314 0.036850
C4    C     C_R   0.621637 0.600858 0.566793 0.556120
C5    C     C_R   0.768807 0.121267 0.722674 -0.145139
C6    C     C_R   0.781215 0.106441 0.771331 -0.120363
C7    C     C_R   0.578816 0.233725 0.781346 -0.088795
C8    C     C_R   0.565816 0.248572 0.732701 0.186202
C9    C     C_R   0.661153 0.191384 0.703165 0.052240
C10   C     C_R   0.686190 0.162493 0.800689 0.000483
C11   C     C_1   0.696808 0.136521 0.849903 -0.054705
C12   C     C_1   0.637246 0.632574 0.612859 0.030233
C13   C     C_1   0.648981 0.208978 0.653231 0.011603
C14   C     C_1   0.706435 0.105852 0.890070 -0.007414
C15   C     C_1   0.232840 0.636097 0.612711 0.060866
C16   C     C_R   0.600532 0.279546 0.566032 0.552391
C17   C     C_R   0.131403 0.596641 0.724999 0.051757
C18   C     C_R   0.120688 0.602161 0.774181 -0.125241
C19   C     C_R   0.215169 0.713575 0.779425 -0.121290
C20   C     C_R   0.226488 0.709016 0.730688 -0.119735
C21   C     C_R   0.184469 0.651817 0.703155 0.073526
C22   C     C_R   0.162091 0.660438 0.801216 0.029595
C23   C     C_3   0.715526 0.725960 0.759810 -0.101365
C24   C     C_1   0.138393 0.676234 0.850671 -0.053714
C25   C     C_1   0.205779 0.644734 0.653393 0.061171
C26   C     C_1   0.108481 0.696109 0.891031 -0.011102
C27   C     C_1   0.635410 0.632337 0.388105 -0.007304
C28   C     C_R   0.276666 0.621016 0.434453 0.543304
C29   C     C_R   0.598815 0.620899 0.266977 -0.100680
C30   C     C_R   0.605481 0.631214 0.218443 -0.103521
C31   C     C_R   0.704776 0.736514 0.231620 -0.100977
C32   C     C_R   0.698269 0.726047 0.280147 -0.103451
C33   C     C_R   0.645838 0.667632 0.297841 0.042291
C34   C     C_3   0.663698 0.680881 0.796010 0.032624
C35   C     C_R   0.659010 0.688564 0.200741 0.042179
C36   C     C_1   0.672655 0.694730 0.151093 -0.054380
C37   C     C_1   0.642185 0.651817 0.347452 -0.053945
C38   C     C_1   0.691767 0.702605 0.110490 -0.008711
C39   C     C_1   0.633854 0.227303 0.388732 -0.004977
C40   C     C_R   0.620247 0.600333 0.434058 0.542955
C41   C     C_R   0.621377 0.276694 0.269411 -0.100656
C42   C     C_R   0.629528 0.261485 0.220876 -0.104102
C43   C     C_R   0.735046 0.056742 0.231996 -0.100883
C44   C     C_R   0.726711 0.071949 0.280535 -0.104058
C45   C     C_3   0.762267 0.612762 0.732201 -0.112370
C46   C     C_R   0.669159 0.181937 0.299071 0.042697
C47   C     C_R   0.685684 0.151468 0.202330 0.042628
C48   C     C_1   0.689660 0.133219 0.152975 -0.055038
C49   C     C_1   0.654085 0.200019 0.348386 -0.054343
C50   C     C_1   0.697390 0.105975 0.112568 -0.006434
C51   C     C_1   0.226031 0.637287 0.389474 -0.004351
C52   C     C_R   0.600450 0.277205 0.433862 0.540574
C53   C     C_R   0.069066 0.696673 0.281810 -0.103890
C54   C     C_R   0.053290 0.702317 0.233311 -0.100926
C55   C     C_R   0.258007 0.602384 0.221552 -0.103905
C56   C     C_3   0.650399 0.664234 0.704276 0.064417
C57   C     C_R   0.273780 0.596539 0.270035 -0.100671
C58   C     C_R   0.179333 0.644697 0.299998 0.042611
C59   C     C_R   0.147739 0.656129 0.203341 0.042652
C60   C     C_1   0.129156 0.671235 0.154068 -0.055159
C61   C     C_1   0.198098 0.643371 0.349237 -0.054135
C62   C     C_1   0.102301 0.692258 0.113749 -0.006855
C63   C     C_R   0.720645 0.055394 0.935346 0.543932
C64   C     C_3   0.603206 0.777247 0.731291 -0.110682
C65   C     C_R   0.730466 0.717684 0.932275 0.544543
C66   C     C_R   0.057705 0.729155 0.936518 0.543581
C67   C     C_3   0.710842 0.567709 0.769185 -0.119349
C68   C     C_R   0.714542 0.056300 0.067319 0.544851
C69   C     C_R   0.725517 0.717323 0.064805 0.543558
C70   C     C_R   0.053780 0.727506 0.068549 0.545045
C71   C     C_3   0.551328 0.732548 0.768430 -0.121434
C72   C     C_1   0.697049 0.701107 0.886666 -0.010779
C73   C     C_2   0.086764 0.532089 0.698673 0.248740
C74   C     C_2   0.533512 0.559516 0.731631 0.221955
C75   C     C_3   0.599193 0.619747 0.740756 0.038126
C76   C     C_1   0.677554 0.690742 0.846308 -0.051830
Cr1   Cr    Cr6+3 0.413560 0.417690 0.499580 1.070536
Cr2   Cr    Cr6+3 0.418030 0.668340 0.500400 1.046406
Cr3   Cr    Cr6+3 0.668390 0.413960 0.499990 1.050587
Cr4   Cr    Cr6+3 0.919710 0.916540 0.003080 1.036744
Cr5   Cr    Cr6+3 0.665300 0.919470 0.999630 1.038420
Cr6   Cr    Cr6+3 0.916060 0.665490 0.000390 1.037501
H1    H     H_    0.464814 0.780755 0.783814 0.103261
H2    H     H_    0.559678 0.863020 0.715207 0.124951
H3    H     H_    0.590914 0.334818 0.197995 0.103143
H4    H     H_    0.778297 0.971305 0.217564 0.100026
H5    H     H_    0.763383 0.998576 0.303412 0.103925
H6    H     H_    0.995924 0.734234 0.304918 0.104094
H7    H     H_    0.967662 0.744648 0.219148 0.099509
H8    H     H_    0.331136 0.567238 0.198442 0.103442
H9    H     H_    0.359395 0.556423 0.284174 0.099382
H10   H     H_    0.754202 0.481837 0.785204 0.112741
H11   H     H_    0.848438 0.564050 0.716679 0.119166
H12   H     H_    0.078122 0.562648 0.791499 0.096768
H13   H     H_    0.763993 0.769921 0.768389 0.118578
H14   H     H_    0.842863 0.077559 0.700289 0.117590
H15   H     H_    0.864412 0.049690 0.785983 0.124402
H16   H     H_    0.504892 0.275781 0.803912 0.139056
H17   H     H_    0.056408 0.483527 0.717868 0.093605
H18   H     H_    0.502244 0.532358 0.761005 0.119376
H19   H     H_    0.246269 0.759988 0.800022 0.109578
H20   H     H_    0.268676 0.750061 0.714368 0.126019
H21   H     H_    0.558290 0.575291 0.280450 0.098479
H22   H     H_    0.570429 0.593393 0.194862 0.103841
H23   H     H_    0.746878 0.780584 0.218140 0.098992
H24   H     H_    0.735100 0.762137 0.303711 0.104088
H25   H     H_    0.576389 0.362086 0.283834 0.098943
O1    O     O_R   0.503010 0.303330 0.550820 -0.485502
O2    O     O_R   0.827060 0.642880 0.947470 -0.506461
O3    O     O_R   0.013800 0.673690 0.954100 -0.494447
O4    O     O_R   0.320040 0.522690 0.547470 -0.471611
O5    O     O_R   0.031250 0.825430 0.055080 -0.504718
O6    O     O_R   0.814180 0.011990 0.050320 -0.494638
O7    O     O_R   0.640680 0.032900 0.051920 -0.505104
O8    O     O_R   0.671090 0.815590 0.046300 -0.493812
O9    O     O_R   0.822940 0.642440 0.050310 -0.504069
O10   O     O_R   0.009970 0.673280 0.049430 -0.494827
O11   O     O_3   0.833690 0.833830 0.001040 -0.255497
O12   O     O_R   0.522480 0.657560 0.452870 -0.495732
O13   O     O_R   0.303930 0.694040 0.551750 -0.513931
O14   O     O_R   0.523510 0.657900 0.548240 -0.492701
O15   O     O_R   0.694770 0.503160 0.551780 -0.497454
O16   O     O_R   0.657990 0.319990 0.547370 -0.496828
O17   O     O_R   0.501900 0.302960 0.447930 -0.506639
O18   O     O_R   0.319020 0.522350 0.452090 -0.496268
O19   O     O_R   0.302820 0.693680 0.448870 -0.506343
O20   O     O_2   0.082314 0.532348 0.655817 -0.493066
O21   O     O_2   0.514747 0.540783 0.691535 -0.481050
O22   O     O_R   0.693670 0.502790 0.448900 -0.503439
O23   O     O_R   0.656970 0.319650 0.452000 -0.497773
O24   O     O_3   0.499990 0.499990 0.499990 -0.260097
O25   O     O_R   0.035380 0.825870 0.952240 -0.506819
O26   O     O_R   0.818010 0.012400 0.954990 -0.495698
O27   O     O_R   0.644810 0.033340 0.949080 -0.504645
O28   O     O_R   0.674910 0.816000 0.950960 -0.494230

loop_
_geom_bond_atom_site_label_1
_geom_bond_atom_site_label_2
_ccdc_geom_bond_type
Cr3   O24   S    
C6    H15   S    
C32   H24   S    
C71   C75   S    
Cr4   O26   S    
C6    C10   A    
Cr2   O13   S    
C4    O15   A    
C1    O4    A    
C31   C35   A    
C56   C75   S    
C35   C36   S    
C66   O25   A    
C7    H16   S    
Cr5   O7    S    
C54   H7    S    
C23   H13   S    
Cr3   O16   S    
C29   C30   A    
C19   H19   S    
C69   O9    A    
C27   C40   S    
C70   O5    A    
C17   C18   A    
Cr6   O11   S    
Cr5   O27   S    
C60   C62   T    
Cr1   O24   S    
C55   H8    S    
C73   O20   D    
C7    C8    A    
C48   C50   T    
Cr4   O6    S    
C14   C63   S    
C11   C14   T    
C52   O23   A    
C43   H4    S    
C1    C15   S    
C8    C9    A    
C4    C12   S    
C2    C12   T    
C54   C59   A    
C63   O27   A    
C17   C73   S    
Cr3   O23   S    
C31   H23   S    
C20   C21   A    
C3    C13   T    
C30   H22   S    
Cr5   O11   S    
C46   C49   S    
C53   C58   A    
C44   C46   A    
C15   C25   T    
Cr2   O14   S    
C63   O26   A    
C68   O6    A    
C23   C34   S    
Cr3   O22   S    
C29   C33   A    
C5    H14   S    
C44   H5    S    
Br1   C8    S    
C53   H6    S    
C9    C13   S    
C73   H17   S    
C69   O8    A    
C57   C58   A    
C65   C72   S    
C4    O14   A    
C34   C76   S    
C55   C59   A    
C59   C60   S    
C33   C37   S    
C18   C22   A    
C74   C75   S    
C45   C67   S    
C16   O16   A    
C45   H11   S    
C19   C22   A    
C27   C37   T    
Cr2   O12   S    
C32   C33   A    
Cr6   O2    S    
C65   O2    A    
Cr4   O25   S    
C71   H1    S    
C52   O17   A    
C23   C64   S    
C65   O28   A    
C3    C16   S    
C2    C56   S    
C66   O3    A    
C47   C48   S    
C62   C70   S    
C34   C71   S    
C28   O19   A    
C45   C56   S    
Cr6   O3    S    
C24   C26   T    
C41   C42   A    
C29   H21   S    
Cr1   O18   S    
C18   H12   S    
C43   C44   A    
Cr6   O10   S    
C42   C47   A    
C1    O13   A    
Cr2   O19   S    
C53   C54   A    
C68   O7    A    
C58   C61   S    
C70   O10   A    
C17   C21   A    
C42   H3    S    
C56   C64   S    
C16   O1    A    
C5    C9    A    
C10   C11   S    
C64   H2    S    
C5    C6    A    
C67   C75   S    
C64   C71   S    
Cr4   O11   S    
C67   H10   S    
C23   C45   S    
C31   C32   A    
Cr6   O9    S    
Cr5   O8    S    
C36   C38   T    
C51   C61   T    
C40   O22   A    
C41   H25   S    
C34   C67   S    
C7    C10   A    
C39   C49   T    
Cr2   O24   S    
C38   C69   S    
C55   C57   A    
Cr1   O1    S    
C41   C46   A    
C22   C24   S    
C40   O12   A    
Cr5   O28   S    
C26   C66   S    
C20   H20   S    
C43   C47   A    
C19   C20   A    
C39   C52   S    
C21   C25   S    
Cr4   O5    S    
C74   H18   S    
C72   C76   T    
C30   C35   A    
Cr1   O4    S    
C50   C68   S    
C28   O18   A    
Cr1   O17   S    
C57   H9    S    
Cr3   O15   S    
C74   O21   D    
C28   C51   S    
