data_mof_unit_9978.cif
_audit_creation_date              2012-12-10T18:01:17-0500
_audit_creation_method            fapswitch 2.2
_symmetry_space_group_name_H-M    P1
_symmetry_Int_Tables_number       1
_space_group_crystal_system       triclinic
_cell_length_a                    9.492745
_cell_length_b                    10.892912
_cell_length_c                    17.239006
_cell_angle_alpha                 89.800206
_cell_angle_beta                  84.803924
_cell_angle_gamma                 90.190291
_cell_volume                      1775.22795709

loop_
_atom_site_label
_atom_site_type_symbol
_atom_type_description
_atom_site_fract_x
_atom_site_fract_y
_atom_site_fract_z
_atom_type_partial_charge
C1    C     C_R   0.501129 0.737766 0.494407 0.875084
C2    C     C_R   0.499355 0.261908 0.498990 0.886141
C3    C     C_R   0.627669 0.938681 0.467072 0.175120
C4    C     C_R   0.371222 0.060631 0.508545 0.164887
C5    C     C_R   0.622775 0.066449 0.464525 0.400278
C6    C     C_R   0.371229 0.935387 0.494181 0.378227
C7    C     C_R   0.497912 0.128187 0.492522 -0.351751
C8    C     C_R   0.501237 0.871665 0.485209 -0.351437
C9    C     C_R   0.918817 0.583599 0.543064 0.020187
C10   C     C_R   0.081314 0.417483 0.456131 0.030183
C11   C     C_R   0.067915 0.584511 0.542230 -0.028395
C12   C     C_R   0.932416 0.418019 0.455959 0.040576
C13   C     C_R   0.480089 0.497829 0.650637 0.822361
C14   C     C_R   0.519780 0.496215 0.349682 0.758765
C15   C     C_R   0.467986 0.486848 0.736224 -0.144428
C16   C     C_R   0.532767 0.474818 0.265429 -0.134734
C17   C     C_R   0.591187 0.499908 0.774907 -0.250497
C18   C     C_R   0.419956 0.417412 0.232364 -0.272699
C19   C     C_R   0.587971 0.480666 0.854680 -0.142307
C20   C     C_R   0.430966 0.388203 0.153747 -0.153243
C21   C     C_R   0.461828 0.444419 0.897362 0.114540
C22   C     C_R   0.555399 0.415637 0.106728 0.116614
C23   C     C_R   0.338490 0.432064 0.859581 -0.238720
C24   C     C_R   0.670588 0.467321 0.139915 -0.254678
C25   C     C_R   0.338746 0.456825 0.779987 0.464618
C26   C     C_R   0.658731 0.501803 0.218206 0.440707
C27   C     C_2   0.451958 0.428900 0.982397 -0.195604
C28   C     C_2   0.563687 0.402607 0.021734 -0.199688
Cu1   Cu    Cu3+1 0.359340 0.499980 0.500000 0.980910
Cu2   Cu    Cu3+1 0.640660 0.500020 0.500000 0.996298
H1    H     H_    0.691075 0.524803 0.743382 0.176651
H2    H     H_    0.323277 0.393508 0.267528 0.170767
H3    H     H_    0.666738 0.385723 0.991134 0.146171
H4    H     H_    0.349705 0.446913 0.013773 0.144348
H5    H     H_    0.240977 0.403232 0.892204 0.138667
H6    H     H_    0.767470 0.487859 0.103934 0.141191
H7    H     H_    0.342017 0.344370 0.129862 0.139779
H8    H     H_    0.684131 0.496027 0.882448 0.138176
H9    H     H_    0.857206 0.650244 0.577793 0.147984
H10   H     H_    0.142972 0.351396 0.420942 0.125465
H11   H     H_    0.119051 0.652715 0.575581 0.148878
H12   H     H_    0.881467 0.353290 0.420572 0.147962
N1    N     N_R   0.147930 0.499970 0.499980 -0.167215
N2    N     N_R   0.852070 0.500030 0.500020 -0.167899
O1    O     O_R   0.381260 0.680340 0.500000 -0.574111
O2    O     O_R   0.618740 0.319660 0.500000 -0.551566
O3    O     O_R   0.618830 0.680370 0.500010 -0.545799
O4    O     O_R   0.381170 0.319630 0.499990 -0.550972
O5    O     O_R   0.367440 0.500000 0.613600 -0.547165
O6    O     O_R   0.632560 0.500000 0.386400 -0.556267
O7    O     O_R   0.605010 0.500030 0.613600 -0.593757
O8    O     O_R   0.394990 0.499970 0.386400 -0.608529
O9    O     O_3   0.773345 0.557997 0.247693 -0.616671
C29   C     C_3   0.753138 0.686786 0.249887 0.105328
H13   H     H_    0.832487 0.725417 0.286622 0.206727
H14   H     H_    0.647124 0.712372 0.278284 0.119039
C30   C     C_3   0.777147 0.744986 0.168329 -0.408044
H15   H     H_    0.877558 0.710278 0.138176 0.231303
H16   H     H_    0.688705 0.719729 0.133425 0.215813
C31   C     C_3   0.784313 0.884548 0.172599 -0.899299
H17   H     H_    0.689282 0.921289 0.207116 0.256331
H18   H     H_    0.789478 0.923968 0.112921 0.260576
H19   H     H_    0.880818 0.912894 0.199575 0.265142
O10   O     O_3   0.214565 0.440164 0.745073 -0.580213
C32   C     C_3   0.138956 0.552117 0.745561 0.108730
H20   H     H_    0.071291 0.548104 0.696625 0.169596
H21   H     H_    0.209245 0.634047 0.735059 0.119398
C33   C     C_3   0.040774 0.567397 0.820618 -0.412149
H22   H     H_    0.973957 0.483864 0.830754 0.232715
H23   H     H_    0.104109 0.580176 0.871022 0.209916
C34   C     C_3   0.945382 0.679148 0.815532 -0.895593
H24   H     H_    0.010244 0.764200 0.808536 0.270060
H25   H     H_    0.873426 0.686414 0.869799 0.254412
H26   H     H_    0.880492 0.670654 0.765363 0.249758
Br1   Br    Br    0.808752 0.863768 0.437960 -0.550214
Br2   Br    Br    0.192595 0.129940 0.550011 -0.417618
O11   O     O_3   0.741587 0.129858 0.433719 -0.550328
C35   C     C_3   0.725970 0.160515 0.354888 0.072841
H27   H     H_    0.689898 0.257112 0.351850 0.156564
H28   H     H_    0.648069 0.101486 0.327118 0.106506
C36   C     C_3   0.868806 0.147245 0.307345 -0.325286
H29   H     H_    0.953108 0.194151 0.336832 0.217117
H30   H     H_    0.895216 0.048407 0.303356 0.246327
C37   C     C_3   0.865915 0.200368 0.225524 -0.936601
H31   H     H_    0.778129 0.159409 0.195756 0.266082
H32   H     H_    0.967495 0.180365 0.190842 0.253399
H33   H     H_    0.852274 0.301367 0.228608 0.283769
O12   O     O_3   0.241879 0.877056 0.490595 -0.551715
C38   C     C_3   0.223454 0.847228 0.411922 0.159040
H34   H     H_    0.134985 0.780131 0.412499 0.193010
H35   H     H_    0.317694 0.800793 0.382096 0.106793
C39   C     C_3   0.186155 0.960013 0.364276 -0.361095
H36   H     H_    0.089227 0.003800 0.392358 0.281498
H37   H     H_    0.273717 0.028187 0.361761 0.197746
C40   C     C_3   0.162487 0.923653 0.281027 -0.948918
H38   H     H_    0.259118 0.880189 0.252232 0.258482
H39   H     H_    0.138517 0.006552 0.247062 0.258864
H40   H     H_    0.072618 0.858145 0.281089 0.270789

loop_
_geom_bond_atom_site_label_1
_geom_bond_atom_site_label_2
_ccdc_geom_bond_type
Cu2   O7    S    
C1    C8    S    
C40   H38   S    
C37   H33   S    
C36   H29   S    
C40   H40   S    
Cu1   O5    S    
O11   C35   S    
C2    O2    A    
C24   H6    S    
C31   H19   S    
C31   H18   S    
C19   C21   A    
C24   C26   A    
C35   H28   S    
C30   H16   S    
C9    H9    S    
C6    O12   S    
C10   H10   S    
C12   H12   S    
C13   O7    A    
C14   O8    A    
C2    C7    S    
C33   H22   S    
C32   H21   S    
C11   N1    A    
C38   H35   S    
C3    Br1   S    
C18   C20   A    
Cu2   O6    S    
C22   C28   S    
Cu1   N1    S    
Cu2   N2    S    
C4    C7    A    
C36   H30   S    
C27   H4    S    
C16   C26   A    
C29   H14   S    
Cu1   O4    S    
Cu2   O3    S    
C37   H31   S    
C4    C6    A    
C3    C8    A    
C5    C7    A    
C35   H27   S    
C1    O3    A    
C30   C31   S    
C6    C8    A    
C2    O4    A    
O9    C29   S    
C39   C40   S    
Cu1   O1    S    
C31   H17   S    
C25   O10   S    
Cu1   Cu2   S    
C19   H8    S    
C32   C33   S    
C39   H37   S    
C38   C39   S    
C9    C11   A    
C10   C12   A    
C13   O5    A    
C16   C18   A    
C20   C22   A    
C28   H3    S    
C23   H5    S    
C13   C15   S    
C17   H1    S    
C22   C24   A    
C18   H2    S    
C5    O11   S    
C26   O9    S    
C36   C37   S    
C34   H25   S    
C15   C17   A    
C29   H13   S    
C9    N2    A    
C10   N1    A    
Cu2   O2    S    
C37   H32   S    
C3    C5    A    
C34   H26   S    
C40   H39   S    
O10   C32   S    
C21   C23   A    
C34   H24   S    
C12   N2    A    
C20   H7    S    
C35   C36   S    
C1    O1    A    
C30   H15   S    
C14   O6    A    
C33   C34   S    
C39   H36   S    
C17   C19   A    
C11   H11   S    
C14   C16   S    
C23   C25   A    
C21   C27   S    
C4    Br2   S    
C15   C25   A    
O12   C38   S    
C33   H23   S    
C32   H20   S    
C27   C28   D    
C38   H34   S    
Cu1   O8    S    
C29   C30   S    
