data_mof_unit_18044.cif
_audit_creation_date              2013-03-05T15:42:03-0500
_audit_creation_method            fapswitch 2.2
_symmetry_space_group_name_H-M    P1
_symmetry_Int_Tables_number       1
_space_group_crystal_system       triclinic
_cell_length_a                    27.72374
_cell_length_b                    8.654941
_cell_length_c                    7.417812
_cell_angle_alpha                 103.173274
_cell_angle_beta                  93.94859
_cell_angle_gamma                 92.089577
_cell_volume                      1726.43935119

loop_
_atom_site_label
_atom_site_type_symbol
_atom_site_description
_atom_site_fract_x
_atom_site_fract_y
_atom_site_fract_z
_atom_type_partial_charge
O1    O     O_R   0.503500 0.286120 0.619780 -0.583422
O2    O     O_R   0.496500 0.713880 0.380220 -0.583080
O3    O     O_R   0.494410 0.256780 0.308360 -0.587268
O4    O     O_R   0.505590 0.743220 0.691640 -0.583825
C1    C     C_R   0.498654 0.199509 0.452982 0.888137
C2    C     C_R   0.501508 0.800493 0.546985 0.883742
O5    O     O_R   0.434810 0.514700 0.655690 -0.591396
O6    O     O_R   0.565190 0.485300 0.344310 -0.591357
O7    O     O_R   0.425720 0.485350 0.344280 -0.582723
O8    O     O_R   0.574280 0.514650 0.655720 -0.578810
C3    C     C_R   0.407184 0.499572 0.502830 0.816817
C4    C     C_R   0.592471 0.500607 0.497132 0.819552
Cu1   Cu    Cu3+1 0.505380 0.517380 0.684380 0.945527
Cu2   Cu    Cu3+1 0.494620 0.482620 0.315620 0.938318
C5    C     C_R   0.177332 0.347856 0.539114 0.576830
C6    C     C_R   0.824106 0.607650 0.626081 0.548569
O9    O     O_2   0.200201 0.212979 0.477786 -0.541108
O10   O     O_2   0.801069 0.737825 0.704977 -0.555017
N1    N     N_R   0.203233 0.490152 0.589719 -0.452480
N2    N     N_R   0.797996 0.475853 0.525078 -0.448692
C7    C     C_R   0.181821 0.628305 0.661587 0.524817
C8    C     C_R   0.819851 0.340397 0.446731 0.545194
C9    C     C_R   0.287522 0.522468 0.715369 -0.167190
C10   C     C_R   0.719004 0.395793 0.609079 -0.193588
C11   C     C_R   0.336685 0.525340 0.692224 -0.267305
C12   C     C_R   0.669061 0.403809 0.602792 -0.266231
C13   C     C_R   0.319659 0.469185 0.355837 0.159893
C14   C     C_R   0.672306 0.576494 0.385400 0.150122
C15   C     C_R   0.269575 0.469978 0.381190 0.280199
C16   C     C_R   0.723122 0.567931 0.392559 0.282662
C17   C     C_R   0.253909 0.495050 0.561773 0.291142
C18   C     C_R   0.746209 0.478242 0.506318 0.294980
C19   C     C_R   0.103511 0.483042 0.612991 -0.093804
C20   C     C_R   0.898436 0.471204 0.567496 -0.092502
C21   C     C_R   0.127099 0.341684 0.547913 -0.003116
C22   C     C_R   0.874646 0.608219 0.648386 -0.008171
C23   C     C_R   0.100139 0.197216 0.490558 -0.186108
C24   C     C_R   0.901614 0.742921 0.750730 -0.187598
C25   C     C_R   0.131259 0.628219 0.677199 -0.070807
C26   C     C_R   0.870790 0.333906 0.467072 -0.063743
C27   C     C_R   0.353862 0.498681 0.514136 -0.132634
C28   C     C_R   0.645187 0.493108 0.491823 -0.110705
H1    H     H_    0.117657 0.086427 0.446989 0.182852
H2    H     H_    0.884014 0.848059 0.817952 0.178714
C29   C     C_R   0.973639 0.333202 0.510916 0.001323
C30   C     C_R   0.028457 0.619794 0.680217 0.001584
C31   C     C_R   0.977091 0.614255 0.678889 0.073562
C32   C     C_R   0.024897 0.333415 0.534957 0.076972
C33   C     C_R   0.949862 0.472611 0.586304 0.065929
C34   C     C_R   0.052155 0.478761 0.610506 0.068548
C35   C     C_R   0.945441 0.198791 0.408548 -0.277890
C36   C     C_R   0.056922 0.762894 0.745564 -0.283712
C37   C     C_R   0.894995 0.196921 0.387621 0.264147
C38   C     C_R   0.107366 0.768382 0.747174 0.265385
O11   O     O_2   0.792140 0.213900 0.348227 -0.509365
O12   O     O_2   0.209393 0.765143 0.711720 -0.501153
C39   C     C_R   0.050037 0.192712 0.484902 -0.227085
C40   C     C_R   0.951779 0.746214 0.766025 -0.219131
H3    H     H_    0.648876 0.339654 0.685235 0.174000
H4    H     H_    0.361394 0.547986 0.815937 0.182964
H5    H     H_    0.736863 0.327222 0.696733 0.164837
H6    H     H_    0.275401 0.540939 0.853794 0.173732
H7    H     H_    0.961627 0.092812 0.337772 0.139960
H8    H     H_    0.041026 0.875181 0.793176 0.140887
H9    H     H_    0.032012 0.076239 0.442857 0.139741
H10   H     H_    0.969607 0.853754 0.850268 0.137308
C41   C     C_2   0.498134 0.031477 0.426429 -0.376173
C42   C     C_2   0.502348 0.968539 0.573468 -0.375215
H11   H     H_    0.494197 0.959326 0.284973 0.179287
H12   H     H_    0.506333 0.040689 0.714917 0.180145
N3    N     N_2   0.486510 0.456430 0.038510 -0.219786
N4    N     N_2   0.513490 0.543570 0.961490 -0.218920
H13   H     H_    0.462419 0.377426 0.948117 0.224821
H14   H     H_    0.537287 0.623433 0.052055 0.223022
N5    N     N_2   0.334199 0.443710 0.171470 -0.447887
H15   H     H_    0.358860 0.527551 0.148294 0.270477
C43   C     C_3   0.343416 0.280877 0.085761 -0.648777
H16   H     H_    0.375000 0.240554 0.159639 0.234800
H17   H     H_    0.351109 0.271822 0.938908 0.225247
H18   H     H_    0.311291 0.200971 0.087904 0.238455
N6    N     N_2   0.649594 0.670125 0.272597 -0.437847
H19   H     H_    0.622136 0.610979 0.179128 0.268961
C44   C     C_3   0.637705 0.826493 0.371692 -0.662249
H20   H     H_    0.609447 0.817384 0.468381 0.211870
H21   H     H_    0.623687 0.894432 0.270900 0.229399
H22   H     H_    0.670461 0.892534 0.451355 0.245059
N7    N     N_2   0.234579 0.445050 0.225662 -0.419702
H23   H     H_    0.243991 0.367088 0.107974 0.279983
C45   C     C_3   0.216176 0.588982 0.185909 -0.676942
H24   H     H_    0.188984 0.557994 0.064411 0.219218
H25   H     H_    0.246093 0.664664 0.153450 0.234443
H26   H     H_    0.198245 0.657127 0.305782 0.253129
N8    N     N_2   0.751419 0.650300 0.287485 -0.421957
H27   H     H_    0.739414 0.760101 0.279671 0.297277
C46   C     C_3   0.761316 0.555522 0.107983 -0.661410
H28   H     H_    0.785378 0.625687 0.039217 0.250002
H29   H     H_    0.727010 0.520839 0.018784 0.238256
H30   H     H_    0.779855 0.447158 0.123326 0.244814
N9    N     N_2   0.869292 0.055914 0.283305 -0.379035
H31   H     H_    0.884249 0.007354 0.160825 0.238342
C47   C     C_3   0.860479 0.938464 0.389815 -0.562872
H32   H     H_    0.838356 0.836014 0.301746 0.242527
H33   H     H_    0.840423 0.989683 0.512295 0.258010
H34   H     H_    0.895303 0.895059 0.436901 0.197400
N10   N     N_2   0.133381 0.917270 0.818285 -0.375976
H35   H     H_    0.116856 0.011451 0.780834 0.247012
C48   C     C_3   0.146879 0.950290 0.015738 -0.561766
H36   H     H_    0.113984 0.960569 0.094391 0.190187
H37   H     H_    0.168989 0.064107 0.058608 0.247232
H38   H     H_    0.168762 0.854486 0.050269 0.239207

loop_
_geom_bond_atom_site_label_1
_geom_bond_atom_site_label_2
_geom_bond_distance
_ccdc_geom_bond_type
N7    H23   1.030148 S    
N8    H27   1.030905 S    
C13   C15   1.414024 A    
Cu2   N3    2.011836 S    
C46   H28   1.110178 S    
C1    C41   1.421806 S    
N1    C17   1.434719 S    
N6    H19   1.029255 S    
C46   H30   1.110175 S    
C32   C39   1.413528 A    
C31   C33   1.421882 A    
C43   H16   1.110044 S    
C37   N9    1.423429 S    
C5    N1    1.364162 A    
N10   C48   1.446680 S    
C10   H5    1.083106 S    
O1    C1    1.287577 A    
C21   C23   1.395940 A    
C10   C12   1.386955 A    
C16   N8    1.424028 S    
C29   C32   1.419864 A    
C25   C38   1.413779 A    
C29   C35   1.410801 A    
C30   C36   1.412110 A    
C14   C28   1.418140 A    
O4    Cu1   1.942850 S    
C4    C28   1.468127 S    
C24   C40   1.386289 A    
C40   H10   1.076990 S    
C9    H6    1.081414 S    
C44   H20   1.110413 S    
C48   H36   1.111558 S    
C11   H4    1.082335 S    
C45   H25   1.111179 S    
C12   H3    1.083844 S    
C6    N2    1.364573 A    
C2    C42   1.421673 S    
C47   H33   1.111347 S    
Cu1   Cu2   2.677285 S    
C48   H37   1.110665 S    
O2    C2    1.287466 A    
C13   N5    1.423523 S    
C5    C21   1.398317 A    
N6    C44   1.446725 S    
C36   C38   1.396731 A    
C43   H17   1.110207 S    
C41   C42   1.325857 D    
C47   H32   1.109199 S    
C35   H7    1.077646 S    
N4    H14   1.028780 S    
C36   H8    1.076853 S    
C11   C27   1.407421 A    
N3    H13   1.029211 S    
O7    Cu2   1.936858 S    
C19   C34   1.421653 A    
C41   H11   1.087883 S    
C9    C17   1.391836 A    
C23   H1    1.083552 S    
O5    C3    1.301865 A    
N5    H15   1.029757 S    
C10   C18   1.395343 A    
C24   H2    1.083431 S    
N5    C43   1.447723 S    
C13   C27   1.426717 A    
N9    H31   1.031780 S    
C7    C25   1.414439 A    
C29   C33   1.415732 A    
O6    C4    1.296466 A    
C8    C26   1.414408 A    
C19   C25   1.415520 A    
C45   H26   1.108544 S    
O7    C3    1.297802 A    
O3    Cu2   1.942850 S    
O8    C4    1.293825 A    
O4    C2    1.280507 A    
C44   H21   1.110316 S    
N2    C8    1.367139 A    
C47   H34   1.111312 S    
N7    C45   1.446426 S    
C48   H38   1.110529 S    
C20   C26   1.416315 A    
O1    Cu1   1.946870 S    
C12   C28   1.401870 A    
N2    C18   1.434244 S    
C43   H18   1.110753 S    
C5    O9    1.350290 S    
C30   C31   1.422398 A    
C20   C33   1.422275 A    
O6    Cu2   1.952096 S    
C38   N10   1.424415 S    
N9    C47   1.446289 S    
C14   N6    1.423741 S    
C39   H9    1.077815 S    
O3    C1    1.280479 A    
O8    Cu1   1.936860 S    
C7    O12   1.348823 S    
C46   H29   1.111070 S    
C8    O11   1.348882 S    
Cu1   N4    2.011835 S    
N10   H35   1.031704 S    
C30   C34   1.416538 A    
C22   C24   1.396197 A    
C14   C16   1.411448 A    
C15   C17   1.408738 A    
C6    C22   1.399229 A    
C31   C40   1.413888 A    
C16   C18   1.408794 A    
N8    C46   1.445679 S    
C32   C34   1.420779 A    
C19   C21   1.410707 A    
C3    C27   1.486265 S    
C20   C22   1.410148 A    
C9    C11   1.385471 A    
O2    Cu2   1.946870 S    
C15   N7    1.426871 S    
O5    Cu1   1.952096 S    
C44   H22   1.111233 S    
N3    N4    1.291822 D    
C6    O10   1.350249 S    
C26   C37   1.413264 A    
C42   H12   1.087858 S    
C35   C37   1.395552 A    
C45   H24   1.110864 S    
C23   C39   1.385615 A    
N1    C7    1.367884 A    
