data_mof_unit_32680.cif
_audit_creation_date              2012-12-10T18:10:23-0500
_audit_creation_method            fapswitch 2.2
_symmetry_space_group_name_H-M    P1
_symmetry_Int_Tables_number       1
_space_group_crystal_system       triclinic
_cell_length_a                    10.744588
_cell_length_b                    9.411916
_cell_length_c                    15.872215
_cell_angle_alpha                 90.14573
_cell_angle_beta                  89.96378
_cell_angle_gamma                 89.725695
_cell_volume                      1605.08810134

loop_
_atom_site_label
_atom_site_type_symbol
_atom_type_description
_atom_site_fract_x
_atom_site_fract_y
_atom_site_fract_z
_atom_type_partial_charge
C1    C     C_R   0.260050 0.500499 0.503094 0.863636
C2    C     C_3   0.607611 0.606812 0.952563 0.033482
C3    C     C_3   0.602394 0.606531 0.051207 -0.435735
C4    C     C_1   0.501649 0.502285 0.824940 -0.103642
C5    C     C_1   0.500428 0.500303 0.175198 -0.110459
C6    C     C_1   0.499975 0.499663 0.250703 -0.210045
C7    C     C_3   0.067510 0.655043 0.520653 0.313932
C8    C     C_3   0.071908 0.387215 0.567188 0.293452
C9    C     C_3   0.925031 0.650540 0.528266 -0.472868
C10   C     C_3   0.927818 0.395715 0.569130 -0.556264
C11   C     C_3   0.076505 0.455311 0.414768 -0.647622
C12   C     C_3   0.122534 0.500968 0.504196 -0.069721
C13   C     C_3   0.878137 0.500250 0.500696 -0.046608
C14   C     C_R   0.499850 0.499848 0.340266 0.844386
C15   C     C_3   0.930492 0.465753 0.409216 0.869359
C16   C     C_3   0.593986 0.083521 0.561211 -0.186904
C17   C     C_3   0.594783 0.915857 0.560658 -0.194887
C18   C     C_3   0.377865 0.084468 0.527820 -0.199562
C19   C     C_3   0.377976 0.917091 0.527886 -0.161919
C20   C     C_3   0.528149 0.083038 0.417183 -0.186539
C21   C     C_3   0.528688 0.915899 0.417237 -0.194769
C22   C     C_R   0.740096 0.499856 0.500421 0.867781
C23   C     C_R   0.499668 0.500204 0.659840 0.837762
C24   C     C_3   0.373474 0.550660 0.048987 -0.372523
C25   C     C_3   0.531175 0.351727 0.048366 -0.379649
C26   C     C_3   0.527151 0.351597 0.950888 -0.384794
C27   C     C_3   0.374819 0.553334 0.951485 -0.409934
C28   C     C_1   0.500477 0.500958 0.749421 -0.186829
C29   C     C_3   0.501757 0.502128 0.083111 0.298047
C30   C     C_3   0.503925 0.504562 0.917397 0.242533
Cu1   Cu    Cu3+1 0.499860 0.642410 0.500040 0.910887
Cu2   Cu    Cu3+1 0.499860 0.357590 0.500040 0.909231
H1    H     H_    0.300344 0.482557 0.927060 0.172768
H2    H     H_    0.451562 0.279858 0.929032 0.180972
H3    H     H_    0.885062 0.735802 0.488011 0.192308
H4    H     H_    0.888163 0.287853 0.562022 0.141326
H5    H     H_    0.119354 0.527515 0.367723 0.170246
H6    H     H_    0.114202 0.349728 0.396743 0.159645
H7    H     H_    0.574786 0.121669 0.626299 0.151660
H8    H     H_    0.577612 0.876719 0.625629 0.154357
H9    H     H_    0.688267 0.122281 0.545139 0.127728
H10   H     H_    0.689279 0.877891 0.542778 0.140720
H11   H     H_    0.353039 0.124588 0.591583 0.141175
H12   H     H_    0.353283 0.877816 0.591711 0.168236
H13   H     H_    0.457336 0.120287 0.371059 0.144321
H14   H     H_    0.458645 0.878446 0.370761 0.144984
H15   H     H_    0.619263 0.122675 0.394392 0.152191
H16   H     H_    0.620809 0.875946 0.395218 0.148357
H17   H     H_    0.303612 0.121693 0.484268 0.140004
H18   H     H_    0.303966 0.880159 0.484221 0.166879
H19   H     H_    0.299575 0.477101 0.071141 0.166433
H20   H     H_    0.462509 0.273911 0.072948 0.166799
H21   H     H_    0.625014 0.316900 0.069975 0.167550
H22   H     H_    0.350105 0.658462 0.073492 0.166915
H23   H     H_    0.615823 0.307385 0.925552 0.181564
H24   H     H_    0.352666 0.662471 0.929349 0.176497
H25   H     H_    0.581416 0.714640 0.076527 0.158599
H26   H     H_    0.693839 0.576122 0.078832 0.157369
H27   H     H_    0.084446 0.712962 0.460644 0.143385
H28   H     H_    0.100888 0.281067 0.542713 0.082758
H29   H     H_    0.891634 0.676416 0.592673 0.164965
H30   H     H_    0.895991 0.432774 0.632280 0.195810
N1    N     N_3   0.500250 0.143650 0.501830 -0.116923
N2    N     N_3   0.500250 0.856350 0.501830 -0.126622
O1    O     O_R   0.317570 0.620260 0.500050 -0.578008
O2    O     O_R   0.317570 0.379740 0.500050 -0.602851
O3    O     O_R   0.499890 0.620310 0.379470 -0.592687
O4    O     O_R   0.499890 0.379690 0.379470 -0.583742
O5    O     O_R   0.682190 0.620260 0.500020 -0.597114
O6    O     O_R   0.682190 0.379740 0.500020 -0.586675
O7    O     O_R   0.499870 0.620210 0.620600 -0.587937
O8    O     O_R   0.499870 0.379790 0.620600 -0.584903
O9    O     O_3   0.903036 0.589078 0.359214 -0.661307
C31   C     C_3   0.872365 0.563948 0.273308 0.119490
H31   H     H_    0.837835 0.666305 0.247360 0.141440
H32   H     H_    0.793249 0.489167 0.266117 0.175387
C32   C     C_3   0.985590 0.517489 0.220716 -0.388869
H33   H     H_    0.060968 0.597072 0.227832 0.210317
H34   H     H_    0.020488 0.412826 0.242709 0.231176
C33   C     C_3   0.952817 0.504384 0.127528 -0.908774
H35   H     H_    0.878255 0.424427 0.118448 0.255472
H36   H     H_    0.036308 0.469643 0.091547 0.257993
H37   H     H_    0.921396 0.608622 0.102469 0.256768
O10   O     O_3   0.870812 0.344143 0.372113 -0.641995
C34   C     C_3   0.904455 0.207121 0.400876 0.011697
H38   H     H_    0.824116 0.162172 0.435019 0.162005
H39   H     H_    0.983974 0.202498 0.444001 0.117051
C35   C     C_3   0.932750 0.112573 0.324774 -0.353842
H40   H     H_    0.853335 0.116733 0.279950 0.226056
H41   H     H_    0.017057 0.152658 0.292131 0.208804
C36   C     C_3   0.954726 0.958639 0.351005 -0.919153
H42   H     H_    0.032682 0.951859 0.396780 0.248592
H43   H     H_    0.978766 0.893662 0.294771 0.263138
H44   H     H_    0.869043 0.914804 0.379940 0.255418
C37   C     C_1   0.589367 0.753384 0.921175 0.198043
N3    N     N_1   0.574952 0.867979 0.896605 -0.313516
C38   C     C_1   0.732723 0.560917 0.924022 0.199237
N4    N     N_1   0.830528 0.524872 0.901740 -0.319849
O11   O     O_3   0.126833 0.744913 0.580842 -0.639492
C39   C     C_3   0.121650 0.698562 0.665188 0.143268
H45   H     H_    0.208252 0.638173 0.679268 0.191363
H46   H     H_    0.038923 0.633208 0.679605 0.185439
C40   C     C_3   0.117703 0.827781 0.723494 -0.410915
H47   H     H_    0.203255 0.891897 0.714504 0.213233
H48   H     H_    0.035732 0.895127 0.707692 0.222604
C41   C     C_3   0.108808 0.781959 0.815505 -0.909617
H49   H     H_    0.020783 0.723467 0.826588 0.272781
H50   H     H_    0.110172 0.876575 0.857256 0.263526
H51   H     H_    0.188649 0.712178 0.831895 0.249619
O12   O     O_3   0.123924 0.406289 0.648260 -0.642997
C42   C     C_3   0.116403 0.281865 0.697477 0.043802
H52   H     H_    0.174378 0.195808 0.669349 0.133282
H53   H     H_    0.018472 0.244949 0.703050 0.147217
C43   C     C_3   0.165796 0.316130 0.785413 -0.328277
H54   H     H_    0.262371 0.356721 0.780188 0.221453
H55   H     H_    0.107023 0.400557 0.814522 0.228515
C44   C     C_3   0.165997 0.185754 0.842131 -0.934506
H56   H     H_    0.070356 0.142599 0.847989 0.264352
H57   H     H_    0.199833 0.215691 0.905812 0.251926
H58   H     H_    0.228970 0.102802 0.815949 0.260371

loop_
_geom_bond_atom_site_label_1
_geom_bond_atom_site_label_2
_ccdc_geom_bond_type
O9    C31   S    
C37   N3    T    
C24   C27   S    
C26   H23   S    
C43   H54   S    
Cu2   O8    S    
C32   H33   S    
C27   H1    S    
Cu1   O3    S    
C7    O11   S    
C9    H29   S    
C2    C37   S    
C25   H21   S    
C44   H57   S    
C17   N2    S    
C5    C6    T    
C18   N1    S    
C32   C33   S    
C36   H43   S    
C41   H49   S    
C24   H22   S    
C11   H5    S    
C18   C19   S    
C3    C29   S    
C9    C13   S    
C24   C29   S    
C21   N2    S    
O12   C42   S    
C11   C15   S    
C26   H2    S    
C42   H53   S    
Cu1   Cu2   S    
C2    C38   S    
C16   C17   S    
C31   C32   S    
C1    O1    A    
C14   O3    A    
C16   N1    S    
C42   C43   S    
C22   O5    A    
C20   H13   S    
Cu2   O4    S    
C21   H16   S    
C24   H19   S    
Cu1   O7    S    
C27   C30   S    
C10   H30   S    
C1    C12   S    
C33   H37   S    
C23   O8    A    
C7    H27   S    
C4    C28   T    
C38   N4    T    
C5    C29   S    
C32   H34   S    
C25   C29   S    
C7    C12   S    
C31   H31   S    
C34   H39   S    
C20   H15   S    
C23   O7    A    
O10   C34   S    
C33   H36   S    
C44   H58   S    
C36   H42   S    
C27   H24   S    
Cu2   O6    S    
C25   C26   S    
C34   H38   S    
C39   C40   S    
C17   H8    S    
C11   H6    S    
C8    O12   S    
C6    C14   S    
O11   C39   S    
C35   C36   S    
C19   N2    S    
C8    C12   S    
C39   H46   S    
C1    O2    A    
C40   H48   S    
C23   C28   S    
C35   H40   S    
C31   H32   S    
C3    H25   S    
C15   O9    S    
C35   H41   S    
C26   C30   S    
C13   C15   S    
C17   H10   S    
C19   H12   S    
Cu2   O2    S    
C21   H14   S    
C34   C35   S    
Cu1   O1    S    
C42   H52   S    
Cu1   N2    S    
Cu2   N1    S    
C33   H35   S    
C10   C13   S    
C43   H55   S    
C11   C12   S    
C15   O10   S    
C2    C30   S    
C20   N1    S    
C2    C3    S    
C25   H20   S    
C18   H11   S    
C8    H28   S    
C36   H44   S    
C19   H18   S    
C41   H50   S    
C39   H45   S    
C13   C22   S    
C40   C41   S    
C43   C44   S    
C16   H7    S    
C3    H26   S    
C7    C9    S    
Cu1   O5    S    
C20   C21   S    
C8    C10   S    
C40   H47   S    
C9    H3    S    
C14   O4    A    
C10   H4    S    
C44   H56   S    
C16   H9    S    
C22   O6    A    
C4    C30   S    
C18   H17   S    
C41   H51   S    
