data_mof_unit_33432.cif
_audit_creation_date              2012-12-10T20:28:44-0500
_audit_creation_method            fapswitch 2.2
_symmetry_space_group_name_H-M    P1
_symmetry_Int_Tables_number       1
_space_group_crystal_system       triclinic
_cell_length_a                    10.622281
_cell_length_b                    10.683416
_cell_length_c                    9.878622
_cell_angle_alpha                 89.680791
_cell_angle_beta                  89.899804
_cell_angle_gamma                 90.060086
_cell_volume                      1121.02847972

loop_
_atom_site_label
_atom_site_type_symbol
_atom_type_description
_atom_site_fract_x
_atom_site_fract_y
_atom_site_fract_z
_atom_type_partial_charge
C1    C     C_R   0.505718 0.260466 0.500255 0.878375
C2    C     C_R   0.557109 0.934080 0.389178 -0.207985
C3    C     C_R   0.497574 0.871386 0.496177 -0.186703
C4    C     C_R   0.260556 0.503469 0.500118 0.872709
C5    C     C_R   0.433908 0.937002 0.595898 0.093787
C6    C     C_3   0.442522 0.927198 0.746511 -0.438584
C7    C     C_3   0.447433 0.068914 0.747799 -0.438201
C8    C     C_R   0.430337 0.413981 0.072060 0.229873
C9    C     C_R   0.577499 0.577050 0.071289 -0.128626
C10   C     C_R   0.577684 0.576894 0.927385 -0.101345
C11   C     C_R   0.429101 0.415090 0.929579 0.127570
C12   C     C_R   0.065984 0.612468 0.563284 0.088817
C13   C     C_3   0.289069 0.400275 0.926197 0.122618
C14   C     C_3   0.291283 0.396977 0.080307 0.122798
C15   C     C_R   0.499869 0.739618 0.499469 0.868595
C16   C     C_R   0.739466 0.503626 0.499855 0.843062
C17   C     C_R   0.131222 0.713682 0.622946 -0.132779
C18   C     C_R   0.065477 0.812193 0.682226 -0.124226
C19   C     C_R   0.934467 0.812347 0.681872 -0.140365
C20   C     C_R   0.868749 0.714021 0.622201 -0.195178
C21   C     C_R   0.934036 0.612634 0.562922 0.092082
C22   C     C_R   0.128339 0.511961 0.499983 -0.096526
C23   C     C_R   0.064340 0.416976 0.433375 -0.220859
C24   C     C_R   0.935788 0.417149 0.432989 -0.215237
C25   C     C_R   0.871712 0.512270 0.499329 -0.082682
C26   C     C_R   0.438615 0.064739 0.596650 0.080638
C27   C     C_R   0.509783 0.128267 0.499620 -0.225611
C28   C     C_R   0.568183 0.062756 0.392213 0.446629
H1    H     H_    0.531495 0.882792 0.781491 0.208257
H2    H     H_    0.883549 0.889496 0.726719 0.138808
H3    H     H_    0.767127 0.719459 0.621246 0.142794
H4    H     H_    0.885929 0.341517 0.383486 0.149834
H5    H     H_    0.604444 0.882852 0.309452 0.181439
H6    H     H_    0.355130 0.888344 0.792441 0.206282
H7    H     H_    0.114263 0.341220 0.384196 0.173370
H8    H     H_    0.138214 0.488593 0.875564 0.334164
H9    H     H_    0.167710 0.273747 0.131536 0.327452
H10   H     H_    0.682415 0.194217 0.333986 0.326382
H11   H     H_    0.362713 0.111965 0.794428 0.200518
H12   H     H_    0.538971 0.106683 0.783958 0.212989
H13   H     H_    0.638139 0.641193 0.125012 0.152335
H14   H     H_    0.638584 0.640804 0.872639 0.138892
H15   H     H_    0.258098 0.312218 0.876353 0.120057
H16   H     H_    0.241481 0.475515 0.131205 0.155007
H17   H     H_    0.232839 0.718740 0.622722 0.153143
H18   H     H_    0.116312 0.889272 0.727309 0.135797
N1    N     N_R   0.499160 0.499140 0.142800 -0.131749
N2    N     N_R   0.499160 0.499180 0.857150 -0.082517
O1    O     O_R   0.500020 0.316790 0.614690 -0.623293
O2    O     O_3   0.260988 0.278594 0.132576 -0.756277
O3    O     O_3   0.642468 0.119043 0.294504 -0.750324
O4    O     O_R   0.500000 0.316760 0.385350 -0.571142
O5    O     O_R   0.316770 0.500020 0.614690 -0.565940
O6    O     O_R   0.316760 0.499980 0.385350 -0.617255
O7    O     O_R   0.500000 0.683240 0.614650 -0.627861
O8    O     O_R   0.499980 0.683210 0.385310 -0.622802
O9    O     O_R   0.683240 0.500020 0.614650 -0.627477
O10   O     O_R   0.683230 0.499980 0.385310 -0.623308
O11   O     O_3   0.229480 0.508314 0.877087 -0.738403
Zn1   Zn    Zn3+2 0.500010 0.500020 0.653130 0.970710
Zn2   Zn    Zn3+2 0.499990 0.499980 0.346870 0.977469

loop_
_geom_bond_atom_site_label_1
_geom_bond_atom_site_label_2
_ccdc_geom_bond_type
C12   C17   A    
N1    Zn2   S    
C2    C28   A    
C23   C24   A    
C24   H4    S    
C9    N1    A    
C6    C7    S    
C13   O11   S    
O6    Zn2   S    
C13   C14   S    
C4    O5    A    
C10   H14   S    
C4    C22   S    
C9    C10   A    
C9    H13   S    
C19   C20   A    
C17   C18   A    
C7    H11   S    
C7    H12   S    
H8    O11   S    
C15   O8    A    
C3    C5    A    
O10   Zn2   S    
C2    C3    A    
C26   C27   A    
C8    N1    A    
C16   O10   A    
O7    Zn1   S    
C24   C25   A    
H9    O2    S    
C11   C13   S    
C11   N2    A    
C14   O2    S    
O1    Zn1   S    
C7    C26   S    
C8    C11   A    
C18   H18   S    
C2    H5    S    
C1    O4    A    
O5    Zn1   S    
C17   H17   S    
N2    Zn1   S    
C23   H7    S    
O4    Zn2   S    
C10   N2    A    
C5    C6    S    
C28   O3    S    
C5    C26   A    
C12   C22   A    
C16   O9    A    
C13   H15   S    
C6    H1    S    
C3    C15   S    
C20   C21   A    
C14   H16   S    
C18   C19   A    
C16   C25   S    
C1    C27   S    
C21   C25   A    
O8    Zn2   S    
O9    Zn1   S    
C8    C14   S    
H10   O3    S    
C4    O6    A    
C22   C23   A    
C19   H2    S    
C1    O1    A    
C12   C21   A    
C6    H6    S    
C27   C28   A    
C20   H3    S    
C15   O7    A    
