data_mof_unit_50814.cif
_audit_creation_date              2013-03-05T15:42:25-0500
_audit_creation_method            fapswitch 2.2
_symmetry_space_group_name_H-M    P1
_symmetry_Int_Tables_number       1
_space_group_crystal_system       triclinic
_cell_length_a                    10.990405
_cell_length_b                    11.033185
_cell_length_c                    18.794547
_cell_angle_alpha                 90.605585
_cell_angle_beta                  89.924042
_cell_angle_gamma                 60.147762
_cell_volume                      1976.44632616

loop_
_atom_site_label
_atom_site_type_symbol
_atom_site_description
_atom_site_fract_x
_atom_site_fract_y
_atom_site_fract_z
_atom_type_partial_charge
O1    O     O_R   0.507340 0.255690 0.581430 -0.523892
O2    O     O_R   0.280360 0.527380 0.578910 -0.504469
C1    C     C_R   0.230125 0.649459 0.607414 0.564903
O3    O     O_R   0.260600 0.739610 0.584580 -0.534806
O4    O     O_R   0.532370 0.695050 0.573830 -0.520377
C2    C     C_R   0.627579 0.587589 0.608837 0.609123
O5    O     O_R   0.744850 0.503430 0.576380 -0.460188
O6    O     O_R   0.699080 0.276500 0.571950 -0.505553
C3    C     C_R   0.627470 0.229282 0.603142 0.539104
O7    O     O_R   0.498860 0.256520 0.419860 -0.532771
O8    O     O_R   0.272490 0.528150 0.429140 -0.499199
C4    C     C_R   0.218280 0.652674 0.402302 0.535114
O9    O     O_R   0.252110 0.740440 0.423010 -0.538804
O10   O     O_R   0.524510 0.695820 0.424050 -0.496858
C5    C     C_R   0.618888 0.590098 0.385290 0.562305
O11   O     O_R   0.736370 0.504260 0.414810 -0.538064
O12   O     O_R   0.691220 0.277270 0.422180 -0.532834
C6    C     C_R   0.617268 0.223241 0.397093 0.540655
Cr1   Cr    Cr6+3 0.392940 0.397950 0.502230 1.002212
Cr2   Cr    Cr6+3 0.398400 0.708500 0.501260 1.003804
Cr3   Cr    Cr6+3 0.708640 0.393530 0.496460 1.014435
O13   O     O_3   0.499990 0.499990 0.499980 -0.276389
C7    C     C_3   0.527379 0.732650 0.801983 -0.211062
H1    H     H_    0.480007 0.847982 0.807713 0.122620
H2    H     H_    0.473540 0.699389 0.840826 0.180092
C8    C     C_3   0.505236 0.695936 0.724940 0.155250
H3    H     H_    0.433225 0.793716 0.696822 0.131912
H4    H     H_    0.712794 0.831976 0.777954 0.131760
H5    H     H_    0.658141 0.804665 0.664368 0.108180
C9    C     C_3   0.753812 0.718878 0.766426 -0.261382
C10   C     C_3   0.748273 0.500205 0.802691 -0.167965
C11   C     C_3   0.686428 0.658959 0.817582 -0.019578
H6    H     H_    0.860280 0.439493 0.817270 0.174489
H7    H     H_    0.692378 0.460077 0.835971 0.135492
C12   C     C_3   0.646919 0.615279 0.684492 0.092801
C13   C     C_3   0.723949 0.700266 0.688562 -0.260276
C14   C     C_3   0.732313 0.474642 0.723728 0.260894
H8    H     H_    0.676958 0.414274 0.719614 0.184056
H9    H     H_    0.868409 0.665100 0.774589 0.146987
H10   H     H_    0.824252 0.646879 0.658078 0.177871
H11   H     H_    0.439403 0.263603 0.700337 0.175122
C15   C     C_R   0.687424 0.168375 0.826248 -0.018707
C16   C     C_R   0.804780 0.142385 0.783148 -0.036033
C17   C     C_R   0.792859 0.141605 0.707685 0.004420
C18   C     C_R   0.543989 0.223119 0.721630 -0.125050
C19   C     C_R   0.555559 0.221599 0.794401 0.207145
C20   C     C_R   0.931787 0.122183 0.812281 -0.089889
C21   C     C_R   0.044206 0.096721 0.768281 -0.128998
C22   C     C_R   0.033056 0.092262 0.694920 -0.067181
C23   C     C_R   0.911709 0.106488 0.664940 -0.024373
C24   C     C_R   0.660436 0.183841 0.677162 -0.058057
H12   H     H_    0.944780 0.132797 0.868404 0.163865
H13   H     H_    0.143359 0.073779 0.791319 0.100435
H14   H     H_    0.121878 0.070096 0.661184 0.086907
H15   H     H_    0.912566 0.090437 0.608113 0.119505
H16   H     H_    0.208492 0.842659 0.696966 0.141815
C25   C     C_R   0.155953 0.673461 0.828631 0.044222
C26   C     C_R   0.142168 0.570165 0.787832 0.029740
C27   C     C_R   0.141686 0.575812 0.712225 -0.000185
C28   C     C_R   0.177155 0.774401 0.720416 -0.075310
C29   C     C_R   0.177104 0.770876 0.793313 -0.094324
C30   C     C_R   0.129511 0.460617 0.818724 -0.038270
C31   C     C_R   0.118248 0.362634 0.777129 -0.065658
C32   C     C_R   0.117779 0.369338 0.703825 -0.052557
C33   C     C_R   0.119583 0.480160 0.671702 -0.109744
C34   C     C_R   0.168196 0.673786 0.678999 0.031916
H17   H     H_    0.140958 0.437253 0.874440 0.201660
H18   H     H_    0.196012 0.844687 0.822563 0.128239
H19   H     H_    0.112895 0.279994 0.803461 0.140617
H20   H     H_    0.112227 0.290889 0.671485 0.169838
H21   H     H_    0.102584 0.489845 0.614952 0.133900
H22   H     H_    0.514548 0.838540 0.319771 0.145004
C35   C     C_R   0.639441 0.665285 0.162779 0.018662
C36   C     C_R   0.690086 0.526979 0.185242 0.019428
C37   C     C_R   0.706450 0.499936 0.259271 -0.014521
C38   C     C_R   0.566312 0.750045 0.283520 -0.131854
C39   C     C_R   0.578461 0.775415 0.212359 -0.169782
C40   C     C_R   0.745535 0.413103 0.135714 0.240317
C41   C     C_R   0.852569 0.283551 0.157799 -0.093012
C42   C     C_R   0.885254 0.261236 0.229227 -0.193986
C43   C     C_R   0.805558 0.362892 0.279902 -0.125951
C44   C     C_R   0.631405 0.612923 0.308687 0.010287
H23   H     H_    0.545284 0.881551 0.196652 0.131159
H24   H     H_    0.908705 0.198494 0.120249 0.168641
H25   H     H_    0.965610 0.160291 0.245977 0.133676
H26   H     H_    0.831702 0.331344 0.334008 0.174696
H27   H     H_    0.866296 0.048654 0.333441 0.111263
C45   C     C_R   0.673952 0.106892 0.183782 0.006947
C46   C     C_R   0.537967 0.185789 0.212326 0.020569
C47   C     C_R   0.522778 0.178839 0.285264 0.036835
C48   C     C_R   0.775470 0.078397 0.300410 -0.166877
C49   C     C_R   0.791437 0.046279 0.228454 -0.164631
C50   C     C_R   0.416445 0.261400 0.170508 -0.068971
C51   C     C_R   0.286477 0.290255 0.196153 -0.128663
C52   C     C_R   0.273191 0.259937 0.266055 -0.146848
C53   C     C_R   0.389749 0.203898 0.310488 -0.081087
C54   C     C_R   0.641136 0.151251 0.328833 0.013004
H28   H     H_    0.420946 0.294865 0.117173 0.180969
H29   H     H_    0.896026 0.980922 0.206944 0.145549
H30   H     H_    0.196644 0.334746 0.161367 0.123674
H31   H     H_    0.171353 0.283762 0.286291 0.102449
H32   H     H_    0.374300 0.175593 0.363203 0.138190
H33   H     H_    0.088482 0.530347 0.331514 0.131539
C55   C     C_R   0.145769 0.673535 0.184710 0.001503
C56   C     C_R   0.196939 0.754204 0.217962 0.025355
C57   C     C_R   0.167799 0.784305 0.290234 0.033624
C58   C     C_R   0.110683 0.598875 0.300113 -0.146315
C59   C     C_R   0.095737 0.602307 0.226692 -0.150615
C60   C     C_R   0.257099 0.821654 0.179722 -0.066462
C61   C     C_R   0.260324 0.936139 0.209413 -0.126954
C62   C     C_R   0.212932 0.978131 0.278645 -0.150966
C63   C     C_R   0.162125 0.906888 0.317796 -0.093916
C64   C     C_R   0.151176 0.687011 0.332552 0.000531
H34   H     H_    0.295053 0.790595 0.125654 0.161075
H35   H     H_    0.043126 0.551183 0.203057 0.138942
H36   H     H_    0.297873 0.993199 0.178467 0.125811
H37   H     H_    0.213136 0.066783 0.302538 0.103825
H38   H     H_    0.117405 0.949623 0.369631 0.127653
O14   O     O_R   0.089570 0.825450 0.930590 -0.526919
O15   O     O_R   0.818700 0.054260 0.929860 -0.507316
C65   C     C_R   0.702572 0.103740 0.896650 0.603808
O16   O     O_R   0.606310 0.077010 0.915520 -0.426629
O17   O     O_R   0.646730 0.806540 0.917560 -0.497330
C66   C     C_R   0.718413 0.683326 0.891050 0.565620
O18   O     O_R   0.837290 0.593240 0.915240 -0.520079
O19   O     O_R   0.065320 0.635310 0.931580 -0.516537
C67   C     C_R   0.112763 0.707338 0.903698 0.563216
O20   O     O_R   0.068470 0.828620 0.091850 -0.539260
O21   O     O_R   0.799150 0.057200 0.079350 -0.488123
C68   C     C_R   0.695155 0.057734 0.111344 0.551655
O22   O     O_R   0.585220 0.080180 0.076770 -0.521370
O23   O     O_R   0.627170 0.809480 0.067050 -0.518806
C69   C     C_R   0.693545 0.689901 0.096405 0.583288
O24   O     O_R   0.816200 0.596410 0.076500 -0.501487
O25   O     O_R   0.045770 0.638240 0.081070 -0.506629
C70   C     C_R   0.093878 0.708922 0.112521 0.541306
Cr4   Cr    Cr6+3 0.937880 0.938320 0.007620 1.032609
Cr5   Cr    Cr6+3 0.625560 0.937220 0.994510 1.071721
Cr6   Cr    Cr6+3 0.938080 0.625010 0.001190 1.038845
O26   O     O_3   0.833840 0.833520 0.001110 -0.291918
F1    F     F_    0.862121 0.394677 0.692847 -0.672856
N1    N     N_R   0.432089 0.265340 0.836352 0.076480
O27   O     O_R   0.376989 0.184759 0.837485 -0.397069
O28   O     O_R   0.405100 0.354191 0.888415 -0.330320
N2    N     N_R   0.694480 0.428761 0.063868 0.086190
O29   O     O_R   0.771575 0.341278 0.013946 -0.345416
O30   O     O_R   0.565058 0.520956 0.049773 -0.354055
F2    F     F_    0.447871 0.609446 0.727796 -0.686985

loop_
_geom_bond_atom_site_label_1
_geom_bond_atom_site_label_2
_geom_bond_distance
_ccdc_geom_bond_type
C26   C30   1.413961 A    
C9    C11   1.552048 S    
O11   Cr3   2.085526 S    
H27   C48   1.081364 S    
C35   C36   1.408994 A    
C11   C66   1.479854 S    
C52   C53   1.394967 A    
C3    C24   1.467394 S    
C45   C68   1.435179 S    
H22   C38   1.083094 S    
C42   H25   1.071647 S    
N2    O29   1.301711 A    
O17   C66   1.278838 A    
C19   N1    1.425874 S    
O4    Cr2   1.960179 S    
C57   C63   1.415124 A    
C18   C19   1.373261 A    
O18   Cr6   2.082961 S    
O25   Cr6   1.961660 S    
H5    C13   1.113206 S    
O8    Cr1   1.963781 S    
C8    H3    1.110254 S    
O19   C67   1.264366 A    
C14   F1    1.372764 S    
C30   H17   1.073596 S    
C59   H35   1.081611 S    
C12   C14   1.551949 S    
O21   C68   1.288149 A    
C53   H32   1.080208 S    
O20   C70   1.271620 A    
C27   C34   1.403807 A    
C41   H24   1.080673 S    
C18   C24   1.400560 A    
O23   Cr5   1.965007 S    
C22   H14   1.082682 S    
C2    C12   1.488821 S    
C15   C19   1.402123 A    
C7    C8    1.551346 S    
C25   C29   1.383202 A    
C61   C62   1.387177 A    
C58   C64   1.390820 A    
C40   N2    1.441704 S    
C31   H19   1.068931 S    
O23   C69   1.278869 A    
C7    H1    1.113227 S    
C10   H6    1.105906 S    
C6    C54   1.454549 S    
C32   H20   1.078832 S    
C47   C54   1.438462 A    
C43   H26   1.070749 S    
O9    Cr2   2.079714 S    
C45   C46   1.404276 A    
C55   C59   1.408789 A    
C28   C34   1.392372 A    
Cr3   O13   1.989737 S    
C55   C56   1.409428 A    
N2    O30   1.301693 A    
O6    Cr3   1.965875 S    
C5    C44   1.482141 S    
C21   H13   1.080747 S    
Cr4   O26   1.993240 S    
O19   Cr6   1.958725 S    
O1    Cr1   2.085628 S    
C36   C37   1.418874 A    
C57   C64   1.425192 A    
O14   Cr4   2.077204 S    
C45   C49   1.405152 A    
O25   C70   1.280119 A    
Cr1   O13   1.993237 S    
O1    C3    1.271035 A    
C38   C39   1.389084 A    
O16   Cr5   2.086124 S    
C38   C44   1.401045 A    
O24   Cr6   2.079056 S    
C40   C41   1.392514 A    
O6    C3    1.283697 A    
C26   C27   1.422931 A    
C33   H21   1.080276 S    
O12   Cr3   1.959167 S    
H16   C28   1.069969 S    
C28   C29   1.371040 A    
C12   C13   1.546199 S    
C16   C17   1.424841 A    
C14   H8    1.105517 S    
O10   Cr2   1.960528 S    
C51   H30   1.081288 S    
C20   C21   1.391460 A    
O17   Cr5   1.961033 S    
C13   H10   1.111391 S    
O7    Cr1   2.079058 S    
C58   C59   1.388568 A    
C30   C31   1.382308 A    
O12   C6    1.309831 A    
C10   H7    1.113654 S    
C50   C51   1.384278 A    
H11   C18   1.083864 S    
C48   C54   1.385136 A    
C8    F2    1.382361 S    
C65   O16   1.282131 A    
C2    O5    1.299996 A    
Cr5   O26   1.990169 S    
C60   H34   1.083188 S    
O20   Cr4   2.085209 S    
C17   C24   1.413178 A    
C21   C22   1.386902 A    
C35   C69   1.466121 S    
C69   O24   1.275682 A    
N1    O28   1.302279 A    
C41   C42   1.382763 A    
C1    C34   1.467486 S    
C15   C16   1.423406 A    
C1    O3    1.275138 A    
C61   H36   1.081970 S    
C48   C49   1.382984 A    
O15   C65   1.277578 A    
Cr6   O26   1.995297 S    
C4    C64   1.463159 S    
C17   C23   1.410143 A    
C56   C60   1.416833 A    
C35   C39   1.399145 A    
C55   C70   1.452597 S    
C62   C63   1.385345 A    
O2    Cr1   1.959565 S    
N1    O27   1.301526 A    
C10   C11   1.553130 S    
C37   C43   1.413130 A    
Cr2   O13   1.995315 S    
C42   C43   1.389042 A    
C25   C67   1.471733 S    
O8    C4    1.302890 A    
C37   C44   1.430652 A    
C47   C53   1.425388 A    
C20   H12   1.077572 S    
C56   C57   1.393313 A    
C23   H15   1.080028 S    
C9    C13   1.534117 S    
C62   H37   1.072967 S    
C7    C11   1.547286 S    
H4    C9    1.114114 S    
O2    C1    1.284385 A    
O22   Cr5   2.079697 S    
O5    Cr3   2.080457 S    
C60   C61   1.392070 A    
C32   C33   1.378268 A    
C63   H38   1.082254 S    
C29   H18   1.080692 S    
C25   C26   1.436494 A    
O4    C2    1.310257 A    
O7    C6    1.237312 A    
C5    O11   1.291336 A    
C9    H9    1.104679 S    
C68   O22   1.284911 A    
C7    H2    1.112853 S    
C46   C50   1.415926 A    
C51   C52   1.384421 A    
C31   C32   1.380355 A    
O3    Cr2   2.080513 S    
C10   C14   1.534240 S    
C8    C12   1.548421 S    
O21   Cr4   1.956734 S    
C4    O9    1.256283 A    
C49   H29   1.082655 S    
C22   C23   1.384278 A    
C36   C40   1.424067 A    
C39   H23   1.083466 S    
O10   C5    1.320121 A    
H33   C58   1.082686 S    
O15   Cr4   1.965814 S    
C46   C47   1.388271 A    
C16   C20   1.411659 A    
C50   H28   1.081434 S    
C27   C33   1.411219 A    
C52   H31   1.081798 S    
C15   C65   1.479663 S    
C66   O18   1.272761 A    
O14   C67   1.293700 A    
