data_mof_unit_38589.cif
_audit_creation_date              2013-03-05T16:04:20-0500
_audit_creation_method            fapswitch 2.2
_symmetry_space_group_name_H-M    P1
_symmetry_Int_Tables_number       1
_space_group_crystal_system       triclinic
_cell_length_a                    9.740449
_cell_length_b                    10.859083
_cell_length_c                    13.490352
_cell_angle_alpha                 96.007685
_cell_angle_beta                  75.110396
_cell_angle_gamma                 91.916394
_cell_volume                      1371.38907922

loop_
_atom_site_label
_atom_site_type_symbol
_atom_site_description
_atom_site_fract_x
_atom_site_fract_y
_atom_site_fract_z
_atom_type_partial_charge
O1    O     O_R   0.381250 0.680340 0.500010 -0.532638
O2    O     O_R   0.618820 0.680370 0.500010 -0.498128
C1    C     C_R   0.505025 0.736107 0.492145 0.920455
O3    O     O_R   0.323240 0.499950 0.650980 -0.552431
O4    O     O_R   0.560810 0.499980 0.650980 -0.522470
C2    C     C_R   0.423247 0.504795 0.700139 0.856148
Cu1   Cu    Cu3+1 0.359340 0.499980 0.500000 1.021596
Cu2   Cu    Cu3+1 0.640660 0.500020 0.500000 1.050441
O5    O     O_R   0.381180 0.319630 0.499990 -0.540058
O6    O     O_R   0.618750 0.319660 0.499990 -0.514947
O7    O     O_R   0.439190 0.500020 0.349020 -0.578825
O8    O     O_R   0.676760 0.500050 0.349020 -0.602136
C3    C     C_R   0.496837 0.262471 0.501570 0.881763
C4    C     C_R   0.574253 0.499352 0.301207 0.782603
C5    C     C_R   0.764481 0.463431 0.018378 0.616416
H1    H     H_    0.817817 0.427069 0.156443 0.153951
H2    H     H_    0.819898 0.573948 0.840270 0.169666
C6    C     C_R   0.607526 0.502374 0.189097 -0.149971
C7    C     C_R   0.229691 0.502365 0.867331 0.409351
C8    C     C_R   0.179286 0.553553 0.970441 0.406219
C9    C     C_R   0.274978 0.583117 0.031874 -0.155909
C10   C     C_R   0.421504 0.563309 0.986432 -0.021825
C11   C     C_R   0.466318 0.558323 0.878307 -0.137126
C12   C     C_R   0.528176 0.545222 0.038795 0.055678
C13   C     C_R   0.669088 0.523245 0.978306 -0.068965
C14   C     C_R   0.709360 0.563312 0.879551 -0.253970
C15   C     C_R   0.603127 0.600631 0.837722 0.558341
C16   C     C_R   0.500040 0.534267 0.144484 -0.184442
C17   C     C_R   0.738528 0.463383 0.125260 -0.290005
C18   C     C_R   0.374029 0.520719 0.815973 -0.304297
H3    H     H_    0.395311 0.548686 0.193347 0.187321
C19   C     C_R   0.618259 0.943573 0.512320 0.345337
C20   C     C_R   0.596011 0.071194 0.536782 0.351023
C21   C     C_R   0.492566 0.127020 0.501140 -0.360566
C22   C     C_R   0.399614 0.053078 0.454201 0.351991
C23   C     C_R   0.414247 0.923648 0.440186 0.339712
C24   C     C_R   0.513541 0.869372 0.480519 -0.354230
C25   C     C_R   0.908135 0.591047 0.557956 0.416101
C26   C     C_R   0.053566 0.581110 0.566385 -0.155790
N1    N     N_R   0.147940 0.499970 0.499970 -0.254705
C27   C     C_R   0.094437 0.416345 0.435677 0.431228
C28   C     C_R   0.944273 0.410674 0.441287 0.392598
N2    N     N_R   0.852060 0.500060 0.499990 -0.246429
O9    O     O_3   0.652220 0.139137 0.610779 -0.574150
C29   C     C_3   0.801604 0.138299 0.584052 -0.156552
H4    H     H_    0.840062 0.229848 0.611090 0.165244
H5    H     H_    0.847808 0.122649 0.499887 0.187327
H6    H     H_    0.840363 0.067970 0.623952 0.133970
O10   O     O_3   0.297101 0.106245 0.418990 -0.500318
C30   C     C_3   0.169113 0.112394 0.498113 -0.216461
H7    H     H_    0.080972 0.112186 0.460600 0.184776
H8    H     H_    0.163374 0.199440 0.549804 0.181874
H9    H     H_    0.150956 0.033416 0.546467 0.075810
O11   O     O_3   0.361715 0.853394 0.365851 -0.521094
C31   C     C_3   0.215787 0.828878 0.402671 -0.123584
H10   H     H_    0.182130 0.826053 0.487302 0.140935
H11   H     H_    0.191917 0.736154 0.367835 0.164774
H12   H     H_    0.153494 0.897488 0.377535 0.164499
O12   O     O_3   0.816192 0.686794 0.608040 -0.469446
C32   C     C_3   0.877643 0.792596 0.650962 -0.121856
H13   H     H_    0.972955 0.826330 0.596490 0.112956
H14   H     H_    0.893526 0.778023 0.727309 0.119608
H15   H     H_    0.800722 0.868822 0.670660 0.206280
C33   C     C_2   0.092495 0.635832 0.659909 0.467695
H16   H     H_    0.038244 0.603593 0.732788 0.085934
O13   O     O_2   0.176292 0.721927 0.658452 -0.594178
O14   O     O_3   0.182467 0.322972 0.378920 -0.512235
C34   C     C_3   0.223528 0.342078 0.273386 -0.169464
H17   H     H_    0.340321 0.332918 0.245579 0.181740
H18   H     H_    0.192098 0.433137 0.255064 0.064558
H19   H     H_    0.180394 0.266544 0.228346 0.147481
O15   O     O_3   0.888927 0.302413 0.403452 -0.569530
C35   C     C_3   0.893368 0.302170 0.298398 -0.249370
H20   H     H_    0.949082 0.217752 0.255820 0.147655
H21   H     H_    0.945810 0.385013 0.262278 0.119225
H22   H     H_    0.783534 0.292800 0.289376 0.177879
O16   O     O_3   0.873472 0.394631 0.951976 -0.510509
C36   C     C_3   0.848433 0.267805 0.966810 -0.335550
H23   H     H_    0.907046 0.210361 0.897107 0.170040
H24   H     H_    0.734273 0.240691 0.978216 0.146238
H25   H     H_    0.887880 0.244470 0.032885 0.150275
O17   O     O_3   0.134243 0.446998 0.816150 -0.534947
C37   C     C_3   0.163226 0.318848 0.795762 -0.215135
H26   H     H_    0.153319 0.275325 0.868427 0.148673
H27   H     H_    0.270123 0.299100 0.743462 0.125552
H28   H     H_    0.085073 0.274373 0.756092 0.159407
C38   C     C_2   0.220874 0.655241 0.133152 0.319011
H29   H     H_    0.115529 0.636813 0.180645 0.083368
O18   O     O_2   0.290610 0.740996 0.161457 -0.519111
O19   O     O_3   0.036543 0.576781 0.010938 -0.556774
C39   C     C_3   0.006975 0.694386 0.985819 -0.316160
H30   H     H_    0.026857 0.696417 0.901162 0.167020
H31   H     H_    0.069475 0.768936 0.017610 0.155490
H32   H     H_    0.892988 0.714920 0.020690 0.182574
O20   O     O_3   0.629198 0.689350 0.769041 -0.537192
C40   C     C_3   0.535482 0.790694 0.805896 -0.289059
H33   H     H_    0.569475 0.866726 0.756119 0.189867
H34   H     H_    0.536684 0.827305 0.885937 0.155641
H35   H     H_    0.425549 0.765759 0.801478 0.166583
O21   O     O_3   0.744451 0.892791 0.515144 -0.559336
C41   C     C_3   0.829409 0.868090 0.413059 -0.285750
H36   H     H_    0.920729 0.811316 0.414990 0.163435
H37   H     H_    0.871035 0.955145 0.379459 0.135982
H38   H     H_    0.772505 0.813547 0.361148 0.170306

loop_
_geom_bond_atom_site_label_1
_geom_bond_atom_site_label_2
_geom_bond_distance
_ccdc_geom_bond_type
C38   H29   1.085668 S    
C9    C38   1.480341 S    
C41   H36   1.106309 S    
C35   H20   1.107982 S    
C4    C6    1.466717 S    
C15   O20   1.378647 S    
O20   C40   1.418100 S    
Cu2   N2    2.059082 S    
C31   H10   1.107343 S    
Cu1   Cu2   2.740170 S    
C27   O14   1.381236 S    
C5    O16   1.382700 S    
O16   C36   1.416475 S    
Cu1   O7    1.984798 S    
C26   C33   1.470563 S    
C14   C15   1.389014 A    
C32   H15   1.100116 S    
H2    C14   1.079202 S    
C23   C24   1.398056 A    
C25   C26   1.458356 A    
O7    C4    1.307822 A    
C36   H24   1.116467 S    
C5    C13   1.396236 A    
C40   H35   1.110635 S    
C32   H14   1.107888 S    
C21   C22   1.415988 A    
C27   C28   1.444638 A    
O5    C3    1.310231 A    
C7    C8    1.410786 A    
C34   H17   1.106898 S    
C40   H34   1.113750 S    
C22   O10   1.376847 S    
C30   H8    1.108327 S    
Cu1   N1    2.059232 S    
C11   C15   1.386855 A    
C7    O17   1.381365 S    
O12   C32   1.416486 S    
C41   H37   1.110465 S    
C9    C10   1.415037 A    
C35   H21   1.113881 S    
O3    Cu1   1.975893 S    
C5    C17   1.398479 A    
C29   H5    1.105765 S    
C30   H9    1.113556 S    
O14   C34   1.411936 S    
C11   C18   1.404993 A    
C6    C16   1.403559 A    
C12   C13   1.418552 A    
O3    C2    1.308717 A    
C39   H30   1.110681 S    
C36   H23   1.106528 S    
C30   H7    1.102764 S    
H1    C17   1.072845 S    
C29   H4    1.109543 S    
C8    O19   1.378223 S    
C19   O21   1.374837 S    
C32   H13   1.104114 S    
O1    C1    1.315445 A    
C22   C23   1.405484 A    
C33   O13   1.218704 D    
C39   H31   1.112860 S    
C37   H26   1.113073 S    
Cu2   O8    1.975895 S    
C40   H33   1.107134 S    
C28   O15   1.380816 S    
C20   C21   1.401719 A    
C6    C17   1.394342 A    
C19   C24   1.404012 A    
Cu2   O6    1.963019 S    
N1    C27   1.372677 A    
C37   H27   1.110701 S    
O8    C4    1.320033 A    
O17   C37   1.413560 S    
C41   H38   1.113162 S    
C31   H11   1.109147 S    
C35   H22   1.107590 S    
C10   C12   1.427252 A    
C28   N2    1.381273 A    
C26   N1    1.374687 A    
O9    C29   1.406376 S    
C29   H6    1.106916 S    
Cu1   O5    1.976997 S    
O11   C31   1.406239 S    
C2    C18   1.505178 S    
O1    Cu1   1.963019 S    
C20   O9    1.392942 S    
C16   H3    1.069187 S    
O2    Cu2   1.976999 S    
C12   C16   1.398081 A    
O15   C35   1.406444 S    
O6    C3    1.317832 A    
O4    Cu2   1.984797 S    
C19   C20   1.401433 A    
C38   O18   1.221039 D    
O2    C1    1.313361 A    
C13   C14   1.399786 A    
C3    C21   1.469519 S    
C33   H16   1.077535 S    
C39   H32   1.109021 S    
C36   H25   1.111845 S    
O19   C39   1.412103 S    
O4    C2    1.333674 A    
C34   H19   1.105580 S    
O21   C41   1.416045 S    
C23   O11   1.388122 S    
C25   O12   1.394215 S    
C25   N2    1.381203 A    
C37   H28   1.108963 S    
C8    C9    1.407107 A    
C1    C24   1.469179 S    
C34   H18   1.114836 S    
O10   C30   1.415892 S    
C31   H12   1.107739 S    
C10   C11   1.406756 A    
C7    C18   1.416303 A    
