data_mof_unit_44204.cif
_audit_creation_date              2012-12-10T17:35:44-0500
_audit_creation_method            fapswitch 2.2
_symmetry_space_group_name_H-M    P1
_symmetry_Int_Tables_number       1
_space_group_crystal_system       triclinic
_cell_length_a                    10.482872
_cell_length_b                    11.971549
_cell_length_c                    12.894664
_cell_angle_alpha                 94.504621
_cell_angle_beta                  89.977976
_cell_angle_gamma                 86.231788
_cell_volume                      1609.7201305

loop_
_atom_site_label
_atom_site_type_symbol
_atom_type_description
_atom_site_fract_x
_atom_site_fract_y
_atom_site_fract_z
_atom_type_partial_charge
C1    C     C_R   0.502682 0.523874 0.700919 1.000184
C2    C     C_R   0.498627 0.476888 0.298961 0.983985
C3    C     C_R   0.561646 0.452019 0.866784 0.590264
C4    C     C_R   0.474108 0.558086 0.132538 0.576763
C5    C     C_R   0.550331 0.456156 0.973886 -0.278417
C6    C     C_R   0.501404 0.557234 0.027554 -0.274243
C7    C     C_R   0.383772 0.952090 0.399814 0.398747
C8    C     C_R   0.611216 0.048350 0.604683 0.402155
C9    C     C_R   0.396544 0.836031 0.409061 -0.019296
C10   C     C_R   0.599724 0.164695 0.593703 -0.037662
C11   C     C_R   0.545558 0.859599 0.546154 -0.032935
C12   C     C_R   0.453996 0.140344 0.454666 -0.032565
C13   C     C_R   0.538988 0.976923 0.539088 -0.084861
C14   C     C_R   0.458456 0.023482 0.463516 -0.120093
C15   C     C_R   0.742544 0.499782 0.498835 0.977602
C16   C     C_R   0.257749 0.499046 0.497007 0.984152
C17   C     C_3   0.965509 0.418557 0.556458 0.576004
C18   C     C_3   0.035523 0.575966 0.435334 0.584185
C19   C     C_3   0.040583 0.519961 0.592591 0.416882
C20   C     C_3   0.960193 0.474834 0.399715 0.413326
C21   C     C_3   0.123486 0.496963 0.494882 -0.273379
C22   C     C_3   0.877269 0.498574 0.497112 -0.271245
C23   C     C_3   0.049422 0.393784 0.458030 -0.455712
C24   C     C_3   0.952249 0.601025 0.533701 -0.459328
C25   C     C_R   0.503815 0.462809 0.186322 -0.377897
C26   C     C_R   0.514196 0.542827 0.813089 -0.346266
C27   C     C_R   0.482102 0.656620 0.975895 0.446862
C28   C     C_R   0.581182 0.359752 0.027677 0.441049
C29   C     C_R   0.477739 0.648337 0.866104 0.274562
C30   C     C_R   0.547164 0.360467 0.132973 0.298846
H1    H     H_    0.093191 0.310982 0.426891 0.174266
H2    H     H_    0.906819 0.683242 0.562376 0.189258
H3    H     H_    0.394086 0.178594 0.397455 0.154933
H4    H     H_    0.606543 0.821179 0.602944 0.186034
H5    H     H_    0.650736 0.221167 0.645653 0.216055
H6    H     H_    0.341709 0.780526 0.359111 0.225714
N1    N     N_R   0.523490 0.207800 0.519350 -0.132733
N2    N     N_R   0.476510 0.792200 0.480650 -0.149424
O1    O     O_R   0.506270 0.421700 0.658830 -0.568850
O2    O     O_R   0.493730 0.578300 0.341170 -0.574912
O3    O     O_R   0.491200 0.609310 0.646410 -0.584300
O4    O     O_R   0.508800 0.390690 0.353590 -0.591016
O5    O     O_R   0.693580 0.406210 0.506230 -0.578106
O6    O     O_R   0.306420 0.593790 0.493770 -0.587875
O7    O     O_R   0.678510 0.593830 0.493810 -0.648566
O8    O     O_R   0.321490 0.406170 0.506190 -0.646988
Zn1   Zn    Zn3+2 0.510060 0.374730 0.508290 1.004491
Zn2   Zn    Zn3+2 0.489940 0.625270 0.491710 0.995422
O9    O     O_3   0.098680 0.546927 0.689426 -0.656200
C31   C     C_3   0.017640 0.529694 0.773475 0.097427
H7    H     H_    0.075846 0.538788 0.845063 0.165550
H8    H     H_    0.986041 0.442861 0.769606 0.197157
C32   C     C_3   0.903075 0.616595 0.783701 -0.367362
H9    H     H_    0.935602 0.701326 0.772920 0.237025
H10   H     H_    0.831268 0.595762 0.723151 0.216918
C33   C     C_3   0.838510 0.618772 0.889643 -0.981880
H11   H     H_    0.809659 0.534230 0.904817 0.265192
H12   H     H_    0.751973 0.676739 0.890674 0.266318
H13   H     H_    0.903321 0.648807 0.952165 0.271386
O10   O     O_3   0.908244 0.451779 0.299956 -0.635271
C34   C     C_3   0.007149 0.432812 0.224542 0.113797
H14   H     H_    0.995211 0.350473 0.180990 0.133294
H15   H     H_    0.105749 0.427835 0.257526 0.128553
C35   C     C_3   0.995651 0.524763 0.148467 -0.303390
H16   H     H_    0.908648 0.514621 0.100278 0.197656
H17   H     H_    0.985496 0.608475 0.192377 0.279445
C36   C     C_3   0.113047 0.520521 0.077864 -0.942368
H18   H     H_    0.201275 0.526069 0.124998 0.296510
H19   H     H_    0.105835 0.592866 0.029107 0.267413
H20   H     H_    0.120075 0.441509 0.026512 0.249003
F1    F     F_    0.922480 0.337101 0.615779 -0.688744
F2    F     F_    0.077678 0.655332 0.373333 -0.683857
F3    F     F_    0.410583 0.650122 0.181822 -0.620674
F4    F     F_    0.613484 0.357448 0.813411 -0.637513
O11   O     O_3   0.559543 0.263290 0.185352 -0.613711
C37   C     C_3   0.473665 0.183532 0.145513 0.130321
H21   H     H_    0.490790 0.107491 0.189038 0.174101
H22   H     H_    0.493729 0.155218 0.062823 0.175752
C38   C     C_3   0.331856 0.224782 0.159813 -0.393612
H23   H     H_    0.309744 0.242640 0.243809 0.214910
H24   H     H_    0.310775 0.303533 0.121093 0.207992
C39   C     C_3   0.244678 0.137257 0.112341 -0.939964
H25   H     H_    0.251995 0.132007 0.026128 0.270139
H26   H     H_    0.144121 0.161391 0.135746 0.255223
H27   H     H_    0.271381 0.053080 0.138979 0.311147
O12   O     O_3   0.449605 0.740031 0.807072 -0.621255
C40   C     C_3   0.346592 0.815984 0.843567 0.177803
H28   H     H_    0.327776 0.874940 0.782103 0.145174
H29   H     H_    0.373827 0.871549 0.911281 0.171633
C41   C     C_3   0.220531 0.760939 0.861116 -0.356065
H30   H     H_    0.179733 0.734157 0.784428 0.251995
H31   H     H_    0.235649 0.685921 0.905903 0.226867
C42   C     C_3   0.124845 0.843606 0.921195 -0.970737
H32   H     H_    0.160218 0.864159 0.001201 0.296279
H33   H     H_    0.031691 0.805757 0.926878 0.268906
H34   H     H_    0.110195 0.922382 0.881506 0.253683
O13   O     O_3   0.460165 0.758693 0.033833 -0.580638
C43   C     C_3   0.571090 0.820324 0.035508 0.094177
H35   H     H_    0.540375 0.909441 0.058510 0.155446
H36   H     H_    0.615880 0.820080 0.957240 0.137688
C44   C     C_3   0.668141 0.780038 0.115980 -0.322249
H37   H     H_    0.621116 0.783501 0.193558 0.268121
H38   H     H_    0.703412 0.691851 0.094027 0.209749
C45   C     C_3   0.782413 0.852913 0.123260 -0.983405
H39   H     H_    0.830585 0.851255 0.046376 0.270079
H40   H     H_    0.852172 0.820209 0.180109 0.282781
H41   H     H_    0.750901 0.941007 0.149599 0.268715
O14   O     O_3   0.636273 0.262753 0.975797 -0.588926
C46   C     C_3   0.764824 0.242972 0.007042 0.126626
H42   H     H_    0.775931 0.156066 0.031902 0.159252
H43   H     H_    0.795202 0.300240 0.073830 0.118496
C47   C     C_3   0.853181 0.252541 0.914182 -0.259773
H44   H     H_    0.817100 0.203808 0.844883 0.266019
H45   H     H_    0.852892 0.341615 0.896400 0.228675
C48   C     C_3   0.989940 0.209559 0.935452 -1.050973
H46   H     H_    0.028783 0.259945 0.002490 0.270044
H47   H     H_    0.050620 0.217451 0.866148 0.289384
H48   H     H_    0.993232 0.119848 0.952318 0.274110
O15   O     O_3   0.305466 0.992764 0.323220 -0.652497
C49   C     C_3   0.188506 0.041062 0.366816 0.032872
H49   H     H_    0.169833 0.124196 0.335335 0.167227
H50   H     H_    0.188721 0.056907 0.453366 0.126408
C50   C     C_3   0.079602 0.967047 0.333952 -0.304974
H51   H     H_    0.087447 0.941381 0.249298 0.248194
H52   H     H_    0.087386 0.890090 0.377022 0.259346
C51   C     C_3   0.949124 0.029080 0.355756 -0.936833
H53   H     H_    0.940782 0.062086 0.438507 0.275723
H54   H     H_    0.872421 0.970771 0.338605 0.270103
H55   H     H_    0.935324 0.100288 0.305692 0.270408
O16   O     O_3   0.678597 0.006516 0.687258 -0.643904
C52   C     C_3   0.811326 0.018283 0.675970 0.073278
H56   H     H_    0.852245 0.028498 0.755267 0.181718
H57   H     H_    0.835189 0.093191 0.635413 0.157153
C53   C     C_3   0.874954 0.911635 0.620627 -0.388120
H58   H     H_    0.846336 0.839046 0.661539 0.223336
H59   H     H_    0.841165 0.902266 0.538929 0.227507
C54   C     C_3   0.020492 0.913064 0.621404 -0.924621
H60   H     H_    0.051350 0.988989 0.586990 0.264693
H61   H     H_    0.063381 0.837475 0.575569 0.289543
H62   H     H_    0.056408 0.912653 0.702189 0.263003

loop_
_geom_bond_atom_site_label_1
_geom_bond_atom_site_label_2
_ccdc_geom_bond_type
C40   H28   S    
C16   C21   S    
C27   C29   A    
C18   C21   S    
C37   C38   S    
C52   C53   S    
C53   C54   S    
C45   H40   S    
O13   C43   S    
C50   H51   S    
C32   H9    S    
O14   C46   S    
C54   H61   S    
C42   H32   S    
C10   N1    A    
C18   C24   S    
C19   C21   S    
C37   H22   S    
C46   H43   S    
C5    C6    A    
C8    C10   A    
C50   H52   S    
C48   H46   S    
C33   H11   S    
O2    Zn2   S    
C12   N1    A    
C34   H15   S    
C3    F4    S    
C47   H44   S    
C15   C22   S    
C48   H47   S    
C9    H6    S    
C31   H8    S    
C10   H5    S    
N1    Zn1   S    
C16   O6    A    
N2    Zn2   S    
C49   C50   S    
C32   C33   S    
C44   H38   S    
C13   C14   A    
C47   H45   S    
C45   H39   S    
C49   H50   S    
C4    C25   A    
C32   H10   S    
C18   F2    S    
C54   H62   S    
C31   C32   S    
C35   C36   S    
C36   H18   S    
C44   H37   S    
C7    O15   S    
C37   H21   S    
C4    C6    A    
C46   C47   S    
C16   O8    A    
C38   H24   S    
O12   C40   S    
C50   C51   S    
C53   H59   S    
C51   H55   S    
C3    C5    A    
C7    C14   A    
O10   C34   S    
C36   H19   S    
C23   H1    S    
C11   N2    A    
O11   C37   S    
C24   H2    S    
C5    C28   A    
C19   O9    S    
C41   H31   S    
C6    C27   A    
C20   C23   S    
C48   H48   S    
C31   H7    S    
C29   O12   S    
C17   C23   S    
C4    F3    S    
C1    O3    A    
C12   C14   A    
C39   H25   S    
C42   H34   S    
C39   H26   S    
C21   C23   S    
C8    O16   S    
C1    C26   S    
O9    C31   S    
C22   C24   S    
C20   O10   S    
C15   O7    A    
C52   H56   S    
C43   C44   S    
C49   H49   S    
C41   C42   S    
O1    Zn1   S    
O7    Zn2   S    
C25   C30   A    
C7    C9    A    
O8    Zn1   S    
C27   O13   S    
C51   H54   S    
C11   H4    S    
C20   C22   S    
C52   H57   S    
C38   C39   S    
O15   C49   S    
C17   F1    S    
C53   H58   S    
C44   C45   S    
C39   H27   S    
C54   H60   S    
C3    C26   A    
C17   C22   S    
C33   H13   S    
C36   H20   S    
C35   H16   S    
C40   H29   S    
O16   C52   S    
C15   O5    A    
C46   H42   S    
C34   C35   S    
C30   O11   S    
C11   C13   A    
C41   H30   S    
C2    O4    A    
C51   H53   S    
C28   C30   A    
C9    N2    A    
C17   C19   S    
O3    Zn2   S    
C33   H12   S    
C19   C24   S    
C2    C25   S    
C18   C20   S    
O4    Zn1   S    
C47   C48   S    
C34   H14   S    
C28   O14   S    
C43   H36   S    
C1    O1    A    
C38   H23   S    
C8    C13   A    
C2    O2    A    
C26   C29   A    
C42   H33   S    
C43   H35   S    
C40   C41   S    
C12   H3    S    
O5    Zn1   S    
C45   H41   S    
O6    Zn2   S    
C35   H17   S    
