data_mof_unit_54229.cif
_audit_creation_date              2012-12-10T20:31:00-0500
_audit_creation_method            fapswitch 2.2
_symmetry_space_group_name_H-M    P1
_symmetry_Int_Tables_number       1
_space_group_crystal_system       triclinic
_cell_length_a                    14.958409
_cell_length_b                    10.672473
_cell_length_c                    9.867945
_cell_angle_alpha                 90.020514
_cell_angle_beta                  90.027157
_cell_angle_gamma                 89.879446
_cell_volume                      1575.34671237

loop_
_atom_site_label
_atom_site_type_symbol
_atom_type_description
_atom_site_fract_x
_atom_site_fract_y
_atom_site_fract_z
_atom_type_partial_charge
C1    C     C_R   0.502745 0.259969 0.500055 0.881279
C2    C     C_R   0.907698 0.577449 0.398497 0.075885
C3    C     C_R   0.952625 0.372147 0.698128 -0.190270
C4    C     C_R   0.045444 0.369289 0.697857 -0.222198
C5    C     C_R   0.092654 0.434709 0.598242 0.127231
C6    C     C_R   0.046789 0.503266 0.497296 0.086213
C7    C     C_R   0.094214 0.568754 0.396201 0.128602
C8    C     C_R   0.048686 0.637310 0.297152 -0.262494
C9    C     C_R   0.955934 0.642240 0.298589 -0.154497
C10   C     C_R   0.185180 0.433385 0.597966 -0.274835
C11   C     C_R   0.231367 0.499449 0.498470 -0.064993
C12   C     C_R   0.326873 0.499330 0.499790 0.892490
C13   C     C_R   0.186682 0.565569 0.396959 -0.269282
C14   C     C_R   0.514058 0.063858 0.623345 0.142651
C15   C     C_R   0.516878 0.128525 0.500976 -0.107498
C16   C     C_R   0.536822 0.064644 0.380437 -0.220377
C17   C     C_R   0.536982 0.935026 0.380470 -0.224027
C18   C     C_R   0.517063 0.871329 0.500996 -0.109490
C19   C     C_R   0.514115 0.936101 0.623343 0.140794
C20   C     C_3   0.447794 0.929106 0.736412 -0.471813
C21   C     C_3   0.447759 0.071145 0.736459 -0.497702
C22   C     C_R   0.421489 0.497810 0.071305 0.215254
C23   C     C_R   0.502826 0.740002 0.500034 0.868103
C24   C     C_R   0.577383 0.512743 0.071906 -0.132640
C25   C     C_R   0.577393 0.512649 0.928136 -0.138933
C26   C     C_R   0.421419 0.498225 0.928831 0.228477
C27   C     C_3   0.351370 0.399163 0.923445 -0.524848
C28   C     C_3   0.351983 0.398248 0.077268 -0.498311
C29   C     C_R   0.673107 0.504063 0.500027 0.886801
C30   C     C_R   0.814632 0.583760 0.402381 0.374151
C31   C     C_R   0.768792 0.512140 0.500555 -0.178823
C32   C     C_R   0.814497 0.443422 0.598923 -0.310831
C33   C     C_R   0.906743 0.440857 0.599127 0.121386
C34   C     C_R   0.953655 0.506860 0.497969 -0.026988
H1    H     H_    0.546471 0.885826 0.285490 0.176872
H2    H     H_    0.382882 0.887898 0.704396 0.203227
H3    H     H_    0.477240 0.887966 0.829851 0.207837
H4    H     H_    0.382815 0.112689 0.704532 0.198303
H5    H     H_    0.477244 0.112073 0.829920 0.206871
H6    H     H_    0.640063 0.521231 0.125581 0.188317
H7    H     H_    0.640083 0.520989 0.874544 0.162382
H8    H     H_    0.287595 0.435379 0.881099 0.202530
H9    H     H_    0.375907 0.310470 0.877446 0.210788
H10   H     H_    0.288495 0.432968 0.122362 0.207322
H11   H     H_    0.777902 0.389724 0.673990 0.170100
H12   H     H_    0.377700 0.309266 0.121283 0.214984
H13   H     H_    0.916728 0.321079 0.775805 0.146251
H14   H     H_    0.080264 0.316367 0.775424 0.146844
H15   H     H_    0.221316 0.379724 0.673479 0.143676
H16   H     H_    0.224020 0.616405 0.320462 0.152180
H17   H     H_    0.084821 0.687841 0.219312 0.152496
H18   H     H_    0.922331 0.696745 0.221191 0.200232
H19   H     H_    0.546157 0.113712 0.285415 0.173908
N1    N     N_R   0.499390 0.499140 0.142800 -0.113660
N2    N     N_R   0.499390 0.499180 0.857150 -0.110823
O1    O     O_R   0.500010 0.316790 0.614690 -0.616437
O2    O     O_R   0.500000 0.316760 0.385350 -0.621818
O3    O     O_R   0.367850 0.499990 0.614680 -0.621416
O4    O     O_R   0.367840 0.499950 0.385340 -0.622541
O5    O     O_R   0.500000 0.683240 0.614650 -0.614053
O6    O     O_R   0.499990 0.683210 0.385310 -0.626012
O7    O     O_R   0.632160 0.500050 0.614660 -0.629621
O8    O     O_R   0.632150 0.500010 0.385320 -0.613510
Zn1   Zn    Zn3+2 0.500010 0.500020 0.653130 0.943375
Zn2   Zn    Zn3+2 0.499990 0.499980 0.346870 0.947350
O9    O     O_3   0.770889 0.661320 0.311546 -0.790192
H20   H     H_    0.715237 0.692780 0.354043 0.335771

loop_
_geom_bond_atom_site_label_1
_geom_bond_atom_site_label_2
_ccdc_geom_bond_type
C7    C13   A    
C11   C12   S    
O1    Zn1   S    
C24   C25   A    
C6    C7    A    
C1    C15   S    
C1    O2    A    
C10   H15   S    
C32   H11   S    
C19   C20   S    
C21   H5    S    
O5    Zn1   S    
C2    C30   A    
C12   O3    A    
N2    Zn1   S    
C2    C34   A    
O8    Zn2   S    
O9    H20   S    
C32   C33   A    
C5    C10   A    
C22   N1    A    
N1    Zn2   S    
C22   C28   S    
C4    C5    A    
O4    Zn2   S    
C29   C31   S    
C20   H3    S    
C11   C13   A    
C27   H8    S    
C28   H12   S    
C26   C27   S    
C5    C6    A    
C9    H18   S    
C18   C23   S    
C15   C16   A    
C14   C21   S    
C3    H13   S    
C29   O8    A    
C30   O9    S    
C26   N2    A    
C28   H10   S    
C33   C34   A    
C12   O4    A    
C23   O5    A    
O3    Zn1   S    
C30   C31   A    
C7    C8    A    
C10   C11   A    
C3    C33   A    
C24   N1    A    
C13   H16   S    
C20   H2    S    
O6    Zn2   S    
C23   O6    A    
C4    H14   S    
C20   C21   S    
C6    C34   A    
C17   C18   A    
C18   C19   A    
C22   C26   A    
C8    H17   S    
C27   C28   S    
C27   H9    S    
C29   O7    A    
C25   H7    S    
O7    Zn1   S    
C14   C15   A    
C17   H1    S    
C24   H6    S    
C16   H19   S    
C2    C9    A    
C14   C19   A    
C1    O1    A    
C31   C32   A    
C21   H4    S    
C3    C4    A    
C25   N2    A    
C16   C17   A    
O2    Zn2   S    
C8    C9    A    
