data_mof_unit_11290.cif
_audit_creation_date              2012-12-11T14:52:50-0500
_audit_creation_method            fapswitch 2.2
_symmetry_space_group_name_H-M    P1
_symmetry_Int_Tables_number       1
_space_group_crystal_system       triclinic
_cell_length_a                    20.536271
_cell_length_b                    7.226314
_cell_length_c                    20.454485
_cell_angle_alpha                 90.000106
_cell_angle_beta                  101.138171
_cell_angle_gamma                 89.999857
_cell_volume                      2978.30144597

loop_
_atom_site_label
_atom_site_type_symbol
_atom_type_description
_atom_site_fract_x
_atom_site_fract_y
_atom_site_fract_z
_atom_type_partial_charge
O1    O     O_R   0.673670 0.377510 0.185950 -0.528671
O2    O     O_R   0.326330 0.622490 0.814050 -0.534015
O3    O     O_R   0.826330 0.877510 0.314050 -0.528672
O4    O     O_R   0.173670 0.122490 0.685950 -0.534017
O5    O     O_R   0.806260 0.705340 0.185590 -0.543190
O6    O     O_R   0.193740 0.294660 0.814410 -0.545054
O7    O     O_R   0.693740 0.205340 0.314410 -0.543190
O8    O     O_R   0.306260 0.794660 0.685590 -0.545053
C1    C     C_R   0.825677 0.538646 0.170805 0.732160
C2    C     C_R   0.173640 0.461287 0.828504 0.740541
C3    C     C_R   0.674323 0.038647 0.329195 0.732156
C4    C     C_R   0.326360 0.961286 0.671496 0.740555
O9    O     O_R   0.672940 0.707120 0.178050 -0.539005
O10   O     O_R   0.327060 0.292880 0.821950 -0.542992
O11   O     O_R   0.827060 0.207120 0.321950 -0.539004
O12   O     O_R   0.172940 0.792880 0.678050 -0.542989
O13   O     O_R   0.692060 0.879040 0.306460 -0.524171
O14   O     O_R   0.307940 0.120960 0.693540 -0.521859
O15   O     O_R   0.807940 0.379040 0.193540 -0.524169
O16   O     O_R   0.192060 0.620960 0.806460 -0.521858
C5    C     C_R   0.649236 0.538895 0.160833 0.692562
C6    C     C_R   0.350280 0.461443 0.839577 0.715051
C7    C     C_R   0.850764 0.038895 0.339168 0.692560
C8    C     C_R   0.149719 0.961443 0.660423 0.715059
O17   O     O_3   0.756430 0.544390 0.292140 -0.370856
O18   O     O_3   0.243570 0.455610 0.707860 -0.380761
O19   O     O_3   0.743570 0.044390 0.207860 -0.370854
O20   O     O_3   0.256430 0.955610 0.792140 -0.380760
V1    V     V_3+5 0.748810 0.818610 0.242180 1.465677
V2    V     V_3+5 0.251190 0.181390 0.757820 1.432898
V3    V     V_3+5 0.751190 0.318610 0.257820 1.465680
V4    V     V_3+5 0.248810 0.681390 0.742180 1.432905
C9    C     C_R   0.088469 0.969348 0.607455 -0.149843
C10   C     C_R   0.912675 0.035604 0.391495 -0.150760
C11   C     C_R   0.411531 0.469345 0.892546 -0.149846
C12   C     C_R   0.587325 0.535605 0.108505 -0.150758
C13   C     C_R   0.025885 0.150858 0.430972 -0.054328
C14   C     C_R   0.970935 0.895374 0.571358 -0.047482
C15   C     C_R   0.474117 0.650879 0.069025 -0.054331
C16   C     C_R   0.529063 0.395350 0.928644 -0.047488
C17   C     C_R   0.967297 0.141610 0.381729 -0.102030
C18   C     C_R   0.029539 0.892596 0.620386 -0.102923
C19   C     C_R   0.532704 0.641620 0.118270 -0.102029
C20   C     C_R   0.470458 0.392567 0.879618 -0.102923
C21   C     C_R   0.916276 0.936599 0.451679 -0.077576
C22   C     C_R   0.088581 0.058620 0.545791 -0.067641
C23   C     C_R   0.583724 0.436595 0.048323 -0.077573
C24   C     C_R   0.411421 0.558638 0.954206 -0.067645
C25   C     C_R   0.972050 0.961509 0.505571 0.029516
C26   C     C_R   0.029825 0.058429 0.493921 0.038106
C27   C     C_R   0.527951 0.461503 0.994429 0.029518
C28   C     C_R   0.470177 0.558440 0.006077 0.038102
C29   C     C_3   0.549563 0.121266 0.525164 0.011208
C30   C     C_3   0.454894 0.879663 0.479304 0.008099
C31   C     C_3   0.950436 0.621259 0.974835 0.011204
C32   C     C_3   0.045110 0.379674 0.020701 0.008096
C33   C     C_3   0.535065 0.945158 0.562753 -0.158444
C34   C     C_3   0.469375 0.055719 0.441771 -0.163013
C35   C     C_3   0.964938 0.445147 0.937249 -0.158445
C36   C     C_3   0.030625 0.555733 0.058229 -0.163014
H1    H     H_    0.562183 0.901278 0.612649 0.132299
H2    H     H_    0.442251 0.099632 0.391882 0.134435
H3    H     H_    0.937821 0.401257 0.887355 0.132301
H4    H     H_    0.057747 0.599657 0.108118 0.134435
H5    H     H_    0.551697 0.694159 0.492108 0.137034
H6    H     H_    0.452765 0.306737 0.512368 0.134068
H7    H     H_    0.948311 0.194155 0.007900 0.137027
H8    H     H_    0.047230 0.806744 0.987628 0.134066
C37   C     C_1   0.373412 0.969876 0.627203 -0.142314
C38   C     C_1   0.629097 0.030027 0.375335 -0.162096
C39   C     C_1   0.126590 0.469879 0.872799 -0.142328
C40   C     C_1   0.870903 0.530027 0.124665 -0.162095
C41   C     C_3   0.474830 0.168302 0.507541 -0.178359
C42   C     C_3   0.529597 0.832554 0.496944 -0.176390
C43   C     C_3   0.025168 0.668307 0.992458 -0.178352
C44   C     C_3   0.970408 0.332552 0.003060 -0.176388
C45   C     C_3   0.460181 0.990364 0.544113 0.106262
C46   C     C_3   0.544236 0.010461 0.460373 0.108926
C47   C     C_3   0.039821 0.490366 0.955889 0.106264
C48   C     C_3   0.955765 0.510462 0.039628 0.108926
C49   C     C_1   0.412779 0.978601 0.590060 -0.038164
C50   C     C_1   0.590969 0.021674 0.413740 -0.037351
C51   C     C_1   0.087223 0.478603 0.909942 -0.038163
C52   C     C_1   0.909032 0.521674 0.086261 -0.037354
C53   C     C_R   0.152535 0.140920 0.536974 0.081558
C54   C     C_R   0.199217 0.032493 0.512466 -0.166297
C55   C     C_R   0.259204 0.110295 0.503580 -0.132607
C56   C     C_R   0.274175 0.294153 0.521781 -0.084351
C57   C     C_R   0.229070 0.400740 0.548767 -0.066890
C58   C     C_R   0.168547 0.324234 0.556803 -0.061181
H9    H     H_    0.188814 0.888989 0.499602 0.104342
H10   H     H_    0.294298 0.027583 0.483013 0.128984
H11   H     H_    0.320930 0.353415 0.515439 0.132524
H12   H     H_    0.240849 0.542817 0.563180 0.107168
H13   H     H_    0.133763 0.408096 0.577498 0.099036
C59   C     C_R   0.864968 0.792413 0.454437 0.111707
C60   C     C_R   0.882425 0.604239 0.455237 -0.111080
C61   C     C_R   0.835046 0.467502 0.458718 -0.113229
C62   C     C_R   0.769739 0.517234 0.460707 -0.070113
C63   C     C_R   0.751692 0.703875 0.459182 -0.076717
C64   C     C_R   0.798907 0.841281 0.455635 -0.099715
H14   H     H_    0.932769 0.563666 0.453881 0.099169
H15   H     H_    0.849053 0.323048 0.460334 0.103266
H16   H     H_    0.733182 0.411153 0.463590 0.112999
H17   H     H_    0.701190 0.741928 0.461238 0.111515
H18   H     H_    0.784427 0.985488 0.454992 0.066218
C65   C     C_R   0.347472 0.640975 0.963019 0.081561
C66   C     C_R   0.300781 0.532585 0.987529 -0.166308
C67   C     C_R   0.240798 0.610423 0.996408 -0.132584
C68   C     C_R   0.225839 0.794283 0.978201 -0.084351
C69   C     C_R   0.270952 0.900835 0.951215 -0.066880
C70   C     C_R   0.331472 0.824291 0.943184 -0.061164
H19   H     H_    0.311175 0.389080 0.000398 0.104339
H20   H     H_    0.205698 0.527739 0.016976 0.128974
H21   H     H_    0.179087 0.853573 0.984538 0.132526
H22   H     H_    0.259184 0.042913 0.936798 0.107167
H23   H     H_    0.366263 0.908126 0.922487 0.099029
C71   C     C_R   0.635036 0.292418 0.045564 0.111703
C72   C     C_R   0.617586 0.104237 0.044768 -0.111072
C73   C     C_R   0.664968 0.967510 0.041284 -0.113212
C74   C     C_R   0.730272 0.017259 0.039288 -0.070117
C75   C     C_R   0.748313 0.203906 0.040812 -0.076725
C76   C     C_R   0.701094 0.341302 0.044361 -0.099730
H24   H     H_    0.567245 0.063652 0.046128 0.099165
H25   H     H_    0.650965 0.823050 0.039670 0.103258
H26   H     H_    0.766831 0.911186 0.036403 0.113008
H27   H     H_    0.798812 0.241970 0.038751 0.111517
H28   H     H_    0.715571 0.485514 0.045002 0.066221
C77   C     C_1   0.028372 0.820441 0.686533 0.299975
N1    N     N_1   0.027486 0.763061 0.739188 -0.359468
C78   C     C_1   0.964499 0.236129 0.318315 0.322458
N2    N     N_1   0.962513 0.311260 0.267999 -0.360866
C79   C     C_1   0.471622 0.320378 0.813475 0.299984
N3    N     N_1   0.472505 0.262970 0.760823 -0.359475
C80   C     C_1   0.535502 0.736142 0.181684 0.322456
N4    N     N_1   0.537488 0.811275 0.231999 -0.360868
C81   C     C_R   0.079692 0.268632 0.414281 0.107914
C82   C     C_R   0.124246 0.195342 0.376859 -0.096902
C83   C     C_R   0.170400 0.310573 0.354982 -0.089146
C84   C     C_R   0.170920 0.500300 0.368408 -0.076102
C85   C     C_R   0.125139 0.575086 0.403520 -0.119275
C86   C     C_R   0.079658 0.460004 0.426407 -0.123467
H29   H     H_    0.123092 0.049404 0.364710 0.098426
H30   H     H_    0.205280 0.253092 0.327014 0.111481
H31   H     H_    0.206290 0.589633 0.350985 0.122129
H32   H     H_    0.124370 0.722370 0.412438 0.103413
H33   H     H_    0.044430 0.519819 0.453361 0.098237
C87   C     C_R   0.907291 0.857847 0.593576 0.113191
C88   C     C_R   0.891484 0.678591 0.612272 -0.101682
C89   C     C_R   0.831705 0.645821 0.633411 -0.089650
C90   C     C_R   0.787769 0.791737 0.636805 -0.076953
C91   C     C_R   0.803682 0.970917 0.619407 -0.130751
C92   C     C_R   0.863359 0.004327 0.598130 -0.131653
H34   H     H_    0.925021 0.564404 0.609521 0.102046
H35   H     H_    0.819328 0.507163 0.646894 0.114902
H36   H     H_    0.741401 0.765980 0.652931 0.120338
H37   H     H_    0.769677 0.083817 0.622165 0.129438
H38   H     H_    0.875135 0.143661 0.584664 0.103464
C93   C     C_R   0.420315 0.768687 0.085711 0.107909
C94   C     C_R   0.375756 0.695438 0.123136 -0.096909
C95   C     C_R   0.329609 0.810705 0.145008 -0.089133
C96   C     C_R   0.329101 0.000428 0.131574 -0.076112
C97   C     C_R   0.374885 0.075172 0.096459 -0.119288
C98   C     C_R   0.420359 0.960054 0.073577 -0.123457
H39   H     H_    0.376902 0.549504 0.135292 0.098429
H40   H     H_    0.294726 0.753257 0.172978 0.111482
H41   H     H_    0.293735 0.089789 0.148993 0.122127
H42   H     H_    0.375663 0.222453 0.087534 0.103422
H43   H     H_    0.455589 0.019836 0.046617 0.098235
C99   C     C_R   0.592705 0.357810 0.906424 0.113192
C100  C     C_R   0.608511 0.178546 0.887734 -0.101683
C101  C     C_R   0.668285 0.145765 0.866587 -0.089651
C102  C     C_R   0.712218 0.291683 0.863178 -0.076947
C103  C     C_R   0.696307 0.470870 0.880572 -0.130740
C104  C     C_R   0.636635 0.504289 0.901858 -0.131647
H44   H     H_    0.574975 0.064360 0.890494 0.102042
H45   H     H_    0.680660 0.007100 0.853108 0.114897
H46   H     H_    0.758581 0.265919 0.847046 0.120339
H47   H     H_    0.730310 0.583771 0.877804 0.129431
H48   H     H_    0.624861 0.643630 0.915321 0.103461
C105  C     C_1   0.602073 0.255399 0.550374 0.274932
N5    N     N_1   0.643496 0.361192 0.570186 -0.393632
C106  C     C_1   0.402377 0.745992 0.453696 0.267448
N6    N     N_1   0.360904 0.640767 0.433460 -0.396125
C107  C     C_1   0.897923 0.755380 0.949621 0.274937
N7    N     N_1   0.856497 0.861164 0.929807 -0.393626
C108  C     C_1   0.097630 0.246012 0.046312 0.267456
N8    N     N_1   0.139105 0.140794 0.066550 -0.396120

loop_
_geom_bond_atom_site_label_1
_geom_bond_atom_site_label_2
_ccdc_geom_bond_type
C101  H45   S    
O17   V3    S    
C91   H37   S    
C100  C101  A    
O1    C5    A    
C32   C44   S    
C31   C35   S    
O19   V1    S    
O13   V1    S    
C65   C70   A    
C75   H27   S    
O3    C7    A    
C97   C98   A    
C1    C40   S    
C81   C86   A    
O15   V3    S    
C103  H47   S    
C16   C99   S    
C60   C61   A    
C107  N7    T    
C3    C38   S    
C88   C89   A    
C58   H13   S    
C5    C12   S    
C53   C54   A    
C101  C102  A    
H8    C43   S    
O7    C3    A    
C6    C11   S    
C63   H17   S    
C32   C47   S    
C9    C18   A    
O9    V1    S    
C14   C18   A    
C24   C28   A    
C56   C57   A    
C82   H29   S    
C30   C34   S    
C70   H23   S    
O4    C8    A    
C24   C65   S    
C99   C100  A    
C61   H15   S    
O1    V3    S    
C66   C67   A    
C12   C23   A    
O2    V4    S    
C92   H38   S    
O3    V1    S    
C71   C72   A    
C30   C42   S    
C85   C86   A    
C1    O15   A    
C23   C71   S    
C36   C48   S    
C69   C70   A    
C2    O16   A    
O2    C6    A    
C65   C66   A    
C69   H22   S    
O14   V2    S    
C45   C49   S    
C67   C68   A    
O5    V1    S    
C60   H14   S    
C48   C52   S    
C30   C45   S    
C31   C43   S    
C2    C39   S    
O11   C7    A    
C62   H16   S    
C90   C91   A    
O12   C8    A    
C13   C81   S    
C55   H10   S    
C9    C22   A    
C20   C79   S    
C98   H43   S    
C10   C17   A    
O10   V2    S    
C11   C24   A    
C95   C96   A    
C39   C51   T    
C99   C104  A    
C53   C58   A    
O7    V3    S    
C27   C28   A    
O8    V4    S    
C33   C45   S    
C80   N4    T    
C84   C85   A    
C82   C83   A    
C35   C47   S    
C13   C26   A    
C17   C78   S    
C29   C33   S    
C73   H25   S    
C15   C19   A    
C105  N5    T    
H6    C41   S    
O11   V3    S    
H5    C42   S    
C68   C69   A    
C66   H19   S    
C100  H44   S    
C88   H34   S    
C106  N6    T    
O5    C1    A    
C29   C105  S    
C83   H30   S    
C46   C50   S    
C93   C94   A    
C32   C108  S    
C21   C25   A    
O8    C4    A    
C7    C10   S    
C59   C60   A    
O9    C5    A    
C10   C21   A    
C90   H36   S    
C87   C88   A    
C72   C73   A    
C19   C80   S    
C11   C20   A    
C14   C87   S    
C74   C75   A    
C40   C52   T    
C34   H2    S    
C85   H32   S    
O6    V2    S    
C4    C37   S    
C61   C62   A    
C89   H35   S    
C79   N3    T    
C87   C92   A    
C78   N2    T    
C57   C58   A    
C14   C25   A    
C73   C74   A    
C96   C97   A    
O16   V4    S    
C64   H18   S    
C56   H11   S    
C3    O13   A    
C15   C93   S    
C54   C55   A    
C86   H33   S    
C29   C41   S    
C44   C48   S    
C84   H31   S    
C57   H12   S    
C23   C27   A    
C83   C84   A    
C30   C106  S    
C33   H1    S    
C104  H48   S    
O18   V4    S    
O12   V4    S    
C16   C27   A    
C81   C82   A    
C22   C26   A    
C36   C43   S    
C35   H3    S    
C8    C9    S    
C89   C90   A    
C33   C42   S    
C36   H4    S    
C54   H9    S    
C94   C95   A    
C22   C53   S    
C94   H39   S    
C29   C46   S    
C77   N1    T    
C97   H42   S    
C74   H26   S    
C62   C63   A    
C47   C51   S    
C31   C48   S    
O10   C6    A    
C76   H28   S    
C102  H46   S    
C67   H20   S    
C68   H21   S    
O20   V2    S    
C63   C64   A    
C15   C28   A    
C18   C77   S    
C72   H24   S    
C71   C76   A    
C31   C107  S    
C13   C17   A    
C38   C50   T    
C37   C49   T    
O6    C2    A    
C34   C46   S    
C95   H40   S    
C102  C103  A    
C96   H41   S    
C32   C36   S    
C16   C20   A    
C91   C92   A    
C55   C56   A    
C25   C26   A    
C42   C46   S    
C4    O14   A    
C41   C45   S    
C93   C98   A    
C12   C19   A    
C108  N8    T    
H7    C44   S    
C75   C76   A    
C59   C64   A    
C21   C59   S    
C43   C47   S    
C35   C44   S    
O4    V2    S    
C34   C41   S    
C103  C104  A    
