data_mof_unit_7422.cif
_audit_creation_date              2012-12-11T15:47:01-0500
_audit_creation_method            fapswitch 2.2
_symmetry_space_group_name_H-M    P1
_symmetry_Int_Tables_number       1
_space_group_crystal_system       triclinic
_cell_length_a                    20.107924
_cell_length_b                    7.246114
_cell_length_c                    13.640545
_cell_angle_alpha                 89.674528
_cell_angle_beta                  102.876351
_cell_angle_gamma                 90.381088
_cell_volume                      1937.44656549

loop_
_atom_site_label
_atom_site_type_symbol
_atom_type_description
_atom_site_fract_x
_atom_site_fract_y
_atom_site_fract_z
_atom_type_partial_charge
O1    O     O_R   0.449560 0.506810 0.599700 -0.534660
O2    O     O_R   0.550440 0.006810 0.400300 -0.533590
O3    O     O_R   0.587960 0.180060 0.595760 -0.544756
O4    O     O_R   0.412040 0.680060 0.404240 -0.547303
C1    C     C_R   0.614182 0.345419 0.619803 0.687879
C2    C     C_R   0.385873 0.845386 0.380106 0.680749
O5    O     O_R   0.452380 0.177430 0.611700 -0.539265
O6    O     O_R   0.547620 0.677430 0.388300 -0.540284
O7    O     O_R   0.413900 0.001890 0.416350 -0.538862
O8    O     O_R   0.586100 0.501890 0.583650 -0.537601
C3    C     C_R   0.436372 0.344860 0.637514 0.683948
C4    C     C_R   0.563311 0.846456 0.362196 0.678228
O9    O     O_3   0.487530 0.337490 0.435890 -0.382122
O10   O     O_3   0.512470 0.837490 0.564110 -0.384731
V1    V     V_3+5 0.502310 0.064660 0.511890 1.388974
V2    V     V_3+5 0.497690 0.564660 0.488110 1.382949
C5    C     C_R   0.609701 0.905085 0.112548 -0.165204
C6    C     C_R   0.388986 0.301831 0.886939 -0.173552
H1    H     H_    0.515961 0.899286 0.162518 0.100049
H2    H     H_    0.482674 0.293504 0.836953 0.101170
H3    H     H_    0.693370 0.932005 0.987935 0.121790
H4    H     H_    0.304687 0.285106 0.010943 0.130936
H5    H     H_    0.583784 0.930059 0.035236 0.116899
H6    H     H_    0.414414 0.274655 0.964226 0.124015
C7    C     C_R   0.603079 0.857463 0.285149 -0.022003
C8    C     C_R   0.396550 0.348335 0.714632 -0.024161
C9    C     C_R   0.931630 0.827537 0.315138 0.608757
C10   C     C_R   0.067843 0.391097 0.683151 0.608939
C11   C     C_R   0.895704 0.811314 0.390723 -0.150449
C12   C     C_R   0.103856 0.400698 0.607356 -0.149591
C13   C     C_R   0.824787 0.822267 0.368139 -0.257421
C14   C     C_R   0.174745 0.387716 0.630151 -0.256831
C15   C     C_R   0.787524 0.850318 0.268035 0.080034
C16   C     C_R   0.211822 0.363500 0.730607 0.079129
C17   C     C_R   0.824685 0.868216 0.190848 -0.010680
C18   C     C_R   0.174445 0.349749 0.807786 -0.008792
C19   C     C_R   0.714775 0.861148 0.241957 0.097017
C20   C     C_R   0.284587 0.352032 0.757115 0.099542
C21   C     C_R   0.681073 0.891554 0.139871 0.139548
C22   C     C_R   0.317837 0.320969 0.859291 0.141945
C23   C     C_R   0.718684 0.908814 0.065807 -0.205498
C24   C     C_R   0.279925 0.307582 0.933090 -0.214769
C25   C     C_R   0.789261 0.896794 0.090605 -0.165540
C26   C     C_R   0.209575 0.323092 0.908181 -0.161408
C27   C     C_R   0.674038 0.843635 0.313646 -0.207285
C28   C     C_R   0.325752 0.368643 0.685868 -0.210413
C29   C     C_R   0.570937 0.888153 0.184829 -0.179401
C30   C     C_R   0.428011 0.313353 0.814811 -0.173904
C31   C     C_R   0.896790 0.856250 0.215466 -0.203765
C32   C     C_R   0.102472 0.365144 0.783204 -0.204578
H7    H     H_    0.695550 0.820671 0.392396 0.097122
H8    H     H_    0.304559 0.393231 0.607153 0.097565
H9    H     H_    0.800938 0.808186 0.431038 0.145188
H10   H     H_    0.198768 0.396607 0.567192 0.144549
H11   H     H_    0.923021 0.789380 0.467743 0.177161
H12   H     H_    0.076651 0.419937 0.530055 0.175883
H13   H     H_    0.815856 0.910785 0.030108 0.108073
H14   H     H_    0.182936 0.312589 0.968752 0.107680
C33   C     C_R   0.227520 0.014637 0.188143 -0.168633
C34   C     C_R   0.771534 0.509087 0.815967 -0.164230
H15   H     H_    0.209249 0.135914 0.143680 0.109862
H16   H     H_    0.788712 0.626032 0.864429 0.112457
C35   C     C_R   0.294139 0.015207 0.248921 0.084635
C36   C     C_R   0.704836 0.508610 0.755489 0.084980
C37   C     C_R   0.317954 0.855043 0.307907 -0.059430
C38   C     C_R   0.682320 0.354367 0.691578 -0.065635
C39   C     C_R   0.274825 0.698748 0.298548 -0.185077
C40   C     C_R   0.726616 0.202800 0.696210 -0.183167
H17   H     H_    0.291166 0.574449 0.341395 0.123266
H18   H     H_    0.711076 0.082494 0.649749 0.126173
C41   C     C_R   0.209476 0.700419 0.235997 -0.138307
C42   C     C_R   0.791926 0.204259 0.759019 -0.141856
H19   H     H_    0.177865 0.577858 0.231931 0.134278
H20   H     H_    0.824497 0.085595 0.759673 0.134581
C43   C     C_R   0.184623 0.859454 0.181525 -0.047746
C44   C     C_R   0.815550 0.358752 0.818135 -0.049746
O11   O     O_R   0.913920 0.203370 0.916260 -0.545557
O12   O     O_R   0.086080 0.703370 0.083740 -0.542270
O13   O     O_R   0.047620 0.535540 0.888290 -0.534171
O14   O     O_R   0.952380 0.035540 0.111710 -0.538920
C45   C     C_R   0.063204 0.369038 0.861705 0.769474
C46   C     C_R   0.936418 0.867493 0.137704 0.770923
O15   O     O_R   0.912040 0.532780 0.904220 -0.542383
O16   O     O_R   0.087960 0.032780 0.095780 -0.546007
O17   O     O_R   0.949550 0.708160 0.099720 -0.537507
O18   O     O_R   0.050450 0.208160 0.900280 -0.542166
C47   C     C_R   0.885332 0.364607 0.883694 0.708298
C48   C     C_R   0.114732 0.864948 0.116171 0.710003
O19   O     O_3   0.012480 0.375300 0.064060 -0.382014
O20   O     O_3   0.987520 0.875300 0.935940 -0.382700
V3    V     V_3+5 0.997690 0.648180 0.988110 1.474305
V4    V     V_3+5 0.002310 0.148180 0.011890 1.457354
C49   C     C_3   0.337142 0.187917 0.245321 -0.351286
C50   C     C_3   0.397264 0.151126 0.195654 -0.305406
C51   C     C_3   0.434027 0.330043 0.179074 -0.744746
H21   H     H_    0.452661 0.403495 0.251008 0.258122
H22   H     H_    0.478462 0.297955 0.146364 0.209139
H23   H     H_    0.399257 0.423268 0.126829 0.208249
H24   H     H_    0.434564 0.057635 0.243074 0.195743
H25   H     H_    0.378545 0.082405 0.121959 0.177861
H26   H     H_    0.305421 0.298150 0.201153 0.156949
H27   H     H_    0.354781 0.247474 0.321404 0.195793
C52   C     C_3   0.659230 0.669971 0.766823 -0.357192
C53   C     C_3   0.603673 0.610614 0.821816 -0.296170
C54   C     C_3   0.554963 0.768463 0.828206 -0.736606
H28   H     H_    0.523551 0.801294 0.752654 0.254681
H29   H     H_    0.520223 0.727048 0.877451 0.210392
H30   H     H_    0.583666 0.894056 0.859556 0.203967
H31   H     H_    0.573567 0.492932 0.782807 0.175644
H32   H     H_    0.628270 0.565122 0.899351 0.192320
H33   H     H_    0.689751 0.781815 0.811558 0.152826
H34   H     H_    0.637323 0.734973 0.693169 0.203348
F1    F     F_    0.000727 0.814812 0.339132 -0.692059
F2    F     F_    0.998884 0.408050 0.659006 -0.691933

loop_
_geom_bond_atom_site_label_1
_geom_bond_atom_site_label_2
_ccdc_geom_bond_type
C36   C52   S    
O15   C47   A    
C35   C37   A    
O11   V4    S    
O4    V2    S    
C49   C50   S    
C7    C27   A    
C9    C11   A    
C38   C40   A    
C51   H21   S    
O1    C3    A    
C42   C44   A    
O2    C4    A    
C2    O7    A    
O17   V3    S    
C51   H23   S    
C18   C32   A    
C21   C23   A    
O5    C3    A    
C54   H29   S    
C5    H5    S    
C6    H6    S    
C52   H33   S    
C53   H31   S    
H1    C29   S    
C39   C41   A    
C27   H7    S    
C28   H8    S    
C34   H16   S    
C5    C21   A    
C6    C22   A    
C10   C32   A    
C2    C37   S    
C26   H14   S    
C37   C39   A    
C17   C31   A    
C13   C15   A    
C12   C14   A    
C17   C25   A    
C7    C29   A    
O13   V3    S    
C45   O18   A    
C8    C30   A    
C22   C24   A    
O6    V2    S    
C23   C25   A    
C24   C26   A    
C14   H10   S    
C53   C54   S    
C54   H30   S    
C41   C43   A    
C33   H15   S    
C5    C29   A    
C42   H20   S    
C49   H26   S    
C41   H19   S    
C25   H13   S    
C11   H11   S    
C3    C8    S    
C12   H12   S    
C34   C44   A    
C15   C19   A    
C40   C42   A    
C39   H17   S    
C36   C38   A    
C31   C46   S    
O14   V4    S    
C50   H25   S    
O6    C4    A    
O1    V2    S    
C13   H9    S    
O19   V4    S    
O2    V1    S    
C44   C47   S    
H2    C30   S    
C10   F2    S    
H3    C23   S    
C9    F1    S    
O4    C2    A    
C18   C26   A    
C19   C27   A    
C33   C43   A    
O3    V1    S    
C53   H32   S    
O13   C45   A    
O12   C48   A    
C16   C20   A    
O16   C48   A    
C1    C38   S    
O3    C1    A    
C6    C30   A    
C49   H27   S    
C51   H22   S    
O12   V3    S    
C46   O17   A    
O15   V3    S    
C54   H28   S    
C35   C49   S    
C33   C35   A    
C4    C7    S    
C34   C36   A    
C10   C12   A    
O7    V1    S    
C1    O8    A    
C19   C21   A    
O8    V2    S    
C20   C22   A    
O20   V3    S    
H4    C24   S    
C50   H24   S    
O5    V1    S    
C15   C17   A    
O14   C46   A    
C16   C18   A    
C50   C51   S    
C20   C28   A    
C8    C28   A    
C43   C48   S    
O11   C47   A    
C11   C13   A    
O9    V2    S    
C52   C53   S    
C40   H18   S    
O10   V1    S    
C52   H34   S    
O18   V4    S    
O16   V4    S    
C9    C31   A    
C32   C45   S    
C14   C16   A    
