data_mof_unit_7376.cif
_audit_creation_date              2012-12-11T15:22:37-0500
_audit_creation_method            fapswitch 2.2
_symmetry_space_group_name_H-M    P1
_symmetry_Int_Tables_number       1
_space_group_crystal_system       triclinic
_cell_length_a                    23.045069
_cell_length_b                    7.227783
_cell_length_c                    20.560143
_cell_angle_alpha                 89.999697
_cell_angle_beta                  93.149543
_cell_angle_gamma                 89.999968
_cell_volume                      3419.42251338

loop_
_atom_site_label
_atom_site_type_symbol
_atom_type_description
_atom_site_fract_x
_atom_site_fract_y
_atom_site_fract_z
_atom_type_partial_charge
O1    O     O_R   0.438030 0.494310 0.439340 -0.541490
O2    O     O_R   0.561970 0.994310 0.560660 -0.541492
O3    O     O_R   0.556900 0.822900 0.435960 -0.545422
O4    O     O_R   0.443100 0.322900 0.564040 -0.545417
C1    C     C_R   0.575707 0.655703 0.420991 0.705579
C2    C     C_R   0.424294 0.155702 0.579009 0.705581
O5    O     O_R   0.438170 0.823950 0.431660 -0.511220
O6    O     O_R   0.561830 0.323950 0.568340 -0.511216
O7    O     O_R   0.442390 0.995390 0.556340 -0.530846
O8    O     O_R   0.557610 0.495390 0.443660 -0.530851
C3    C     C_R   0.418631 0.655591 0.415191 0.718916
C4    C     C_R   0.581368 0.155590 0.584810 0.718925
O9    O     O_3   0.501520 0.661170 0.540910 -0.372312
O10   O     O_3   0.498480 0.161170 0.459090 -0.372328
V1    V     V_3+5 0.499720 0.935580 0.492410 1.445126
V2    V     V_3+5 0.500280 0.435580 0.507590 1.445147
C5    C     C_R   0.834958 0.246204 0.861544 -0.201088
C6    C     C_R   0.165043 0.746199 0.138453 -0.201069
C7    C     C_R   0.869354 0.085388 0.865692 -0.117312
C8    C     C_R   0.130647 0.585385 0.134307 -0.117333
C9    C     C_R   0.856573 0.939113 0.822032 -0.184582
C10   C     C_R   0.143427 0.439110 0.177968 -0.184576
C11   C     C_R   0.809938 0.952815 0.775141 0.137606
C12   C     C_R   0.190062 0.452813 0.224858 0.137586
C13   C     C_R   0.774603 0.112756 0.772810 0.004621
C14   C     C_R   0.225396 0.612756 0.227190 0.004618
C15   C     C_R   0.787545 0.260937 0.815895 0.003859
C16   C     C_R   0.212455 0.760935 0.184103 0.003894
C17   C     C_R   0.798027 0.809360 0.730398 -0.128778
C18   C     C_R   0.201975 0.309354 0.269601 -0.128801
C19   C     C_R   0.750819 0.821812 0.684853 -0.185382
C20   C     C_R   0.249183 0.321808 0.315145 -0.185385
C21   C     C_R   0.714583 0.978063 0.683129 0.102376
C22   C     C_R   0.285417 0.478062 0.316870 0.102370
C23   C     C_R   0.726564 0.124807 0.727020 -0.002403
C24   C     C_R   0.273434 0.624810 0.272981 -0.002404
C25   C     C_R   0.690832 0.283625 0.725057 -0.068249
C26   C     C_R   0.309163 0.783635 0.274947 -0.068226
C27   C     C_R   0.705589 0.432619 0.766846 -0.268660
C28   C     C_R   0.294406 0.932627 0.233156 -0.268708
C29   C     C_R   0.752929 0.421520 0.812536 0.374548
C30   C     C_R   0.247069 0.921520 0.187462 0.374554
C31   C     C_R   0.667201 0.990546 0.637533 -0.280380
C32   C     C_R   0.332799 0.490544 0.362465 -0.280380
C33   C     C_R   0.630460 0.146464 0.635303 -0.165419
C34   C     C_R   0.369538 0.646469 0.364699 -0.165416
C35   C     C_R   0.641139 0.291058 0.681160 0.400319
C36   C     C_R   0.358853 0.791075 0.318847 0.400304
H1    H     H_    0.844537 0.359306 0.895006 0.166455
H2    H     H_    0.155466 0.859297 0.104988 0.166478
H3    H     H_    0.883172 0.815338 0.824084 0.138042
H4    H     H_    0.116829 0.315335 0.175916 0.138049
H5    H     H_    0.825017 0.686546 0.730932 0.130536
H6    H     H_    0.174986 0.186539 0.269065 0.130538
H7    H     H_    0.742420 0.708322 0.651186 0.125906
H8    H     H_    0.257583 0.208314 0.348811 0.125917
H9    H     H_    0.659335 0.878604 0.603061 0.157928
H10   H     H_    0.340668 0.378595 0.396934 0.157940
H11   H     H_    0.680899 0.560080 0.763922 0.171099
H12   H     H_    0.319093 0.060092 0.236083 0.171075
C37   C     C_3   0.235805 0.293873 0.793860 -0.331835
C38   C     C_3   0.764204 0.793874 0.206148 -0.331834
C39   C     C_3   0.253626 0.951363 0.805345 -0.334409
C40   C     C_3   0.746376 0.451366 0.194659 -0.334426
C41   C     C_3   0.303484 0.965520 0.757502 -0.328303
C42   C     C_3   0.696518 0.465525 0.242501 -0.328284
H13   H     H_    0.328556 0.328588 0.778720 0.153546
H14   H     H_    0.671453 0.828595 0.221283 0.153534
H15   H     H_    0.251752 0.322514 0.844901 0.149149
H16   H     H_    0.748258 0.822526 0.155107 0.149161
H17   H     H_    0.234009 0.810733 0.802031 0.134738
H18   H     H_    0.765992 0.310733 0.197971 0.134741
H19   H     H_    0.271846 0.969399 0.856187 0.140269
H20   H     H_    0.728157 0.469408 0.143817 0.140265
H21   H     H_    0.345224 0.990704 0.785980 0.141083
H22   H     H_    0.654779 0.490716 0.214024 0.141096
H23   H     H_    0.308951 0.831950 0.732008 0.141751
H24   H     H_    0.691050 0.331954 0.267995 0.141750
C43   C     C_1   0.378916 0.147648 0.624993 -0.165163
C44   C     C_1   0.621087 0.647650 0.375009 -0.165161
C45   C     C_3   0.206396 0.100200 0.789593 0.273441
C46   C     C_3   0.793609 0.600196 0.210412 0.273441
C47   C     C_3   0.287628 0.305738 0.748587 -0.369961
C48   C     C_3   0.712379 0.805740 0.251419 -0.369971
C49   C     C_3   0.292037 0.125599 0.707966 0.250455
C50   C     C_3   0.707967 0.625599 0.292038 0.250457
C51   C     C_3   0.231704 0.098520 0.669865 -0.091262
C52   C     C_3   0.768299 0.598509 0.330140 -0.091263
C53   C     C_3   0.182513 0.067803 0.718331 -0.357752
C54   C     C_3   0.817491 0.567788 0.281674 -0.357745
C55   C     C_1   0.340337 0.139577 0.662820 -0.088474
C56   C     C_1   0.659667 0.639579 0.337184 -0.088487
C57   C     C_1   0.159084 0.088929 0.836098 -0.087497
C58   C     C_1   0.840919 0.588925 0.163907 -0.087524
C59   C     C_1   0.120897 0.082038 0.874575 -0.179701
C60   C     C_1   0.879106 0.582035 0.125428 -0.179686
H25   H     H_    0.146193 0.165752 0.706368 0.132251
H26   H     H_    0.853812 0.665730 0.293638 0.132251
H27   H     H_    0.163670 0.926587 0.713806 0.140686
H28   H     H_    0.836331 0.426568 0.286198 0.140685
H29   H     H_    0.221184 0.233319 0.646022 0.095607
H30   H     H_    0.778822 0.733305 0.353984 0.095609
H31   H     H_    0.203363 0.402789 0.779757 0.137950
H32   H     H_    0.796646 0.902782 0.220253 0.137953
H33   H     H_    0.281884 0.427532 0.715815 0.136333
H34   H     H_    0.718123 0.927531 0.284192 0.136334
O11   O     O_R   0.942420 0.735670 0.056390 -0.531329
O12   O     O_R   0.057580 0.235670 0.943610 -0.531330
O13   O     O_R   0.061840 0.404850 0.068350 -0.540781
O14   O     O_R   0.938160 0.904850 0.931650 -0.540787
C61   C     C_R   0.081445 0.573619 0.084512 0.698493
C62   C     C_R   0.918555 0.073620 0.915488 0.698477
O15   O     O_R   0.943100 0.406010 0.064050 -0.536612
O16   O     O_R   0.056900 0.906010 0.935950 -0.536608
O17   O     O_R   0.938020 0.234710 0.939330 -0.538247
O18   O     O_R   0.061980 0.734710 0.060670 -0.538250
C63   C     C_R   0.924354 0.574251 0.079039 0.714909
C64   C     C_R   0.075647 0.074251 0.920961 0.714893
O19   O     O_3   0.998500 0.567790 0.959120 -0.374208
O20   O     O_3   0.001500 0.067790 0.040880 -0.374207
V3    V     V_3+5 0.000280 0.293330 0.007580 1.404143
V4    V     V_3+5 0.999720 0.793330 0.992420 1.404140
C65   C     C_R   0.232659 0.955536 0.615189 0.118280
C66   C     C_R   0.236632 0.016497 0.550389 -0.139281
C67   C     C_R   0.242014 0.889655 0.499750 -0.106023
C68   C     C_R   0.243367 0.700362 0.512927 -0.094215
C69   C     C_R   0.238881 0.637762 0.576674 -0.125428
C70   C     C_R   0.233263 0.763871 0.627568 -0.124476
H35   H     H_    0.236865 0.162766 0.539045 0.088951
H36   H     H_    0.245671 0.938319 0.450336 0.106715
H37   H     H_    0.247929 0.602175 0.473768 0.109472
H38   H     H_    0.240137 0.491226 0.586605 0.094495
H39   H     H_    0.229557 0.711056 0.676331 0.093385
C71   C     C_R   0.767342 0.455522 0.384815 0.118281
C72   C     C_R   0.763370 0.516480 0.449615 -0.139282
C73   C     C_R   0.757984 0.389635 0.500253 -0.106024
C74   C     C_R   0.756629 0.200343 0.487076 -0.094216
C75   C     C_R   0.761115 0.137746 0.423328 -0.125429
C76   C     C_R   0.766736 0.263858 0.372436 -0.124475
H40   H     H_    0.763138 0.662748 0.460960 0.088950
H41   H     H_    0.754327 0.438297 0.549667 0.106714
H42   H     H_    0.752065 0.102154 0.526234 0.109472
H43   H     H_    0.759857 0.991210 0.413396 0.094496
H44   H     H_    0.770442 0.211046 0.323672 0.093384
O21   O     O_3   0.603756 0.441526 0.681688 -0.565136
C77   C     C_3   0.568899 0.431662 0.736395 0.052366
H45   H     H_    0.561946 0.575277 0.753605 0.136729
H46   H     H_    0.589479 0.354508 0.778685 0.102591
C78   C     C_3   0.509737 0.346160 0.717170 -0.271339
H47   H     H_    0.487698 0.431161 0.678201 0.214310
H48   H     H_    0.515819 0.203746 0.698427 0.164862
C79   C     C_3   0.471312 0.336997 0.775174 -0.876966
H49   H     H_    0.492822 0.254815 0.815290 0.231056
H50   H     H_    0.429612 0.268983 0.760108 0.233847
H51   H     H_    0.462113 0.478472 0.793032 0.230484
O22   O     O_3   0.396229 0.941565 0.318329 -0.565133
C80   C     C_3   0.431089 0.931742 0.263624 0.052328
H52   H     H_    0.438009 0.075360 0.246398 0.136712
H53   H     H_    0.410531 0.854502 0.221341 0.102586
C81   C     C_3   0.490270 0.846398 0.282864 -0.271220
H54   H     H_    0.512285 0.931478 0.321827 0.214332
H55   H     H_    0.484220 0.703982 0.301619 0.164846
C82   C     C_3   0.528702 0.837292 0.224865 -0.877035
H56   H     H_    0.507220 0.755001 0.184761 0.231057
H57   H     H_    0.570421 0.769420 0.239947 0.233859
H58   H     H_    0.537860 0.978774 0.206986 0.230490
O23   O     O_3   0.769145 0.575721 0.848944 -0.575119
C83   C     C_3   0.733605 0.590327 0.902352 0.059736
H59   H     H_    0.736592 0.462269 0.932642 0.111850
H60   H     H_    0.687488 0.614655 0.885358 0.113998
C84   C     C_3   0.754662 0.754457 0.944186 -0.259248
H61   H     H_    0.801258 0.734708 0.959649 0.194291
H62   H     H_    0.750610 0.883548 0.914859 0.201027
C85   C     C_3   0.719615 0.774912 0.004582 -0.878719
H63   H     H_    0.672876 0.795793 0.990367 0.231746
H64   H     H_    0.735585 0.896778 0.033159 0.227980
H65   H     H_    0.724664 0.649725 0.035703 0.229148
O24   O     O_3   0.230854 0.075706 0.151044 -0.575124
C86   C     C_3   0.266438 0.090411 0.097677 0.059759
H66   H     H_    0.263538 0.962310 0.067405 0.111835
H67   H     H_    0.312530 0.114970 0.114722 0.114026
C87   C     C_3   0.245344 0.254397 0.055793 -0.259278
H68   H     H_    0.198774 0.234385 0.040260 0.194241
H69   H     H_    0.249292 0.383531 0.085107 0.201073
C88   C     C_3   0.280457 0.275001 0.995454 -0.878697
H70   H     H_    0.327169 0.296181 0.009741 0.231747
H71   H     H_    0.264449 0.396740 0.966833 0.227978
H72   H     H_    0.275523 0.149750 0.964349 0.229142

loop_
_geom_bond_atom_site_label_1
_geom_bond_atom_site_label_2
_ccdc_geom_bond_type
C18   C20   A    
C84   H61   S    
C39   C41   S    
H13   C47   S    
C80   H52   S    
O17   V3    S    
C52   C54   S    
C82   H56   S    
O1    C3    A    
C9    H3    S    
O12   V3    S    
C74   H42   S    
O2    C4    A    
C2    O7    A    
C35   O21   S    
O24   C86   S    
C49   C55   S    
C72   C73   A    
C27   C29   A    
C7    C62   S    
O5    C3    A    
C18   H6    S    
C68   C69   A    
O18   V4    S    
C53   H27   S    
C46   C58   S    
C11   C17   A    
O22   C80   S    
C37   H31   S    
C12   C14   A    
C75   H43   S    
C78   H48   S    
C85   H63   S    
C50   C52   S    
C88   H71   S    
C77   C78   S    
C38   H16   S    
C33   C35   A    
C69   H38   S    
C5    C7    A    
C51   H29   S    
C67   H36   S    
C83   C84   S    
C32   H10   S    
C48   H34   S    
C19   C21   A    
C61   O18   A    
C25   C35   A    
C26   C36   A    
C86   C87   S    
C45   C53   S    
C83   H60   S    
C36   O22   S    
C27   H11   S    
O6    V2    S    
C86   H67   S    
O11   C63   A    
C54   H28   S    
C32   C34   A    
O21   C77   S    
C77   H46   S    
C49   C51   S    
C59   C64   S    
C72   H40   S    
C42   H24   S    
C84   C85   S    
C34   C36   A    
C41   H23   S    
H14   C48   S    
C81   C82   S    
O12   C64   A    
C60   C63   S    
C65   C66   A    
C82   H58   S    
C6    C16   A    
O4    C2    A    
C37   C47   S    
C78   C79   S    
C5    H1    S    
O23   C83   S    
C4    C33   S    
C88   H72   S    
O5    V1    S    
C39   H19   S    
C38   H32   S    
C47   H33   S    
C53   H25   S    
C87   C88   S    
C5    C15   A    
O4    V2    S    
C51   C65   S    
C73   H41   S    
O2    V1    S    
C25   C27   A    
C8    C61   S    
C45   C57   S    
C76   H44   S    
C15   C29   A    
C28   C30   A    
C79   H51   S    
O6    C4    A    
C42   H22   S    
C22   C32   A    
O1    V2    S    
C1    C44   S    
C58   C60   T    
C44   C56   T    
C31   C33   A    
C85   H65   S    
C40   C46   S    
O16   C64   A    
C13   C23   A    
O15   C63   A    
C14   C24   A    
C83   H59   S    
C47   C49   S    
C39   H17   S    
C80   C81   S    
C9    C11   A    
C67   C68   A    
C10   C12   A    
C12   C18   A    
C80   H53   S    
C69   C70   A    
C50   C56   S    
C71   C76   A    
O3    V1    S    
O20   V3    S    
C6    H2    S    
C10   H4    S    
C77   H45   S    
C79   H50   S    
O19   V4    S    
C37   H15   S    
C38   C48   S    
C39   C45   S    
C87   H69   S    
C82   H57   S    
C43   C55   T    
C81   H55   S    
C8    C10   A    
C73   C74   A    
O3    C1    A    
C46   C54   S    
C42   C50   S    
C52   H30   S    
C41   C49   S    
C71   C72   A    
C13   C15   A    
C74   C75   A    
C14   C16   A    
C41   H21   S    
C81   H54   S    
O13   C61   A    
O7    V1    S    
C52   C71   S    
C23   C25   A    
C17   C19   A    
C40   C42   S    
C37   C45   S    
C70   H39   S    
O14   V4    S    
C24   C26   A    
C26   C28   A    
O13   V3    S    
C88   H70   S    
C17   H5    S    
C68   H37   S    
C30   O24   S    
C29   O23   S    
C16   C30   A    
C21   C23   A    
C85   H64   S    
C54   H26   S    
C66   H35   S    
C6    C8    A    
C40   H18   S    
C38   C46   S    
O14   C62   A    
C75   C76   A    
C31   H9    S    
C2    C43   S    
C86   H66   S    
O16   V4    S    
C84   H62   S    
C1    O8    A    
C11   C13   A    
O15   V3    S    
C79   H49   S    
C22   C24   A    
C57   C59   T    
O9    V2    S    
C65   C70   A    
C28   H12   S    
C51   C53   S    
C40   H20   S    
O10   V1    S    
C48   C50   S    
C3    C34   S    
O8    V2    S    
O11   V4    S    
C19   H7    S    
C78   H47   S    
C21   C31   A    
C20   H8    S    
C62   O17   A    
C87   H68   S    
C20   C22   A    
C66   C67   A    
C7    C9    A    
