data_mof_unit_13939.cif
_audit_creation_date              2013-03-05T16:35:54-0500
_audit_creation_method            fapswitch 2.2
_symmetry_space_group_name_H-M    P1
_symmetry_Int_Tables_number       1
_space_group_crystal_system       triclinic
_cell_length_a                    23.600432
_cell_length_b                    9.096161
_cell_length_c                    7.768909
_cell_angle_alpha                 89.941783
_cell_angle_beta                  90.011813
_cell_angle_gamma                 89.969922
_cell_volume                      1667.77643247

loop_
_atom_site_label
_atom_site_type_symbol
_atom_site_description
_atom_site_fract_x
_atom_site_fract_y
_atom_site_fract_z
_atom_type_partial_charge
O1    O     O_R   0.500000 0.288390 0.642760 -0.576587
O2    O     O_R   0.500000 0.711610 0.357240 -0.585678
O3    O     O_R   0.500000 0.711610 0.642760 -0.575284
O4    O     O_R   0.500000 0.288390 0.357240 -0.584786
H1    H     H_    0.950854 0.127933 0.527979 0.183090
H2    H     H_    0.048662 0.871807 0.435130 0.183197
H3    H     H_    0.945663 0.866809 0.430755 0.187581
H4    H     H_    0.053858 0.132267 0.523196 0.186352
C1    C     C_R   0.500009 0.219953 0.500050 0.828796
C2    C     C_R   0.500002 0.780048 0.499944 0.831274
O5    O     O_R   0.417880 0.500000 0.642820 -0.522856
O6    O     O_R   0.582120 0.500000 0.357180 -0.573669
O7    O     O_R   0.582120 0.500000 0.642820 -0.524610
O8    O     O_R   0.417880 0.500000 0.357180 -0.572747
C3    C     C_R   0.208084 0.510241 0.492578 0.096245
C4    C     C_R   0.791557 0.491508 0.493138 0.096930
C5    C     C_R   0.390461 0.503800 0.499974 0.881267
C6    C     C_R   0.609470 0.496672 0.500049 0.882099
Cu1   Cu    Cu3+1 0.500000 0.500000 0.669080 1.084389
Cu2   Cu    Cu3+1 0.500000 0.500000 0.330920 1.049778
C7    C     C_R   0.297870 0.558947 0.350302 0.197512
C8    C     C_R   0.701918 0.431135 0.356463 0.203391
C9    C     C_R   0.296674 0.468708 0.647878 0.349724
C10   C     C_R   0.702959 0.544743 0.642750 0.352650
C11   C     C_R   0.327496 0.511430 0.499644 -0.303186
C12   C     C_R   0.672311 0.489823 0.500052 -0.303508
C13   C     C_R   0.879734 0.625104 0.464192 0.587142
C14   C     C_R   0.119765 0.374336 0.493973 0.584334
C15   C     C_R   0.881597 0.364270 0.502248 0.613856
C16   C     C_R   0.117872 0.636459 0.471601 0.618291
N1    N     N_R   0.852367 0.493665 0.485860 -0.440720
N2    N     N_R   0.147194 0.506874 0.485312 -0.440808
C17   C     C_R   0.940991 0.363791 0.497982 -0.033638
C18   C     C_R   0.058493 0.636012 0.465560 -0.035488
C19   C     C_R   0.939113 0.630384 0.462300 -0.033157
C20   C     C_R   0.060381 0.368897 0.494218 -0.032778
C21   C     C_R   0.969860 0.498371 0.479462 -0.012673
C22   C     C_R   0.029629 0.501057 0.479325 -0.013018
C23   C     C_R   0.972069 0.232674 0.513296 -0.148032
C24   C     C_R   0.027428 0.766906 0.447575 -0.148901
C25   C     C_R   0.968341 0.764037 0.445013 -0.144342
C26   C     C_R   0.031159 0.235135 0.510498 -0.143711
C27   C     C_1   0.500011 0.065352 0.500063 -0.143107
C28   C     C_1   0.500007 0.934649 0.499917 -0.142747
C29   C     C_R   0.238360 0.549700 0.344400 0.438900
C30   C     C_R   0.761437 0.439730 0.350128 0.442375
C31   C     C_R   0.236879 0.473918 0.646606 0.288258
C32   C     C_R   0.762761 0.540878 0.641950 0.289332
N3    N     N_1   0.500000 0.500000 0.076820 -0.016768
N4    N     N_1   0.500000 0.500000 0.923180 -0.012023
O9    O     O_2   0.849496 0.750080 0.445686 -0.483672
O10   O     O_2   0.149948 0.248537 0.503460 -0.481727
O11   O     O_2   0.853194 0.236834 0.523714 -0.488406
O12   O     O_2   0.146149 0.765274 0.465229 -0.486849
O13   O     O_3   0.207859 0.582862 0.197226 -0.659697
H5    H     H_    0.233981 0.602745 0.100343 0.393145
O14   O     O_3   0.792122 0.394124 0.208095 -0.662009
H6    H     H_    0.766123 0.368829 0.112625 0.389835
O15   O     O_3   0.207995 0.441856 0.797018 -0.694621
H7    H     H_    0.168130 0.474512 0.787561 0.348640
O16   O     O_3   0.791555 0.586937 0.787478 -0.691063
H8    H     H_    0.832142 0.560931 0.778697 0.347777
O17   O     O_3   0.325705 0.617325 0.209887 -0.683197
H9    H     H_    0.355179 0.685264 0.253684 0.343465
O18   O     O_3   0.674127 0.362165 0.222703 -0.683770
H10   H     H_    0.642996 0.302589 0.272250 0.341054
O19   O     O_3   0.326172 0.422829 0.792465 -0.658967
H11   H     H_    0.299704 0.392122 0.884451 0.392030
O20   O     O_3   0.673209 0.602071 0.780973 -0.664485
H12   H     H_    0.699543 0.639484 0.869798 0.390575

loop_
_geom_bond_atom_site_label_1
_geom_bond_atom_site_label_2
_geom_bond_distance
_ccdc_geom_bond_type
O13   H5    0.989604 S    
C8    O18   1.380253 S    
O3    Cu1   1.935463 S    
C21   C22   1.410809 A    
C29   O13   1.383917 S    
C15   C17   1.402141 A    
Cu2   N3    1.974079 S    
C16   O12   1.349614 S    
H2    C24   1.082277 S    
O4    Cu2   1.935463 S    
C20   C26   1.404502 A    
Cu1   Cu2   2.627135 S    
C6    C12   1.484364 S    
C2    C28   1.406275 S    
C3    C31   1.414766 A    
C27   C28   1.188902 T    
C5    C11   1.487581 S    
C4    C32   1.414632 A    
C20   C22   1.408558 A    
O14   H6    0.989888 S    
C1    C27   1.406272 S    
O15   H7    0.989149 S    
C15   N1    1.369752 A    
O3    C2    1.271680 A    
C4    N1    1.436406 S    
C16   N2    1.370581 A    
C14   O10   1.349513 S    
O8    C5    1.284887 A    
O6    Cu2   1.948734 S    
C32   O16   1.384381 S    
C17   C23   1.404735 A    
C15   O11   1.349546 S    
O7    C6    1.283798 A    
C3    N2    1.438456 S    
C18   C24   1.404756 A    
H3    C25   1.082525 S    
C24   C25   1.394865 A    
C8    C30   1.407757 A    
H4    C26   1.082363 S    
C10   O20   1.385308 S    
O18   H10   0.990838 S    
C23   C26   1.394931 A    
C7    C29   1.407746 A    
O20   H12   0.989333 S    
H1    C23   1.082459 S    
C30   O14   1.383863 S    
C4    C30   1.400928 A    
O16   H8    0.988903 S    
C19   C25   1.404445 A    
Cu1   N4    1.974079 S    
C7    O17   1.379495 S    
C9    C31   1.411972 A    
C16   C18   1.402154 A    
C31   O15   1.383859 S    
O19   H11   0.989391 S    
C10   C32   1.411787 A    
O8    Cu2   1.948820 S    
C14   N2    1.370293 A    
C9    C11   1.416374 A    
O1    C1    1.272061 A    
C14   C20   1.402388 A    
C17   C21   1.408549 A    
N3    N4    1.193616 T    
C8    C12   1.420830 A    
C9    O19   1.385281 S    
O2    Cu2   1.935876 S    
C7    C11   1.421322 A    
O5    Cu1   1.948736 S    
O7    Cu1   1.948817 S    
C13   C19   1.402281 A    
O4    C1    1.271640 A    
C18   C22   1.408201 A    
O1    Cu1   1.935877 S    
C13   N1    1.369449 A    
O2    C2    1.272025 A    
O5    C5    1.284948 A    
O17   H9    0.991118 S    
C19   C21   1.408899 A    
C13   O9    1.349461 S    
C10   C12   1.415235 A    
C3    C29   1.401569 A    
O6    C6    1.284181 A    
