data_mof_unit_53942.cif
_audit_creation_date              2012-12-10T17:22:12-0500
_audit_creation_method            fapswitch 2.2
_symmetry_space_group_name_H-M    P1
_symmetry_Int_Tables_number       1
_space_group_crystal_system       triclinic
_cell_length_a                    15.877877
_cell_length_b                    10.816623
_cell_length_c                    9.619609
_cell_angle_alpha                 88.556771
_cell_angle_beta                  89.932519
_cell_angle_gamma                 93.045576
_cell_volume                      1649.2577686

loop_
_atom_site_label
_atom_site_type_symbol
_atom_type_description
_atom_site_fract_x
_atom_site_fract_y
_atom_site_fract_z
_atom_type_partial_charge
C1    C     C_R   0.496055 0.262800 0.501881 0.825069
C2    C     C_3   0.951128 0.511852 0.653816 0.319418
C3    C     C_3   0.917004 0.500669 0.501942 0.085255
C4    C     C_3   0.955190 0.609893 0.408344 0.368656
C5    C     C_3   0.053645 0.612953 0.415063 -0.537355
C6    C     C_1   0.824676 0.500033 0.500772 0.041137
C7    C     C_1   0.175486 0.500923 0.501229 -0.015257
C8    C     C_1   0.250944 0.500439 0.500436 -0.190078
C9    C     C_R   0.364028 0.113963 0.654883 -0.151660
C10   C     C_R   0.300021 0.041818 0.721571 -0.138443
C11   C     C_R   0.298471 0.913392 0.715250 -0.157136
C12   C     C_R   0.340446 0.499685 0.500133 0.801970
C13   C     C_R   0.361702 0.856081 0.644203 -0.150175
C14   C     C_R   0.427462 0.927102 0.575837 0.033226
C15   C     C_R   0.428201 0.058056 0.580643 0.097624
C16   C     C_R   0.490964 0.128957 0.505150 -0.161039
C17   C     C_R   0.546028 0.072452 0.417990 -0.293272
C18   C     C_R   0.539660 0.945481 0.401074 0.447166
C19   C     C_R   0.488350 0.871421 0.493115 -0.205640
C20   C     C_R   0.621143 0.650316 0.138998 -0.063301
C21   C     C_R   0.684856 0.715988 0.065303 -0.188761
C22   C     C_R   0.683335 0.719446 0.921998 -0.216585
C23   C     C_R   0.496783 0.737456 0.497982 0.806380
C24   C     C_R   0.619546 0.654186 0.852052 -0.098243
C25   C     C_R   0.558914 0.575154 0.923114 0.196792
C26   C     C_R   0.559444 0.573974 0.072322 0.067133
C27   C     C_R   0.442817 0.428583 0.076672 0.582745
C28   C     C_R   0.444415 0.427428 0.927749 -0.170285
C29   C     C_R   0.659576 0.500149 0.499905 0.798584
C30   C     C_3   0.050222 0.518009 0.653208 -0.498856
C31   C     C_3   0.043522 0.381265 0.433475 0.391945
C32   C     C_3   0.945827 0.376173 0.444949 -0.516697
C33   C     C_1   0.749163 0.500028 0.500030 -0.152663
C34   C     C_3   0.083382 0.500723 0.502787 0.117106
Cu1   Cu    Cu3+1 0.499990 0.499990 0.640660 0.925918
Cu2   Cu    Cu3+1 0.500010 0.500010 0.359340 0.973599
H1    H     H_    0.932532 0.422286 0.707750 0.114591
H2    H     H_    0.079582 0.605720 0.691518 0.177898
H3    H     H_    0.592319 0.128247 0.357538 0.157429
H4    H     H_    0.360944 0.213387 0.658747 0.133687
H5    H     H_    0.250741 0.085844 0.776746 0.119852
H6    H     H_    0.247965 0.857791 0.765543 0.123283
H7    H     H_    0.356321 0.756328 0.638973 0.148818
H8    H     H_    0.073195 0.447715 0.727478 0.147999
H9    H     H_    0.620588 0.667272 0.247206 0.224382
H10   H     H_    0.732130 0.771794 0.119819 0.149561
H11   H     H_    0.730147 0.776594 0.864549 0.152467
H12   H     H_    0.620347 0.670445 0.742724 0.193930
H13   H     H_    0.400844 0.366224 0.872603 0.144828
H14   H     H_    0.056697 0.395262 0.320193 0.127797
H15   H     H_    0.921771 0.297153 0.512302 0.166816
H16   H     H_    0.917825 0.359471 0.340566 0.207489
H17   H     H_    0.077818 0.701411 0.460775 0.152937
H18   H     H_    0.080754 0.611921 0.308308 0.193883
H19   H     H_    0.932726 0.697392 0.450728 0.092488
N1    N     N_R   0.500800 0.501210 0.147910 -0.244948
N2    N     N_R   0.500820 0.501290 0.852040 -0.216726
O1    O     O_R   0.499990 0.319640 0.618810 -0.585388
O2    O     O_R   0.500000 0.319660 0.381240 -0.531042
O3    O     O_R   0.379430 0.499990 0.618840 -0.596132
O4    O     O_R   0.379440 0.500020 0.381260 -0.537687
O5    O     O_R   0.500000 0.680340 0.618760 -0.611057
O6    O     O_R   0.500010 0.680360 0.381190 -0.583290
O7    O     O_R   0.620560 0.499980 0.618740 -0.581777
O8    O     O_R   0.620570 0.500010 0.381160 -0.595703
O9    O     O_3   0.908095 0.600882 0.730944 -0.561555
C35   C     C_3   0.952577 0.715402 0.750524 -0.329970
H20   H     H_    0.984741 0.753028 0.655150 0.140223
H21   H     H_    0.997777 0.707243 0.837898 0.166546
H22   H     H_    0.906689 0.783714 0.780971 0.175282
O10   O     O_3   0.927864 0.593595 0.269018 -0.563449
C36   C     C_3   0.922739 0.709089 0.198814 -0.339137
H23   H     H_    0.984083 0.763713 0.200473 0.153030
H24   H     H_    0.872135 0.762828 0.244283 0.155215
H25   H     H_    0.906267 0.692511 0.088553 0.209717
O11   O     O_3   0.583853 0.893498 0.294939 -0.630812
C37   C     C_3   0.554818 0.937780 0.163723 0.057482
H26   H     H_    0.600877 0.914671 0.083387 0.173355
H27   H     H_    0.553090 0.040366 0.155943 0.141189
C38   C     C_3   0.467967 0.878146 0.127277 -0.363618
H28   H     H_    0.468139 0.776266 0.141426 0.243435
H29   H     H_    0.419212 0.912565 0.197409 0.214751
C39   C     C_3   0.444106 0.907872 0.977421 -0.875511
H30   H     H_    0.440975 0.009470 0.960208 0.268658
H31   H     H_    0.381293 0.862638 0.956356 0.258003
H32   H     H_    0.490636 0.871725 0.904449 0.263350
O12   O     O_3   0.387492 0.349522 0.152317 -0.544915
C40   C     C_3   0.303423 0.366885 0.111705 -0.330345
H33   H     H_    0.287655 0.315639 0.015759 0.139914
H34   H     H_    0.290333 0.466693 0.097838 0.146091
H35   H     H_    0.260832 0.327970 0.195213 0.207219
O13   O     O_3   0.080195 0.266417 0.465005 -0.573420
C41   C     C_3   0.081457 0.233648 0.607698 -0.299125
H36   H     H_    0.022564 0.252778 0.663239 0.135549
H37   H     H_    0.137613 0.278537 0.657910 0.164445
H38   H     H_    0.088494 0.132332 0.617568 0.177744

loop_
_geom_bond_atom_site_label_1
_geom_bond_atom_site_label_2
_ccdc_geom_bond_type
O12   C40   S    
C41   H36   S    
Cu1   Cu2   S    
C3    C6    S    
C7    C8    T    
C28   N2    A    
Cu1   O1    S    
C5    H17   S    
C1    O2    A    
C15   C16   A    
C29   C33   S    
C30   H2    S    
C11   H6    S    
C18   C19   A    
C17   H3    S    
C32   H16   S    
C23   O5    A    
C31   C32   S    
C16   C17   A    
Cu1   O7    S    
Cu2   O6    S    
C9    C10   A    
C20   H9    S    
C40   H33   S    
Cu2   O2    S    
C23   O6    A    
C22   H11   S    
C29   O7    A    
C41   H37   S    
C13   C14   A    
C10   H5    S    
C30   H8    S    
C25   N2    A    
C36   H25   S    
C37   H27   S    
C30   C34   S    
C35   H20   S    
C24   H12   S    
C5    H18   S    
C24   C25   A    
C38   H29   S    
C27   N1    A    
C38   H28   S    
C25   C26   A    
C37   H26   S    
C9    H4    S    
Cu1   O3    S    
C35   H21   S    
C19   C23   S    
C32   H15   S    
Cu2   N1    S    
C28   H13   S    
C39   H30   S    
C40   H35   S    
C8    C12   S    
C5    C34   S    
C17   C18   A    
C31   C34   S    
C1    C16   S    
O11   C37   S    
C27   O12   S    
C29   O8    A    
C36   H24   S    
C39   H31   S    
C40   H34   S    
C41   H38   S    
C4    H19   S    
C7    C34   S    
C22   C24   A    
C31   H14   S    
C3    C4    S    
C13   H7    S    
C38   C39   S    
C21   H10   S    
C37   C38   S    
C18   O11   S    
Cu2   O8    S    
C14   C19   A    
C36   H23   S    
C2    O9    S    
C26   N1    A    
C6    C33   T    
C2    C30   S    
Cu1   N2    S    
C35   H22   S    
C2    C3    S    
C9    C15   A    
O10   C36   S    
C1    O1    A    
C12   O4    A    
C11   C13   A    
C2    H1    S    
C20   C26   A    
O13   C41   S    
O9    C35   S    
Cu1   O5    S    
C3    C32   S    
C10   C11   A    
C12   O3    A    
C4    C5    S    
C39   H32   S    
C20   C21   A    
C31   O13   S    
C27   C28   A    
C14   C15   A    
C21   C22   A    
C4    O10   S    
Cu2   O4    S    
