data_mof_unit_16682.cif
_audit_creation_date              2012-12-11T15:17:39-0500
_audit_creation_method            fapswitch 2.2
_symmetry_space_group_name_H-M    P1
_symmetry_Int_Tables_number       1
_space_group_crystal_system       triclinic
_cell_length_a                    15.685132
_cell_length_b                    15.685753
_cell_length_c                    34.409972
_cell_angle_alpha                 89.960289
_cell_angle_beta                  89.942963
_cell_angle_gamma                 119.502016
_cell_volume                      7368.26746946

loop_
_atom_site_label
_atom_site_type_symbol
_atom_type_description
_atom_site_fract_x
_atom_site_fract_y
_atom_site_fract_z
_atom_type_partial_charge
C1    C     C_R   0.578587 0.441465 0.555028 0.554423
C2    C     C_R   0.558481 0.136809 0.555010 0.557639
C3    C     C_R   0.862583 0.421124 0.555180 0.566491
C4    C     C_R   0.441436 0.578636 0.055056 0.554585
C5    C     C_R   0.136826 0.558517 0.055018 0.557581
C6    C     C_R   0.421161 0.862690 0.055136 0.566925
C7    C     C_R   0.958226 0.496674 0.714949 0.344621
C8    C     C_R   0.502244 0.471260 0.713630 0.339876
C9    C     C_R   0.466563 0.929494 0.699528 0.337346
C10   C     C_R   0.497606 0.960723 0.214583 0.343811
C11   C     C_R   0.470535 0.502809 0.213838 0.339373
C12   C     C_R   0.927834 0.466312 0.199331 0.339910
C13   C     C_R   0.016813 0.441197 0.850996 0.090664
C14   C     C_R   0.559449 0.576971 0.850638 0.089587
C15   C     C_R   0.336593 0.810581 0.834313 0.102043
C16   C     C_R   0.440896 0.015571 0.351214 0.089753
C17   C     C_R   0.575523 0.560361 0.351042 0.090884
C18   C     C_R   0.802984 0.337850 0.334046 0.095470
C19   C     C_R   0.055799 0.453962 0.888133 -0.064939
C20   C     C_R   0.547550 0.601747 0.888323 -0.120153
C21   C     C_R   0.325805 0.798214 0.874649 -0.109665
C22   C     C_R   0.453298 0.053881 0.388476 -0.065090
C23   C     C_R   0.600581 0.548243 0.388660 -0.121273
C24   C     C_R   0.789917 0.326461 0.374250 -0.125593
C25   C     C_R   0.049034 0.603704 0.895737 -0.124266
C26   C     C_R   0.395189 0.449278 0.894710 -0.100853
C27   C     C_R   0.500306 0.863488 0.881787 -0.098945
C28   C     C_R   0.605630 0.051817 0.395251 -0.123805
C29   C     C_R   0.449189 0.394739 0.394724 -0.100876
C30   C     C_R   0.878231 0.502193 0.382634 -0.094192
C31   C     C_R   0.007353 0.591621 0.858600 -0.023328
C32   C     C_R   0.406589 0.421293 0.857162 -0.019477
C33   C     C_R   0.514103 0.880455 0.841623 -0.019724
C34   C     C_R   0.594387 0.011510 0.357902 -0.020279
C35   C     C_R   0.420951 0.406269 0.357250 -0.019074
C36   C     C_R   0.895803 0.515836 0.342475 -0.023554
C37   C     C_R   0.995414 0.512099 0.835165 0.001081
C38   C     C_R   0.487096 0.488022 0.834142 0.035382
C39   C     C_R   0.431287 0.854025 0.817508 0.027655
C40   C     C_R   0.513440 0.997256 0.334862 -0.002471
C41   C     C_R   0.487106 0.487443 0.334384 0.036030
C42   C     C_R   0.857298 0.432534 0.317749 0.039462
C43   C     C_R   0.076447 0.537018 0.909986 -0.042738
C44   C     C_R   0.463483 0.540714 0.909773 -0.026367
C45   C     C_R   0.407106 0.825526 0.898509 -0.028068
C46   C     C_R   0.537359 0.076538 0.409978 -0.045357
C47   C     C_R   0.540308 0.463515 0.409889 -0.025926
C48   C     C_R   0.827641 0.407924 0.398654 -0.023086
C49   C     C_R   0.578184 0.442263 0.445466 0.544849
C50   C     C_R   0.558066 0.135784 0.445448 0.539552
C51   C     C_R   0.810015 0.392482 0.440649 0.562970
C52   C     C_R   0.442270 0.578228 0.945455 0.544605
C53   C     C_R   0.135849 0.558060 0.945427 0.540118
C54   C     C_R   0.392323 0.809676 0.940680 0.563335
C55   C     C_R   0.911032 0.451292 0.593205 0.022849
C56   C     C_R   0.546725 0.461277 0.592449 0.022661
C57   C     C_R   0.531854 0.071333 0.588969 0.021771
C58   C     C_R   0.451524 0.911694 0.093033 0.022964
C59   C     C_R   0.461107 0.547020 0.092564 0.022665
C60   C     C_R   0.071155 0.532036 0.088919 0.021796
C61   C     C_R   0.918850 0.381909 0.616469 -0.123114
C62   C     C_R   0.613433 0.541825 0.614565 -0.123184
C63   C     C_R   0.438138 0.033724 0.605396 -0.123677
C64   C     C_R   0.382222 0.919797 0.116257 -0.123165
C65   C     C_R   0.541306 0.614034 0.114762 -0.123025
C66   C     C_R   0.030979 0.437488 0.104772 -0.124202
C67   C     C_R   0.938322 0.398982 0.655951 -0.113551
C68   C     C_R   0.596059 0.547279 0.653812 -0.110878
C69   C     C_R   0.415513 0.982787 0.640371 -0.113020
C70   C     C_R   0.399564 0.939984 0.155676 -0.113012
C71   C     C_R   0.546529 0.596831 0.154044 -0.110788
C72   C     C_R   0.979542 0.414758 0.139663 -0.113235
C73   C     C_R   0.952681 0.486548 0.672615 0.038433
C74   C     C_R   0.510816 0.473635 0.671310 0.039565
C75   C     C_R   0.485772 0.967642 0.659541 0.037148
C76   C     C_R   0.487322 0.954818 0.172287 0.039120
C77   C     C_R   0.473028 0.511446 0.171509 0.039695
C78   C     C_R   0.966749 0.485902 0.159386 0.036404
C79   C     C_R   0.954533 0.560070 0.648869 -0.113640
C80   C     C_R   0.439196 0.398531 0.648526 -0.113435
C81   C     C_R   0.577409 0.999284 0.641946 -0.113587
C82   C     C_R   0.560771 0.956439 0.148558 -0.113414
C83   C     C_R   0.398269 0.439596 0.148669 -0.113310
C84   C     C_R   0.001214 0.578624 0.142331 -0.113834
C85   C     C_R   0.932838 0.542164 0.609339 -0.127026
C86   C     C_R   0.457429 0.391877 0.609238 -0.126198
C87   C     C_R   0.600525 0.051308 0.606908 -0.129973
C88   C     C_R   0.542589 0.933992 0.109096 -0.127026
C89   C     C_R   0.391819 0.457666 0.109344 -0.125999
C90   C     C_R   0.053423 0.601675 0.107356 -0.129940
C91   C     C_R   0.974225 0.509306 0.793299 0.308661
C92   C     C_R   0.490673 0.472673 0.792049 0.341195
C93   C     C_R   0.441904 0.876808 0.775506 0.334282
C94   C     C_R   0.510532 0.976784 0.292915 0.307757
C95   C     C_R   0.471891 0.491101 0.292267 0.341145
C96   C     C_R   0.877330 0.442095 0.275562 0.352664
Cr1   Cr    Cr6+3 0.522350 0.263930 0.500020 1.029163
Cr2   Cr    Cr6+3 0.736070 0.258420 0.500020 1.032231
Cr3   Cr    Cr6+3 0.741580 0.477650 0.500020 1.032731
Cr4   Cr    Cr6+3 0.263930 0.522350 0.000020 1.029213
Cr5   Cr    Cr6+3 0.258420 0.736070 0.000020 1.032200
Cr6   Cr    Cr6+3 0.477650 0.741580 0.000020 1.032473
H1    H     H_    0.902670 0.311331 0.604873 0.135809
H2    H     H_    0.682566 0.596821 0.602373 0.137231
H3    H     H_    0.383235 0.046987 0.592041 0.138236
H4    H     H_    0.311510 0.903273 0.104702 0.135765
H5    H     H_    0.596194 0.683246 0.102591 0.137334
H6    H     H_    0.042443 0.381871 0.090990 0.137980
H7    H     H_    0.927396 0.596896 0.591968 0.128482
H8    H     H_    0.404629 0.329344 0.592710 0.130536
H9    H     H_    0.673147 0.079121 0.594725 0.128232
H10   H     H_    0.597254 0.928365 0.091743 0.128440
H11   H     H_    0.329535 0.404649 0.092763 0.130668
H12   H     H_    0.083233 0.674978 0.095628 0.128556
H13   H     H_    0.075597 0.401083 0.898890 0.178914
H14   H     H_    0.601579 0.672340 0.899706 0.155716
H15   H     H_    0.253441 0.765965 0.887525 0.130761
H16   H     H_    0.399206 0.071545 0.399626 0.179570
H17   H     H_    0.670810 0.602729 0.400164 0.152137
H18   H     H_    0.748853 0.253533 0.386426 0.128201
H19   H     H_    0.938499 0.342120 0.673790 0.136742
H20   H     H_    0.651300 0.606846 0.670904 0.141385
H21   H     H_    0.343932 0.958148 0.653112 0.141702
H22   H     H_    0.342762 0.940282 0.173526 0.136846
H23   H     H_    0.605835 0.652265 0.171177 0.141194
H24   H     H_    0.952773 0.342332 0.151894 0.142400
H25   H     H_    0.966188 0.628407 0.661303 0.136256
H26   H     H_    0.372636 0.341424 0.661636 0.136855
H27   H     H_    0.632920 0.988656 0.656277 0.138564
H28   H     H_    0.629232 0.968422 0.160977 0.135523
H29   H     H_    0.341275 0.372922 0.161751 0.136609
H30   H     H_    0.992444 0.634910 0.156981 0.140015
H31   H     H_    0.062733 0.666643 0.913198 0.178049
H32   H     H_    0.331517 0.400901 0.911881 0.180094
H33   H     H_    0.563220 0.883953 0.900335 0.185703
H34   H     H_    0.669419 0.067048 0.412442 0.179431
H35   H     H_    0.401282 0.330576 0.411748 0.180276
H36   H     H_    0.907656 0.565248 0.401707 0.185763
N1    N     N_R   0.910250 0.423831 0.776027 -0.224541
N2    N     N_R   0.577592 0.500463 0.774256 -0.163916
N3    N     N_R   0.391716 0.917734 0.759418 -0.156953
N4    N     N_R   0.425390 0.911754 0.275718 -0.224609
N5    N     N_R   0.499252 0.577962 0.274506 -0.164272
N6    N     N_R   0.907359 0.383983 0.258103 -0.165339
N7    N     N_R   0.902581 0.417555 0.737575 -0.218006
N8    N     N_R   0.583279 0.499871 0.735770 -0.212825
N9    N     N_R   0.403630 0.943334 0.722182 -0.216045
N10   N     N_R   0.418954 0.904070 0.237270 -0.218345
N11   N     N_R   0.498698 0.583719 0.236018 -0.213663
N12   N     N_R   0.931991 0.395788 0.220743 -0.217913
N13   N     N_R   0.019861 0.583303 0.732134 -0.210222
N14   N     N_R   0.414651 0.440970 0.731291 -0.216039
N15   N     N_R   0.515933 0.887181 0.715384 -0.223265
N16   N     N_R   0.583928 0.023521 0.231677 -0.204146
N17   N     N_R   0.440696 0.415272 0.231464 -0.214956
N18   N     N_R   0.895741 0.523231 0.216554 -0.224283
N19   N     N_R   0.028340 0.589209 0.770675 -0.236041
N20   N     N_R   0.409232 0.442729 0.769863 -0.233420
N21   N     N_R   0.503120 0.860487 0.752655 -0.239896
N22   N     N_R   0.589953 0.032016 0.270210 -0.228783
N23   N     N_R   0.442426 0.409794 0.270034 -0.231868
N24   N     N_R   0.870199 0.510798 0.253938 -0.236020
O1    O     O_R   0.498680 0.159540 0.541860 -0.515086
O2    O     O_R   0.840460 0.339140 0.541860 -0.511835
O3    O     O_R   0.660860 0.501320 0.541860 -0.516696
O4    O     O_R   0.159540 0.498680 0.041860 -0.514803
O5    O     O_R   0.339140 0.840460 0.041860 -0.511809
O6    O     O_R   0.501320 0.660860 0.041860 -0.516374
O7    O     O_R   0.532760 0.358060 0.540030 -0.501221
O8    O     O_R   0.641940 0.174700 0.540030 -0.503504
O9    O     O_R   0.825300 0.467240 0.540030 -0.497498
O10   O     O_R   0.358060 0.532760 0.040030 -0.501022
O11   O     O_R   0.174700 0.641940 0.040030 -0.503598
O12   O     O_R   0.467240 0.825300 0.040030 -0.497478
O13   O     O_R   0.498590 0.161190 0.456930 -0.511411
O14   O     O_R   0.838810 0.337400 0.456930 -0.489781
O15   O     O_R   0.662600 0.501410 0.456930 -0.521742
O16   O     O_R   0.161190 0.498590 0.956930 -0.511963
O17   O     O_R   0.337400 0.838810 0.956930 -0.490235
O18   O     O_R   0.501410 0.662600 0.956930 -0.522900
O19   O     O_R   0.532680 0.359580 0.461300 -0.503591
O20   O     O_R   0.640420 0.173100 0.461300 -0.523306
O21   O     O_R   0.826900 0.467320 0.461300 -0.497673
O22   O     O_R   0.359580 0.532680 0.961300 -0.503317
O23   O     O_R   0.173100 0.640420 0.961300 -0.523284
O24   O     O_R   0.467320 0.826900 0.961300 -0.497250
O25   O     O_3   0.666667 0.333333 0.499990 -0.273078
O26   O     O_3   0.333333 0.666667 0.999990 -0.273535
N25   N     N_3   0.006615 0.358843 0.829176 -0.592064
H37   H     H_    0.932596 0.312929 0.822839 0.269939
H38   H     H_    0.046739 0.383684 0.803375 0.261592
N26   N     N_3   0.641784 0.646188 0.828243 -0.575284
H39   H     H_    0.705687 0.660205 0.842959 0.252041
H40   H     H_    0.639495 0.711645 0.826850 0.263370
N27   N     N_3   0.251474 0.778770 0.810162 -0.559300
H41   H     H_    0.188518 0.755161 0.827131 0.252520
H42   H     H_    0.242603 0.717855 0.794489 0.249892
N28   N     N_3   0.357100 0.003018 0.329812 -0.589356
H43   H     H_    0.312826 0.928796 0.323359 0.272023
H44   H     H_    0.380452 0.043659 0.304082 0.262444
N29   N     N_3   0.643978 0.643618 0.328876 -0.577021
H45   H     H_    0.656921 0.706910 0.343815 0.248931
H46   H     H_    0.710043 0.642533 0.327394 0.255119
N30   N     N_3   0.759575 0.252790 0.309681 -0.567587
H47   H     H_    0.786553 0.206568 0.318226 0.267543
H48   H     H_    0.683995 0.215881 0.314665 0.244047
C97   C     C_2   0.976787 0.662297 0.844719 0.238548
H49   H     H_    0.935227 0.648738 0.818072 0.147178
O27   O     O_2   0.996781 0.736344 0.863135 -0.488005
C98   C     C_2   0.334461 0.322453 0.842594 0.257145
H50   H     H_    0.348800 0.293837 0.816215 0.138252
O28   O     O_2   0.258398 0.270944 0.860202 -0.476077
C99   C     C_2   0.615996 0.931802 0.826288 0.241501
H51   H     H_    0.632896 0.969384 0.798572 0.147467
O29   O     O_2   0.683346 0.934173 0.844941 -0.496592
C100  C     C_2   0.667488 0.984835 0.343414 0.236313
H52   H     H_    0.654453 0.943261 0.316798 0.146115
O30   O     O_2   0.743039 0.008105 0.361291 -0.493779
C101  C     C_2   0.322422 0.333564 0.342599 0.255885
H53   H     H_    0.293409 0.347924 0.316343 0.136640
O31   O     O_2   0.271607 0.256992 0.360005 -0.477229
C102  C     C_2   0.959792 0.616949 0.327692 0.243035
H54   H     H_    0.995100 0.629589 0.299575 0.143807
O32   O     O_2   0.975370 0.688169 0.347223 -0.489147

loop_
_geom_bond_atom_site_label_1
_geom_bond_atom_site_label_2
_ccdc_geom_bond_type
C25   C31   A    
C26   C32   A    
C30   H36   S    
C7    N7    A    
Cr4   O10   S    
Cr6   O18   S    
N29   H45   S    
C6    C58   S    
C36   C42   A    
C79   C85   A    
C93   N3    A    
Cr4   O16   S    
C53   O16   A    
C25   C43   A    
Cr3   O25   S    
C2    C57   S    
C26   C44   A    
Cr6   O24   S    
C47   C49   S    
C99   H51   S    
N17   N23   A    
C95   N5    A    
C28   C46   A    
C16   C22   A    
C33   C39   A    
C29   C47   A    
C18   C24   A    
N13   N19   A    
C30   C48   A    
Cr4   O26   S    
C1    C56   S    
C100  O30   D    
Cr3   O15   S    
C51   O21   A    
C18   C42   A    
C23   H17   S    
C55   C85   A    
C87   H9    S    
C27   C45   A    
C77   C83   A    
C68   C74   A    
C38   C92   S    
Cr2   O8    S    
C13   N25   S    
C54   O17   A    
Cr4   O4    S    
C59   C89   A    
Cr5   O5    S    
C53   O23   A    
C39   C93   S    
C92   N20   A    
C80   C86   A    
C11   C77   S    
C10   C76   S    
C43   C53   S    
C48   C51   S    
C66   C72   A    
C63   C69   A    
C19   C43   A    
Cr1   O1    S    
C12   C78   S    
N5    N11   A    
Cr6   O6    S    
N28   H43   S    
C67   C73   A    
C32   C38   A    
C63   H3    S    
Cr5   O26   S    
C25   H31   S    
C13   C37   A    
N18   N24   A    
C11   N17   A    
C15   N27   S    
C84   H30   S    
C44   C52   S    
C90   H12   S    
C60   C66   A    
C74   C80   A    
N29   H46   S    
C10   N16   A    
C50   O20   A    
C84   C90   A    
C12   N18   A    
C21   C45   A    
Cr5   O23   S    
C67   H19   S    
C20   C44   A    
C11   N11   A    
C46   C50   S    
C57   C63   A    
C85   H7    S    
C49   O15   A    
C99   O29   D    
C58   C64   A    
C83   C89   A    
C89   H11   S    
C24   H18   S    
C17   C41   A    
C23   C47   A    
N16   N22   A    
C37   C91   S    
C97   H49   S    
C94   N4    A    
C14   C20   A    
C100  H52   S    
C7    C73   S    
C68   H20   S    
Cr1   O13   S    
C20   H14   S    
C33   C99   S    
C75   C81   A    
C13   C19   A    
C86   H8    S    
C65   C71   A    
N6    N12   A    
C29   H35   S    
C9    N9    A    
C62   H2    S    
C27   C33   A    
C31   C37   A    
C72   H24   S    
C50   O13   A    
N26   H40   S    
N15   N21   A    
C102  O32   D    
C64   C70   A    
C52   O18   A    
C31   C97   S    
Cr2   O25   S    
C26   H32   S    
C12   N12   A    
Cr5   O17   S    
C96   N6    A    
C32   C98   S    
C61   C67   A    
C24   C48   A    
C56   C86   A    
C19   H13   S    
C66   H6    S    
C62   C68   A    
C8    C74   S    
C73   C79   A    
C17   C23   A    
C5    O4    A    
C17   N29   S    
N4    N10   A    
C15   C39   A    
C81   C87   A    
C35   C41   A    
C3    O2    A    
C16   C40   A    
N14   N20   A    
C91   N1    A    
C34   C40   A    
Cr3   O3    S    
C22   C46   A    
C2    O8    A    
C45   C54   S    
C98   O28   D    
C70   H22   S    
C70   C76   A    
C81   H27   S    
C49   O19   A    
C82   H28   S    
C76   C82   A    
C14   C38   A    
C92   N2    A    
C36   C102  S    
C40   C94   S    
C71   C77   A    
C79   H25   S    
C16   N28   S    
C64   H4    S    
N25   H37   S    
C101  H53   S    
C22   H16   S    
C6    O5    A    
N1    N7    A    
C94   N22   A    
C4    O10   A    
C5    C60   S    
C61   H1    S    
Cr2   O14   S    
C28   H34   S    
C4    O6    A    
C5    O11   A    
C1    O3    A    
C8    N8    A    
N2    N8    A    
C52   O22   A    
N30   H48   S    
N28   H44   S    
C8    N14   A    
C35   C101  S    
C2    O1    A    
Cr2   O2    S    
Cr1   O19   S    
C60   C90   A    
Cr2   O20   S    
Cr6   O12   S    
C6    O12   A    
C29   C35   A    
C3    C55   S    
C30   C36   A    
C42   C96   S    
C27   H33   S    
N26   H39   S    
C95   N23   A    
C83   H29   S    
Cr1   O7    S    
C80   H26   S    
C34   C100  S    
C59   C65   A    
C3    O9    A    
C41   C95   S    
C82   C88   A    
C55   C61   A    
C4    C59   S    
C1    O7    A    
C96   N24   A    
C69   C75   A    
C56   C62   A    
C14   N26   S    
C28   C34   A    
C51   O14   A    
Cr4   O22   S    
Cr6   O26   S    
C78   C84   A    
C91   N19   A    
C21   H15   S    
N3    N9    A    
C9    N15   A    
N27   H41   S    
C88   H10   S    
C57   C87   A    
C15   C21   A    
C7    N13   A    
N30   H47   S    
C93   N21   A    
C98   H50   S    
C54   O24   A    
C72   C78   A    
C97   O27   D    
C69   H21   S    
C71   H23   S    
C18   N30   S    
Cr3   O21   S    
C9    C75   S    
N25   H38   S    
Cr1   O25   S    
C58   C88   A    
C102  H54   S    
C65   H5    S    
C101  O31   D    
Cr3   O9    S    
C10   N10   A    
Cr5   O11   S    
N27   H42   S    
