data_mof_unit_28094.cif
_audit_creation_date              2012-12-10T18:11:07-0500
_audit_creation_method            fapswitch 2.2
_symmetry_space_group_name_H-M    P1
_symmetry_Int_Tables_number       1
_space_group_crystal_system       triclinic
_cell_length_a                    10.833291
_cell_length_b                    9.743251
_cell_length_c                    10.709929
_cell_angle_alpha                 90.20041
_cell_angle_beta                  87.856984
_cell_angle_gamma                 90.76707
_cell_volume                      1129.5518334

loop_
_atom_site_label
_atom_site_type_symbol
_atom_type_description
_atom_site_fract_x
_atom_site_fract_y
_atom_site_fract_z
_atom_type_partial_charge
C1    C     C_R   0.260752 0.498808 0.504693 0.893719
C2    C     C_3   0.492048 0.498164 0.121508 0.008813
C3    C     C_3   0.069963 0.628559 0.565307 0.444226
C4    C     C_3   0.065275 0.371026 0.576482 0.470817
C5    C     C_3   0.928702 0.633468 0.557706 0.466959
C6    C     C_3   0.922746 0.376622 0.575930 0.461671
C7    C     C_3   0.082916 0.486524 0.366962 -0.685166
C8    C     C_3   0.122463 0.495833 0.504107 -0.236548
C9    C     C_3   0.878943 0.500183 0.495440 -0.340193
C10   C     C_3   0.937841 0.483493 0.357683 0.375575
C11   C     C_3   0.610780 0.083593 0.563446 0.423089
C12   C     C_3   0.603742 0.921400 0.573976 0.513211
C13   C     C_3   0.392813 0.081921 0.579189 0.008888
C14   C     C_3   0.385759 0.916364 0.569928 -0.010397
C15   C     C_3   0.498771 0.084654 0.369687 0.497969
C16   C     C_3   0.499003 0.915153 0.368392 0.491207
C17   C     C_R   0.496310 0.499450 0.259898 0.750806
C18   C     C_R   0.739465 0.500562 0.496810 0.910304
C19   C     C_R   0.499722 0.500968 0.739272 0.843997
C20   C     C_3   0.396009 0.571478 0.043732 -0.230533
C21   C     C_3   0.486417 0.370432 0.035866 -0.207820
C22   C     C_3   0.394249 0.446224 0.958037 0.270859
C23   C     C_3   0.498378 0.504929 0.875713 -0.014304
C24   C     C_3   0.502981 0.633056 0.959692 -0.178810
C25   C     C_3   0.593542 0.432556 0.953417 -0.192233
C26   C     C_3   0.598572 0.560306 0.039794 -0.129282
Cu1   Cu    Cu3+1 0.499860 0.642410 0.500060 0.999835
Cu2   Cu    Cu3+1 0.499860 0.357590 0.500060 0.974819
H1    H     H_    0.620191 0.128605 0.656984 0.144748
H2    H     H_    0.592129 0.894551 0.673173 0.069069
H3    H     H_    0.307882 0.116469 0.539052 0.168732
H4    H     H_    0.304557 0.893059 0.514393 0.145544
H5    H     H_    0.308734 0.618338 0.079228 0.136154
H6    H     H_    0.470207 0.260246 0.048255 0.128080
H7    H     H_    0.512725 0.740619 0.926904 0.132336
H8    H     H_    0.675198 0.376349 0.915384 0.193391
H9    H     H_    0.682389 0.610349 0.075954 0.152234
H10   H     H_    0.110115 0.720801 0.517230 0.011593
H11   H     H_    0.095805 0.273845 0.532124 0.012700
H12   H     H_    0.905158 0.725402 0.503863 0.082079
H13   H     H_    0.889719 0.278292 0.536520 0.158349
H14   H     H_    0.123648 0.577997 0.317916 0.183129
H15   H     H_    0.128595 0.400240 0.318333 0.212256
N1    N     N_3   0.500250 0.143650 0.502780 -0.282436
N2    N     N_3   0.500250 0.856350 0.502780 -0.284320
O1    O     O_R   0.317570 0.620260 0.500070 -0.601936
O2    O     O_R   0.317570 0.379740 0.500070 -0.594718
O3    O     O_R   0.499850 0.620240 0.316900 -0.576341
O4    O     O_R   0.499850 0.379760 0.316900 -0.600847
O5    O     O_R   0.682190 0.620260 0.500030 -0.507979
O6    O     O_R   0.682190 0.379740 0.500030 -0.555405
O7    O     O_R   0.499910 0.620280 0.683200 -0.571090
O8    O     O_R   0.499910 0.379720 0.683200 -0.574412
N3    N     N_2   0.281917 0.389676 0.909330 -0.408407
H16   H     H_    0.236559 0.461185 0.858035 0.329951
C27   C     C_3   0.201574 0.320706 0.000234 -0.649295
H17   H     H_    0.115742 0.286064 0.955423 0.280219
H18   H     H_    0.177107 0.391306 0.078536 0.205358
H19   H     H_    0.247602 0.229196 0.036983 0.202013
N4    N     N_2   0.905009 0.597857 0.277171 -0.466249
H20   H     H_    0.940140 0.690728 0.306464 0.212284
C28   C     C_3   0.931273 0.583238 0.143577 -0.606848
H21   H     H_    0.901958 0.677034 0.094804 0.218729
H22   H     H_    0.880293 0.494885 0.103945 0.247297
H23   H     H_    0.031685 0.570843 0.123557 0.225958
N5    N     N_2   0.886138 0.356010 0.305672 -0.392733
H24   H     H_    0.802550 0.364461 0.263677 0.255279
C29   C     C_3   0.957634 0.237085 0.269808 -0.690257
H25   H     H_    0.894905 0.152269 0.243208 0.236479
H26   H     H_    0.009326 0.199962 0.349575 0.216691
H27   H     H_    0.019460 0.260936 0.188035 0.228837
F1    F     F_    0.722001 0.121500 0.506648 -0.674219
F2    F     F_    0.717245 0.865610 0.549905 -0.629162
N6    N     N_2   0.378693 0.140222 0.705864 -0.375196
H28   H     H_    0.317895 0.220287 0.716802 0.326008
C30   C     C_3   0.448528 0.110326 0.815834 -0.674259
H29   H     H_    0.513667 0.195119 0.834406 0.243931
H30   H     H_    0.502871 0.017153 0.808719 0.173657
H31   H     H_    0.384396 0.099368 0.898317 0.216986
N7    N     N_2   0.353100 0.848764 0.688728 -0.360477
H32   H     H_    0.419547 0.832567 0.752079 0.252562
C31   C     C_3   0.232474 0.875239 0.747053 -0.508509
H33   H     H_    0.209245 0.793144 0.815818 0.257349
H34   H     H_    0.160202 0.880501 0.676707 0.239230
H35   H     H_    0.231523 0.972475 0.800121 0.214745
N8    N     N_2   0.392018 0.141368 0.304346 -0.373531
H36   H     H_    0.410614 0.192573 0.223001 0.276390
C32   C     C_3   0.259225 0.121479 0.324188 -0.754046
H37   H     H_    0.214178 0.116446 0.232926 0.217076
H38   H     H_    0.220884 0.210345 0.373584 0.236613
H39   H     H_    0.231465 0.027323 0.374637 0.227656
N9    N     N_2   0.384287 0.866250 0.309436 -0.436878
H40   H     H_    0.342720 0.779421 0.344931 0.291793
C33   C     C_3   0.359261 0.879482 0.177004 -0.764641
H41   H     H_    0.260741 0.853276 0.162316 0.223353
H42   H     H_    0.416009 0.810464 0.120472 0.231687
H43   H     H_    0.376379 0.982179 0.138321 0.237029
N10   N     N_2   0.611989 0.134479 0.301220 -0.385141
H44   H     H_    0.654145 0.220403 0.335204 0.339373
C34   C     C_3   0.636029 0.120877 0.167118 -0.782435
H45   H     H_    0.722415 0.065084 0.147347 0.242552
H46   H     H_    0.654924 0.223187 0.126174 0.229902
H47   H     H_    0.561452 0.066792 0.119247 0.225341
N11   N     N_2   0.602620 0.859877 0.289049 -0.361464
H48   H     H_    0.586898 0.841589 0.196671 0.259927
C35   C     C_3   0.734188 0.867022 0.307099 -0.533692
H49   H     H_    0.785667 0.859595 0.215673 0.148996
H50   H     H_    0.761239 0.777392 0.358415 0.281820
H51   H     H_    0.764882 0.962505 0.351608 0.305267
F3    F     F_    0.101443 0.632556 0.689228 -0.592795
F4    F     F_    0.104561 0.367600 0.697798 -0.607268
F5    F     F_    0.874186 0.651101 0.676043 -0.526840
F6    F     F_    0.873165 0.384248 0.697140 -0.566385

loop_
_geom_bond_atom_site_label_1
_geom_bond_atom_site_label_2
_ccdc_geom_bond_type
Cu1   O3    S    
C7    C10   S    
N5    C29   S    
Cu2   O2    S    
C1    C8    S    
C10   N4    S    
C30   H31   S    
C4    C8    S    
C6    C9    S    
N11   C35   S    
C7    C8    S    
C22   N3    S    
N6    C30   S    
C21   C22   S    
C24   C26   S    
C15   N1    S    
Cu2   O6    S    
N8    C32   S    
C1    O1    A    
C35   H49   S    
C3    F3    S    
C15   C16   S    
C27   H17   S    
N4    C28   S    
C7    H14   S    
N9    H40   S    
C28   H22   S    
C19   O7    A    
C16   N11   S    
C20   C24   S    
C3    H10   S    
C29   H25   S    
C6    H13   S    
C23   C24   S    
C17   O3    A    
C14   N7    S    
C9    C10   S    
Cu1   O5    S    
C19   O8    A    
N5    H24   S    
C13   C14   S    
C2    C17   S    
C34   H46   S    
N11   H48   S    
C18   O6    A    
C14   N2    S    
C10   N5    S    
N3    C27   S    
C24   H7    S    
N6    H28   S    
C2    C20   S    
C30   H29   S    
N7    C31   S    
C3    C8    S    
C17   O4    A    
C11   F1    S    
C1    O2    A    
C21   H6    S    
C33   H43   S    
C25   C26   S    
Cu2   N1    S    
C34   H47   S    
N4    H20   S    
C19   C23   S    
C6    F6    S    
C5    C9    S    
C28   H21   S    
Cu2   O4    S    
C4    H11   S    
Cu2   O8    S    
C2    C21   S    
N9    C33   S    
C11   N1    S    
C2    C26   S    
C13   N6    S    
C33   H42   S    
C15   N8    S    
C20   H5    S    
Cu1   O1    S    
C4    C6    S    
C4    F4    S    
C32   H38   S    
C16   N9    S    
C31   H34   S    
C20   C22   S    
C15   N10   S    
Cu1   O7    S    
C18   O5    A    
C7    H15   S    
C21   C25   S    
N3    H16   S    
C28   H23   S    
C12   H2    S    
N8    H36   S    
C13   H3    S    
C30   H30   S    
N7    H32   S    
C3    C5    S    
C16   N2    S    
C11   C12   S    
C26   H9    S    
C12   N2    S    
C5    F5    S    
C31   H35   S    
N10   C34   S    
C27   H19   S    
Cu1   N2    S    
C32   H39   S    
C35   H50   S    
C29   H27   S    
C34   H45   S    
C27   H18   S    
C23   C25   S    
C33   H41   S    
C25   H8    S    
C9    C18   S    
C14   H4    S    
C32   H37   S    
C11   H1    S    
C29   H26   S    
N10   H44   S    
C5    H12   S    
Cu1   Cu2   S    
C22   C23   S    
C31   H33   S    
C12   F2    S    
C13   N1    S    
C35   H51   S    
