data_mof_unit_45791.cif
_audit_creation_date              2012-12-10T19:10:05-0500
_audit_creation_method            fapswitch 2.2
_symmetry_space_group_name_H-M    P1
_symmetry_Int_Tables_number       1
_space_group_crystal_system       triclinic
_cell_length_a                    10.846974
_cell_length_b                    10.84395
_cell_length_c                    9.557412
_cell_angle_alpha                 88.484223
_cell_angle_beta                  89.304064
_cell_angle_gamma                 91.217755
_cell_volume                      1123.44342648

loop_
_atom_site_label
_atom_site_type_symbol
_atom_type_description
_atom_site_fract_x
_atom_site_fract_y
_atom_site_fract_z
_atom_type_partial_charge
C1    C     C_R   0.501794 0.262069 0.501353 0.802062
C2    C     C_R   0.264967 0.849047 0.144192 -0.168882
C3    C     C_R   0.937051 0.583624 0.410996 0.097924
C4    C     C_R   0.871688 0.498843 0.499730 -0.083927
C5    C     C_R   0.935000 0.417785 0.590565 -0.018924
C6    C     C_R   0.063907 0.422041 0.591086 0.152768
C7    C     C_R   0.128931 0.504759 0.500925 -0.101226
C8    C     C_R   0.066369 0.585558 0.409704 -0.119724
C9    C     C_R   0.842914 0.361946 0.822431 -0.111108
C10   C     C_R   0.795426 0.277060 0.922152 -0.112280
C11   C     C_R   0.777290 0.154197 0.887440 -0.131770
C12   C     C_R   0.262729 0.503053 0.500345 0.855567
C13   C     C_R   0.804671 0.116199 0.752265 -0.240477
C14   C     C_R   0.852248 0.200416 0.649975 0.031918
C15   C     C_R   0.870003 0.326091 0.685431 0.077813
C16   C     C_R   0.419942 0.057557 0.584814 0.065351
C17   C     C_R   0.503765 0.127823 0.501067 -0.171917
C18   C     C_R   0.571889 0.065633 0.396971 0.125168
C19   C     C_R   0.568470 0.936740 0.396457 -0.206532
C20   C     C_R   0.492569 0.869135 0.491430 -0.120636
C21   C     C_R   0.409647 0.931374 0.574278 0.009897
C22   C     C_3   0.365764 0.908395 0.720883 -0.444664
C23   C     C_R   0.497957 0.736974 0.498099 0.816358
C24   C     C_3   0.389902 0.045934 0.739452 0.297098
C25   C     C_R   0.516173 0.607469 0.070514 0.231585
C26   C     C_R   0.465788 0.397745 0.077747 -0.055401
C27   C     C_R   0.465466 0.398187 0.929442 -0.022280
C28   C     C_R   0.517890 0.607630 0.923634 0.261556
C29   C     C_3   0.624473 0.699006 0.918150 -0.117242
C30   C     C_3   0.620571 0.697434 0.077519 -0.496633
C31   C     C_R   0.737562 0.498282 0.499689 0.834471
C32   C     C_R   0.235029 0.876498 0.282020 -0.098635
C33   C     C_R   0.171105 0.789752 0.367451 -0.168472
C34   C     C_R   0.135102 0.674853 0.315155 0.034324
C35   C     C_R   0.164251 0.646971 0.174527 0.075464
C36   C     C_R   0.229650 0.735360 0.090451 -0.129808
Cu1   Cu    Cu3+1 0.499990 0.499980 0.640670 0.966117
Cu2   Cu    Cu3+1 0.500010 0.500020 0.359330 0.961217
H1    H     H_    0.315498 0.916089 0.078644 0.146676
H2    H     H_    0.742196 0.087989 0.965640 0.156036
H3    H     H_    0.790698 0.019839 0.728234 0.121089
H4    H     H_    0.628950 0.889662 0.325599 0.163856
H5    H     H_    0.266386 0.880851 0.724506 0.183832
H6    H     H_    0.424665 0.846814 0.783537 0.175921
H7    H     H_    0.438338 0.314237 0.134788 0.141072
H8    H     H_    0.261750 0.965158 0.322814 0.148009
H9    H     H_    0.437462 0.316257 0.877951 0.133024
H10   H     H_    0.603061 0.790569 0.871287 0.132383
H11   H     H_    0.701774 0.656339 0.128346 0.232208
H12   H     H_    0.591002 0.786565 0.119751 0.177294
H13   H     H_    0.149161 0.812197 0.474565 0.128822
H14   H     H_    0.253827 0.716566 0.982925 0.156121
H15   H     H_    0.863639 0.455034 0.853525 0.168461
H16   H     H_    0.775231 0.306071 0.027362 0.151728
N1    N     N_R   0.500790 0.500930 0.147930 -0.187674
N2    N     N_R   0.500790 0.500890 0.852020 -0.175032
O1    O     O_R   0.500000 0.319640 0.618810 -0.595222
O2    O     O_R   0.500010 0.319680 0.381230 -0.599631
O3    O     O_R   0.319640 0.499990 0.618790 -0.547398
O4    O     O_R   0.319650 0.500030 0.381210 -0.585454
O5    O     O_R   0.499990 0.680320 0.618770 -0.602025
O6    O     O_R   0.500000 0.680360 0.381190 -0.574544
O7    O     O_R   0.680350 0.499970 0.618790 -0.582432
O8    O     O_R   0.680360 0.500010 0.381210 -0.557157
C37   C     C_2   0.887689 0.150729 0.512109 0.281314
H17   H     H_    0.872594 0.053343 0.492915 0.088861
O9    O     O_2   0.933596 0.216032 0.418553 -0.559033
N3    N     N_3   0.648515 0.129395 0.294006 -0.588104
H18   H     H_    0.698784 0.199743 0.341124 0.250430
H19   H     H_    0.591719 0.168957 0.218498 0.229033
N4    N     N_3   0.278970 0.110284 0.779725 -0.588504
H20   H     H_    0.260324 0.089881 0.885526 0.231435
H21   H     H_    0.299031 0.204449 0.771069 0.241681
N5    N     N_3   0.494517 0.071081 0.831257 -0.619453
H22   H     H_    0.563506 0.007225 0.813827 0.206615
H23   H     H_    0.534041 0.156261 0.801898 0.238855
N6    N     N_3   0.737966 0.648571 0.862466 -0.552349
H24   H     H_    0.812500 0.692892 0.909919 0.212854
H25   H     H_    0.744639 0.676524 0.757185 0.237335
C38   C     C_2   0.128258 0.526342 0.115459 0.309140
H26   H     H_    0.077697 0.457368 0.178722 0.112966
O10   O     O_2   0.154967 0.502229 0.994909 -0.579732
N7    N     N_3   0.871123 0.670633 0.326176 -0.600869
H27   H     H_    0.895667 0.759705 0.356413 0.218556
H28   H     H_    0.898504 0.661053 0.221883 0.215241
N8    N     N_3   0.130410 0.337928 0.678679 -0.577909
H29   H     H_    0.104256 0.349784 0.782939 0.263173
H30   H     H_    0.107190 0.247981 0.650757 0.242381

loop_
_geom_bond_atom_site_label_1
_geom_bond_atom_site_label_2
_ccdc_geom_bond_type
C16   C21   A    
C19   C20   A    
C26   N1    A    
C13   H3    S    
C28   N2    A    
C7    C8    A    
N6    H24   S    
C25   C28   A    
C26   C27   A    
C29   C30   S    
N5    H23   S    
C28   C29   S    
C18   C19   A    
C5    C6    A    
C38   H26   S    
N8    H30   S    
C18   N3    S    
C35   C38   S    
C2    C36   A    
C2    C32   A    
C34   C35   A    
C26   H7    S    
Cu2   O2    S    
C12   O3    A    
C2    H1    S    
C23   O6    A    
C22   H6    S    
Cu2   N1    S    
C22   H5    S    
C16   C17   A    
C37   O9    D    
C9    C10   A    
C36   H14   S    
C19   H4    S    
C30   H12   S    
C16   C24   S    
C21   C22   S    
Cu1   N2    S    
Cu1   O7    S    
C33   C34   A    
Cu2   O8    S    
N6    H25   S    
C7    C12   S    
N5    H22   S    
C29   H10   S    
C31   O7    A    
C38   O10   D    
C3    C8    A    
N4    H21   S    
N8    H29   S    
N3    H18   S    
C35   C36   A    
Cu1   Cu2   S    
C1    O1    A    
N7    H27   S    
C20   C23   S    
C17   C18   A    
C8    C34   S    
Cu1   O3    S    
Cu2   O4    S    
N7    H28   S    
C30   H11   S    
C3    N7    S    
C22   C24   S    
C9    H15   S    
C3    C4    A    
C27   H9    S    
C25   C30   S    
C27   N2    A    
C32   H8    S    
C31   O8    A    
C25   N1    A    
C4    C5    A    
Cu1   O5    S    
C6    C7    A    
C33   H13   S    
C1    C17   S    
C6    N8    S    
C32   C33   A    
C9    C15   A    
N4    H20   S    
C1    O2    A    
C11   C13   A    
C24   N5    S    
C14   C37   S    
C11   H2    S    
C10   H16   S    
C5    C15   S    
C4    C31   S    
C10   C11   A    
C12   O4    A    
C23   O5    A    
C29   N6    S    
C20   C21   A    
N3    H19   S    
C37   H17   S    
C14   C15   A    
C13   C14   A    
Cu1   O1    S    
C24   N4    S    
Cu2   O6    S    
