data_mof_unit_24989.cif
_audit_creation_date              2012-12-11T16:43:13-0500
_audit_creation_method            fapswitch 2.2
_symmetry_space_group_name_H-M    P1
_symmetry_Int_Tables_number       1
_space_group_crystal_system       triclinic
_cell_length_a                    6.952644
_cell_length_b                    23.237086
_cell_length_c                    25.853024
_cell_angle_alpha                 104.778963
_cell_angle_beta                  90.343002
_cell_angle_gamma                 90.628254
_cell_volume                      4038.20371186

loop_
_atom_site_label
_atom_site_type_symbol
_atom_type_description
_atom_site_fract_x
_atom_site_fract_y
_atom_site_fract_z
_atom_type_partial_charge
O1    O     O_R   0.505750 0.453350 0.547660 -0.544563
O2    O     O_R   0.170990 0.432220 0.437590 -0.543221
O3    O     O_R   0.005600 0.546650 0.452340 -0.543985
C1    C     C_R   0.338136 0.418011 0.415657 0.717375
O4    O     O_R   0.175720 0.446240 0.546340 -0.517875
O5    O     O_R   0.010370 0.560770 0.561860 -0.540048
C2    C     C_R   0.346231 0.432417 0.561651 0.747814
O6    O     O_R   0.500990 0.439230 0.438140 -0.539857
O7    O     O_3   0.340820 0.537560 0.504970 -0.371779
V1    V     V_3+5 0.064050 0.493030 0.499080 1.404427
O8    O     O_R   0.680940 0.567780 0.562410 -0.542046
C3    C     C_R   0.850964 0.584427 0.582477 0.705041
O9    O     O_R   0.676210 0.553760 0.453660 -0.541492
C4    C     C_R   0.845101 0.565394 0.436861 0.687105
V2    V     V_3+5 0.564640 0.506970 0.500920 1.380836
O10   O     O_3   0.837740 0.462440 0.495030 -0.373962
C5    C     C_R   0.775611 0.885997 0.123688 -0.181762
H1    H     H_    0.646227 0.907377 0.114882 0.122184
C6    C     C_R   0.763725 0.849745 0.159290 -0.067690
H2    H     H_    0.626408 0.844949 0.177385 0.137627
C7    C     C_R   0.927488 0.821059 0.172195 0.128859
C8    C     C_R   0.104218 0.830287 0.149082 -0.141219
H3    H     H_    0.232986 0.808662 0.157963 0.153825
C9    C     C_R   0.116486 0.866888 0.113683 -0.165362
H4    H     H_    0.254799 0.872782 0.096553 0.129638
C10   C     C_R   0.952104 0.895095 0.100360 -0.055782
C11   C     C_R   0.057867 0.786310 0.249816 -0.215971
H5    H     H_    0.177409 0.817342 0.253082 0.140258
C12   C     C_R   0.046507 0.751095 0.286321 -0.144774
H6    H     H_    0.157613 0.755985 0.316716 0.123011
C13   C     C_R   0.891618 0.711120 0.284408 -0.004541
C14   C     C_R   0.749129 0.707024 0.244736 -0.224326
H7    H     H_    0.630185 0.675780 0.241424 0.143859
C15   C     C_R   0.760428 0.742050 0.208013 0.625613
C16   C     C_R   0.914824 0.782552 0.210335 -0.039774
C17   C     C_R   0.701205 0.662778 0.345095 -0.143565
H8    H     H_    0.570642 0.681932 0.334138 0.102196
C18   C     C_R   0.689864 0.627853 0.381897 -0.165987
H9    H     H_    0.550488 0.620541 0.397752 0.120962
C19   C     C_R   0.856283 0.603003 0.398119 -0.051833
C20   C     C_R   0.034060 0.613766 0.376283 -0.170625
H10   H     H_    0.165125 0.594900 0.387285 0.124095
C21   C     C_R   0.045297 0.648641 0.339517 -0.139415
H11   H     H_    0.184189 0.655245 0.323045 0.106515
C22   C     C_R   0.879152 0.673726 0.323475 0.128556
C23   C     C_R   0.713824 0.644725 0.668764 -0.224654
C24   C     C_R   0.864875 0.634057 0.631643 -0.082749
C25   C     C_R   0.031572 0.670281 0.642222 -0.218256
C26   C     C_R   0.047438 0.716907 0.688934 0.088616
C27   C     C_R   0.896622 0.726724 0.726328 0.053577
C28   C     C_R   0.729711 0.690281 0.716324 0.091201
C29   C     C_R   0.211581 0.753920 0.698958 -0.190955
C30   C     C_R   0.227428 0.799837 0.745927 -0.183759
C31   C     C_R   0.079785 0.809459 0.783842 0.092044
C32   C     C_R   0.912880 0.773013 0.773843 0.053347
C33   C     C_R   0.762044 0.782845 0.811231 0.087639
C34   C     C_R   0.597942 0.745812 0.801219 -0.186832
C35   C     C_R   0.582105 0.699887 0.754251 -0.182533
C36   C     C_R   0.095606 0.855052 0.831373 -0.223481
C37   C     C_R   0.944482 0.865771 0.868469 -0.083066
C38   C     C_R   0.777832 0.829519 0.857916 -0.213388
H12   H     H_    0.585575 0.616768 0.661162 0.122443
H13   H     H_    0.148350 0.662581 0.613762 0.128980
H14   H     H_    0.328516 0.747128 0.670599 0.134513
H15   H     H_    0.356033 0.827602 0.752758 0.135107
H16   H     H_    0.223848 0.883013 0.838963 0.122728
H17   H     H_    0.661026 0.837246 0.886367 0.130589
H18   H     H_    0.481007 0.752604 0.829577 0.136861
H19   H     H_    0.453510 0.672117 0.747422 0.135638
C39   C     C_R   0.291372 0.171789 0.136973 -0.215449
C40   C     C_R   0.457074 0.136447 0.129755 -0.085153
C41   C     C_R   0.603220 0.149354 0.169044 -0.224127
C42   C     C_R   0.581150 0.195745 0.215814 0.095353
C43   C     C_R   0.413898 0.230946 0.222624 0.064295
C44   C     C_R   0.270027 0.219047 0.182643 0.093428
C45   C     C_R   0.722129 0.207136 0.256254 -0.181078
C46   C     C_R   0.697429 0.252536 0.302959 -0.181800
C47   C     C_R   0.532311 0.287969 0.309912 0.084863
C48   C     C_R   0.390295 0.277894 0.269488 0.018010
C49   C     C_R   0.226170 0.314739 0.275438 0.083443
C50   C     C_R   0.084387 0.301389 0.234455 -0.181230
C51   C     C_R   0.105803 0.254224 0.189109 -0.201891
C52   C     C_R   0.507459 0.332825 0.356956 -0.246003
C53   C     C_R   0.347390 0.370617 0.364193 -0.116728
C54   C     C_R   0.209221 0.363931 0.321613 0.096271
H20   H     H_    0.178475 0.162629 0.106740 0.129079
H21   H     H_    0.730971 0.122211 0.164009 0.124163
H22   H     H_    0.851310 0.180717 0.251910 0.135737
H23   H     H_    0.808480 0.260165 0.333638 0.132890
H24   H     H_    0.615438 0.338581 0.388389 0.138254
H25   H     H_    0.953536 0.326446 0.236802 0.147770
H26   H     H_    0.992923 0.245304 0.158903 0.132420
C55   C     C_R   0.303217 0.098246 0.863969 -0.207425
H27   H     H_    0.199478 0.062495 0.861538 0.125826
C56   C     C_R   0.284461 0.133901 0.828181 -0.151524
H28   H     H_    0.166060 0.125273 0.799723 0.118290
C57   C     C_R   0.415029 0.180606 0.829451 0.074203
C58   C     C_R   0.565008 0.190986 0.867439 -0.168675
H29   H     H_    0.666310 0.227039 0.868448 0.108167
C59   C     C_R   0.586960 0.155453 0.903903 0.134546
C60   C     C_R   0.454190 0.107619 0.901876 -0.066737
C61   C     C_R   0.415922 0.280728 0.808734 -0.192704
H30   H     H_    0.439774 0.301076 0.850930 0.113199
C62   C     C_R   0.400913 0.317083 0.772802 0.154634
C63   C     C_R   0.368944 0.290163 0.717584 0.097252
C64   C     C_R   0.345305 0.228036 0.700485 -0.185990
H31   H     H_    0.321036 0.206593 0.658526 0.134383
C65   C     C_R   0.357686 0.192709 0.736745 -0.162515
H32   H     H_    0.342359 0.144880 0.721978 0.120591
C66   C     C_R   0.395581 0.218520 0.791130 0.065765
C67   C     C_R   0.210147 0.320958 0.641555 -0.241967
H33   H     H_    0.090244 0.291317 0.643164 0.140409
C68   C     C_R   0.213547 0.351917 0.601651 0.563238
C69   C     C_R   0.362455 0.391749 0.598740 -0.176147
C70   C     C_R   0.536710 0.383952 0.625057 0.016263
C71   C     C_R   0.533266 0.354648 0.666596 -0.175513
H34   H     H_    0.664944 0.349896 0.687717 0.113215
C72   C     C_R   0.366390 0.325225 0.676782 0.006123
O11   O     O_R   0.308350 0.060850 0.061810 -0.538568
O12   O     O_R   0.633860 0.053770 0.953650 -0.540193
O13   O     O_R   0.798960 0.939210 0.938150 -0.538332
C73   C     C_R   0.465182 0.067177 0.938317 0.694222
O14   O     O_R   0.638360 0.067800 0.062400 -0.540347
O15   O     O_R   0.803500 0.953330 0.047670 -0.538807
C74   C     C_R   0.469932 0.084991 0.082084 0.701665
O16   O     O_R   0.303810 0.046730 0.952290 -0.541061
O17   O     O_3   0.468430 0.962490 0.995010 -0.367235
V3    V     V_3+5 0.745300 0.006960 0.000930 1.396516
O18   O     O_R   0.132880 0.946160 0.046390 -0.541992
C75   C     C_R   0.963808 0.934054 0.062755 0.697897
O19   O     O_R   0.128380 0.932130 0.937650 -0.541480
C76   C     C_R   0.958352 0.915469 0.917589 0.712105
V4    V     V_3+5 0.244670 0.992930 0.999140 1.398378
O20   O     O_3   0.971670 0.037510 0.005000 -0.369798
C77   C     C_3   0.056468 0.411089 0.322246 -0.376021
C78   C     C_3   0.104278 0.448110 0.282745 -0.758243
H35   H     H_    0.244820 0.471429 0.293593 0.225100
H36   H     H_    0.111264 0.420142 0.241089 0.235849
H37   H     H_    0.991649 0.482080 0.284496 0.224083
H38   H     H_    0.911644 0.390129 0.313826 0.174774
H39   H     H_    0.041299 0.443589 0.361062 0.199615
C79   C     C_3   0.749426 0.171551 0.944737 -0.359958
C80   C     C_3   0.673927 0.198421 0.001021 -0.717477
H40   H     H_    0.593510 0.239708 0.001935 0.219969
H41   H     H_    0.577487 0.166807 0.014299 0.210643
H42   H     H_    0.796718 0.209766 0.029627 0.208778
H43   H     H_    0.840631 0.132523 0.943899 0.199289
H44   H     H_    0.848121 0.205041 0.934723 0.171375
C81   C     C_3   0.413032 0.384024 0.794852 -0.366115
C82   C     C_3   0.216426 0.412490 0.794059 -0.739805
H45   H     H_    0.161762 0.405650 0.752497 0.223092
H46   H     H_    0.111552 0.393089 0.817359 0.226038
H47   H     H_    0.228821 0.461109 0.812412 0.218279
H48   H     H_    0.517849 0.403933 0.772079 0.178857
H49   H     H_    0.466201 0.395609 0.836934 0.176757
F1    F     F_    0.098682 0.332769 0.558783 -0.731636
C83   C     C_3   0.727526 0.389536 0.599510 -0.283218
C84   C     C_3   0.728926 0.347074 0.542650 -0.477616
H50   H     H_    0.759645 0.301044 0.545158 0.225949
H51   H     H_    0.590771 0.344694 0.520615 0.162998
H52   H     H_    0.837302 0.361932 0.517479 0.254612
H53   H     H_    0.760442 0.436266 0.599373 0.176035
H54   H     H_    0.845052 0.377213 0.623539 0.174539
F2    F     F_    0.623154 0.734836 0.169253 -0.700890

loop_
_geom_bond_atom_site_label_1
_geom_bond_atom_site_label_2
_ccdc_geom_bond_type
C80   H42   S    
C32   C33   A    
C55   H27   S    
C11   C12   A    
C42   C43   A    
C56   H28   S    
C44   C51   A    
C1    O6    A    
C37   C76   S    
C49   C54   A    
C69   C70   A    
C34   C35   A    
C77   C78   S    
C46   C47   A    
C65   H32   S    
C46   H23   S    
C83   C84   S    
C70   C83   S    
C67   C72   A    
C5    C10   A    
C2    C69   S    
C7    C8    A    
C17   H8    S    
C6    C7    A    
C9    C10   A    
O18   C75   A    
C15   F2    S    
C78   H37   S    
C36   H16   S    
O5    C3    A    
C18   H9    S    
O14   C74   A    
C64   H31   S    
C80   H40   S    
C51   H26   S    
C71   H34   S    
C5    H1    S    
C15   C16   A    
C20   H10   S    
C84   H52   S    
C31   C32   A    
O8    V2    S    
C47   C52   A    
C67   H33   S    
O16   V4    S    
C65   C66   A    
C82   H47   S    
C27   C32   A    
C9    H4    S    
C39   C40   A    
O1    V2    S    
C30   H15   S    
O7    V1    S    
C83   H54   S    
C10   C75   S    
O15   V3    S    
C36   C37   A    
C55   C56   A    
C81   H48   S    
O9    C4    A    
C84   H51   S    
C20   C21   A    
C61   H30   S    
C3    C24   S    
C62   C63   A    
O12   C73   A    
C57   C58   A    
C31   C36   A    
C8    H3    S    
C77   H38   S    
C43   C44   A    
C24   C25   A    
C79   H44   S    
C45   C46   A    
O13   V3    S    
C78   H36   S    
C29   H14   S    
C55   C60   A    
O4    C2    A    
C47   C48   A    
C41   C42   A    
C25   H13   S    
C11   C16   A    
C30   C31   A    
C23   C28   A    
C50   C51   A    
C37   C38   A    
C14   C15   A    
C62   C81   S    
C73   O16   A    
O2    C1    A    
C21   H11   S    
C12   H6    S    
V3    O20   S    
C38   H17   S    
C52   C53   A    
C1    C53   S    
C26   C29   A    
O12   V3    S    
C27   C28   A    
O15   C75   A    
C17   C22   A    
C67   C68   A    
C28   C35   A    
O11   V4    S    
C53   C54   A    
C61   C62   A    
C21   C22   A    
O3    C4    A    
C54   C77   S    
O18   V4    S    
O11   C74   A    
C19   C20   A    
C23   H12   S    
C58   H29   S    
O6    V2    S    
C58   C59   A    
C43   C48   A    
O9    V2    S    
C84   H50   S    
C42   C45   A    
C82   H46   S    
C63   C72   S    
C61   C66   A    
C33   C34   A    
C34   H18   S    
O17   V3    S    
C39   H20   S    
C11   H5    S    
C41   H21   S    
C29   C30   A    
C68   C69   A    
C80   H41   S    
C52   H24   S    
C45   H22   S    
C23   C24   A    
C25   C26   A    
O1    C2    A    
C79   H43   S    
C13   C14   A    
O17   V4    S    
C49   C50   A    
O19   V4    S    
O5    V1    S    
O8    C3    A    
C56   C57   A    
C35   H19   S    
C7    C16   S    
C63   C64   A    
C60   C73   S    
C82   H45   S    
C14   H7    S    
C6    H2    S    
C17   C18   A    
O7    V2    S    
O4    V1    S    
C12   C13   A    
O3    V1    S    
C59   C79   S    
C81   C82   S    
C18   C19   A    
C57   C66   S    
O14   V3    S    
V4    O20   S    
C64   C65   A    
C59   C60   A    
C5    C6    A    
C71   C72   A    
C8    C9    A    
C81   H49   S    
O19   C76   A    
C4    C19   S    
C48   C49   A    
C50   H25   S    
C77   H39   S    
C40   C41   A    
C26   C27   A    
C13   C22   S    
C39   C44   A    
C79   C80   S    
C33   C38   A    
C40   C74   S    
V1    O10   S    
C68   F1    S    
C70   C71   A    
O13   C76   A    
C83   H53   S    
C78   H35   S    
V2    O10   S    
O2    V1    S    
