data_mof_unit_47584.cif
_audit_creation_date              2012-12-10T18:44:27-0500
_audit_creation_method            fapswitch 2.2
_symmetry_space_group_name_H-M    P1
_symmetry_Int_Tables_number       1
_space_group_crystal_system       triclinic
_cell_length_a                    12.909288
_cell_length_b                    10.650138
_cell_length_c                    9.842911
_cell_angle_alpha                 89.899148
_cell_angle_beta                  97.197411
_cell_angle_gamma                 90.435173
_cell_volume                      1342.55713223

loop_
_atom_site_label
_atom_site_type_symbol
_atom_type_description
_atom_site_fract_x
_atom_site_fract_y
_atom_site_fract_z
_atom_type_partial_charge
C1    C     C_R   0.500390 0.260252 0.500030 1.009179
C2    C     C_R   0.701954 0.498993 0.527221 0.938455
C3    C     C_R   0.814139 0.493273 0.545169 -0.248468
C4    C     C_R   0.185718 0.492152 0.456671 -0.202927
C5    C     C_R   0.019583 0.461816 0.318266 0.112042
C6    C     C_R   0.980289 0.504566 0.687328 0.120755
C7    C     C_R   0.127707 0.471641 0.328413 0.556960
C8    C     C_R   0.872131 0.506244 0.674738 0.601564
C9    C     C_R   0.136848 0.502836 0.574418 -0.340014
C10   C     C_R   0.863222 0.473527 0.429158 -0.326382
C11   C     C_R   0.029857 0.492527 0.567754 -0.013581
C12   C     C_R   0.499601 0.739744 0.499976 1.005956
C13   C     C_R   0.970596 0.474315 0.437877 0.037070
C14   C     C_R   0.430822 0.065212 0.403854 0.521184
C15   C     C_R   0.568941 0.934798 0.596255 0.523278
C16   C     C_R   0.427955 0.935759 0.404072 0.028783
C17   C     C_R   0.571964 0.064216 0.595816 0.023934
C18   C     C_3   0.936528 0.312444 0.155012 -0.719676
C19   C     C_3   0.057173 0.640146 0.870095 -0.719130
C20   C     C_3   0.260508 0.830816 0.366165 -0.711187
C21   C     C_3   0.740171 0.167222 0.632484 -0.705457
C22   C     C_3   0.741442 0.668780 0.136795 -0.753545
C23   C     C_R   0.498109 0.872077 0.500236 -0.311845
C24   C     C_3   0.389553 0.208302 0.852444 -0.730978
C25   C     C_R   0.501730 0.127918 0.499804 -0.309617
C26   C     C_R   0.566896 0.577116 0.082741 0.252269
C27   C     C_R   0.434377 0.421688 0.917703 0.251355
C28   C     C_R   0.565470 0.577633 0.937930 -0.118476
C29   C     C_R   0.433658 0.423472 0.061792 -0.134710
C30   C     C_R   0.298009 0.498516 0.472996 0.934361
F1    F     F_    0.824596 0.520595 0.789383 -0.658096
F2    F     F_    0.175336 0.458869 0.213655 -0.676042
F3    F     F_    0.361795 0.129988 0.314669 -0.667800
F4    F     F_    0.637988 0.870057 0.685447 -0.670717
H1    H     H_    0.817110 0.459972 0.330651 0.230496
H2    H     H_    0.097930 0.637625 0.976324 0.249430
H3    H     H_    0.982656 0.691490 0.870910 0.272395
H4    H     H_    0.107425 0.690985 0.804132 0.221357
H5    H     H_    0.337380 0.913274 0.216148 0.267752
H6    H     H_    0.215002 0.914334 0.390131 0.247967
H7    H     H_    0.280460 0.774535 0.460777 0.214821
H8    H     H_    0.211378 0.771753 0.290234 0.236567
H9    H     H_    0.662800 0.087221 0.783393 0.266582
H10   H     H_    0.784874 0.082844 0.609139 0.247860
H11   H     H_    0.789935 0.226173 0.707835 0.240613
H12   H     H_    0.183006 0.521991 0.671571 0.197718
H13   H     H_    0.720549 0.222929 0.537389 0.214424
H14   H     H_    0.601555 0.745232 0.181551 0.233428
H15   H     H_    0.746684 0.732059 0.048061 0.246707
H16   H     H_    0.771841 0.574682 0.114617 0.272779
H17   H     H_    0.790975 0.708361 0.227148 0.243554
H18   H     H_    0.288123 0.357955 0.843863 0.210608
H19   H     H_    0.340757 0.153415 0.772265 0.235552
H20   H     H_    0.372864 0.175016 0.954606 0.234708
H21   H     H_    0.472984 0.191259 0.842075 0.258264
H22   H     H_    0.616221 0.640196 0.889687 0.210688
H23   H     H_    0.380517 0.362976 0.108756 0.212499
H24   H     H_    0.989697 0.489163 0.108643 0.289049
H25   H     H_    0.895060 0.268159 0.235308 0.233232
H26   H     H_    0.009523 0.260122 0.145963 0.262953
H27   H     H_    0.885115 0.306647 0.055895 0.254000
H28   H     H_    0.100189 0.454566 0.839740 0.226855
N1    N     N_R   0.499970 0.499970 0.857200 -0.113869
N2    N     N_R   0.500030 0.500030 0.142800 -0.117219
N3    N     N_2   0.960372 0.442644 0.187637 -0.310988
N4    N     N_2   0.036933 0.513329 0.820951 -0.278285
N5    N     N_2   0.354006 0.869763 0.309989 -0.265627
N6    N     N_2   0.646440 0.130152 0.689193 -0.269676
N7    N     N_2   0.634593 0.659381 0.166426 -0.267983
N8    N     N_2   0.365461 0.340304 0.835265 -0.259497
O1    O     O_R   0.499990 0.316750 0.614620 -0.594602
O2    O     O_R   0.500010 0.683250 0.385380 -0.619011
O3    O     O_R   0.499990 0.316780 0.385290 -0.595394
O4    O     O_R   0.500010 0.683220 0.614710 -0.596251
O5    O     O_R   0.346360 0.499970 0.595710 -0.640792
O6    O     O_R   0.653640 0.500030 0.404290 -0.624903
O7    O     O_R   0.346360 0.499990 0.366380 -0.548131
O8    O     O_R   0.653640 0.500010 0.633620 -0.548448
Zn1   Zn    Zn3+2 0.500000 0.499980 0.653120 1.010643
Zn2   Zn    Zn3+2 0.500000 0.500020 0.346880 1.008680

loop_
_geom_bond_atom_site_label_1
_geom_bond_atom_site_label_2
_ccdc_geom_bond_type
C12   O4    A    
C27   C29   A    
C20   N5    S    
H14   N7    S    
C14   F3    S    
O1    Zn1   S    
C20   H7    S    
C28   H22   S    
C24   N8    S    
N1    Zn1   S    
C18   N3    S    
C12   C23   S    
C1    O1    A    
C19   H2    S    
C20   H6    S    
C24   H20   S    
C19   N4    S    
C26   N2    A    
C19   H3    S    
C30   O7    A    
H9    N6    S    
C10   H1    S    
C15   F4    S    
C5    C13   A    
C22   H16   S    
C15   C23   A    
C12   O2    A    
C29   N2    A    
C9    H12   S    
C1    C25   S    
N2    Zn2   S    
C4    C7    A    
C21   H11   S    
H28   N4    S    
C5    N3    S    
C3    C8    A    
C6    C11   A    
C5    C7    A    
O8    Zn1   S    
C6    C8    A    
C24   H19   S    
C24   H21   S    
C2    O8    A    
C19   H4    S    
C21   H10   S    
H24   N3    S    
C16   N5    S    
C9    C11   A    
C27   N8    S    
C27   N1    A    
C22   H15   S    
C18   H26   S    
C29   H23   S    
C16   C23   A    
O4    Zn1   S    
C21   N6    S    
C14   C16   A    
C2    O6    A    
O7    Zn2   S    
C15   C17   A    
C17   N6    S    
C7    F2    S    
C22   N7    S    
C8    F1    S    
H5    N5    S    
O6    Zn2   S    
C10   C13   A    
C20   H8    S    
C18   H27   S    
C26   C28   A    
C1    O3    A    
C2    C3    S    
C17   C25   A    
O2    Zn2   S    
C3    C10   A    
C30   O5    A    
C11   C13   A    
O3    Zn2   S    
C14   C25   A    
H18   N8    S    
C28   N1    A    
C18   H25   S    
C6    N4    S    
C26   N7    S    
C4    C9    A    
O5    Zn1   S    
C4    C30   S    
C22   H17   S    
C21   H13   S    
