data_mof_unit_49294.cif
_audit_creation_date              2012-12-10T18:34:37-0500
_audit_creation_method            fapswitch 2.2
_symmetry_space_group_name_H-M    P1
_symmetry_Int_Tables_number       1
_space_group_crystal_system       triclinic
_cell_length_a                    13.027956
_cell_length_b                    15.141423
_cell_length_c                    13.852355
_cell_angle_alpha                 89.812043
_cell_angle_beta                  95.566884
_cell_angle_gamma                 89.844292
_cell_volume                      2719.62543607

loop_
_atom_site_label
_atom_site_type_symbol
_atom_type_description
_atom_site_fract_x
_atom_site_fract_y
_atom_site_fract_z
_atom_type_partial_charge
C1    C     C_R   0.501624 0.329262 0.500380 0.951645
C2    C     C_R   0.494213 0.669667 0.498689 0.981760
C3    C     C_R   0.502606 0.231338 0.502173 -0.318979
C4    C     C_R   0.491370 0.765907 0.495749 -0.308558
C5    C     C_R   0.451674 0.182503 0.424218 0.322735
C6    C     C_R   0.582239 0.812956 0.525014 0.291693
C7    C     C_R   0.452871 0.090910 0.428673 -0.199985
C8    C     C_R   0.578469 0.904524 0.527738 -0.192006
C9    C     C_R   0.487274 0.046502 0.513897 -0.051506
C10   C     C_R   0.484565 0.949444 0.512282 -0.031224
C11   C     C_R   0.582621 0.536109 0.114435 0.334591
C12   C     C_R   0.462822 0.426791 0.889755 0.369380
C13   C     C_R   0.580492 0.535957 0.216143 0.088705
C14   C     C_R   0.463309 0.428813 0.787922 0.059388
C15   C     C_R   0.416595 0.468731 0.202040 0.143534
C16   C     C_R   0.532760 0.572565 0.793451 0.080657
C17   C     C_R   0.412864 0.471058 0.100396 -0.251569
C18   C     C_R   0.529331 0.575517 0.894379 -0.250385
C19   C     C_R   0.496528 0.504036 0.054307 -0.012187
C20   C     C_R   0.495004 0.502232 0.945008 0.025120
C21   C     C_R   0.300569 0.503964 0.483068 0.896773
C22   C     C_R   0.699346 0.496750 0.517577 0.985726
C23   C     C_R   0.811848 0.491668 0.528152 -0.183362
C24   C     C_R   0.187801 0.507186 0.475915 -0.191187
C25   C     C_R   0.027359 0.495720 0.373598 0.487514
C26   C     C_R   0.970441 0.494560 0.633207 0.446831
C27   C     C_R   0.134057 0.496453 0.384678 -0.218069
C28   C     C_R   0.864224 0.503726 0.619862 -0.249292
C29   C     C_R   0.133059 0.522315 0.558132 0.313388
C30   C     C_R   0.867610 0.466925 0.450500 0.412051
C31   C     C_R   0.027002 0.500664 0.550890 -0.134590
C32   C     C_R   0.973376 0.487606 0.457021 -0.136037
C33   C     C_R   0.530046 0.093640 0.595390 0.361040
C34   C     C_R   0.392420 0.902816 0.486134 0.362307
C35   C     C_R   0.550474 0.184751 0.584717 0.268525
C36   C     C_R   0.398697 0.811929 0.464260 0.177106
Cu1   Cu    Cu3+1 0.500000 0.499990 0.596430 1.048038
Cu2   Cu    Cu3+1 0.500000 0.500010 0.403570 1.101257
H1    H     H_    0.351599 0.442292 0.235253 0.194120
H2    H     H_    0.560616 0.629512 0.757089 0.167959
H3    H     H_    0.344398 0.447182 0.058099 0.225816
H4    H     H_    0.553262 0.635397 0.932518 0.210203
H5    H     H_    0.821722 0.510289 0.682899 0.185096
H6    H     H_    0.175325 0.494226 0.320501 0.194616
H7    H     H_    0.422598 0.053080 0.366118 0.221629
H8    H     H_    0.648969 0.941676 0.543469 0.228167
H9    H     H_    0.644368 0.564387 0.261056 0.200731
H10   H     H_    0.433219 0.372826 0.746187 0.176280
N1    N     N_R   0.500000 0.500020 0.258690 -0.215893
N2    N     N_R   0.500000 0.499980 0.741310 -0.214956
O1    O     O_R   0.500010 0.371450 0.581430 -0.578433
O2    O     O_R   0.499990 0.628550 0.418570 -0.559840
O3    O     O_R   0.500010 0.371460 0.418560 -0.499117
O4    O     O_R   0.499990 0.628540 0.581440 -0.565796
O5    O     O_R   0.349000 0.499980 0.568210 -0.600214
O6    O     O_R   0.651000 0.500020 0.431790 -0.560946
O7    O     O_R   0.349000 0.499990 0.405340 -0.566228
O8    O     O_R   0.651000 0.500010 0.594660 -0.569330
S1    S     S_3+6 0.819937 0.378994 0.373193 0.070258
O9    O     O_2   0.757703 0.414480 0.284802 -0.288576
O10   O     O_2   0.752218 0.319387 0.425994 -0.250540
O11   O     O_3   0.919005 0.318679 0.339576 -0.480031
H11   H     H_    0.886768 0.273407 0.295029 0.399586
S2    S     S_3+6 0.185790 0.593670 0.654161 0.136070
O12   O     O_2   0.266434 0.653858 0.620238 -0.229885
O13   O     O_2   0.101002 0.650303 0.687111 -0.164319
O14   O     O_3   0.240674 0.536574 0.749981 -0.432673
H12   H     H_    0.270632 0.483424 0.722445 0.349466
S3    S     S_3+6 0.967925 0.523567 0.256880 0.062441
O15   O     O_2   0.952449 0.441897 0.195912 -0.277390
O16   O     O_2   0.865930 0.568314 0.264342 -0.233446
O17   O     O_3   0.044345 0.593707 0.202382 -0.463514
H13   H     H_    0.089401 0.555855 0.166197 0.359474
S4    S     S_3+6 0.020409 0.447918 0.745728 0.077183
O18   O     O_2   0.112999 0.391515 0.732594 -0.241603
O19   O     O_2   0.048856 0.519014 0.818869 -0.204565
O20   O     O_3   0.930375 0.382929 0.788614 -0.489493
H14   H     H_    0.886301 0.423073 0.823085 0.333354
S5    S     S_3+6 0.548518 0.039432 0.710694 0.089169
O21   O     O_2   0.654795 0.999652 0.724325 -0.238155
O22   O     O_2   0.535863 0.103449 0.791330 -0.224883
O23   O     O_3   0.461180 0.958446 0.716823 -0.483577
H15   H     H_    0.484808 0.924563 0.776165 0.378890
S6    S     S_3+6 0.270973 0.956286 0.492587 0.121485
O24   O     O_2   0.236357 0.998757 0.396655 -0.228527
O25   O     O_2   0.191263 0.890739 0.517764 -0.138506
O26   O     O_3   0.281627 0.034764 0.578652 -0.487011
H16   H     H_    0.216024 0.068325 0.569495 0.388391
S7    S     S_3+6 0.647099 0.235460 0.666385 0.091618
O27   O     O_2   0.598138 0.273675 0.750438 -0.312186
O28   O     O_2   0.727259 0.168903 0.703493 -0.165994
O29   O     O_3   0.707092 0.316401 0.611585 -0.516298
H17   H     H_    0.762403 0.336350 0.660647 0.384968
S8    S     S_3+6 0.298854 0.761638 0.384641 0.100112
O30   O     O_2   0.224340 0.714242 0.442286 -0.181376
O31   O     O_2   0.240175 0.830326 0.323094 -0.171102
O32   O     O_3   0.346139 0.689255 0.308554 -0.510069
H18   H     H_    0.389351 0.725063 0.268355 0.350992
S9    S     S_3+6 0.382637 0.231026 0.320324 0.039052
O33   O     O_2   0.458156 0.269850 0.256731 -0.266878
O34   O     O_2   0.318783 0.163192 0.262921 -0.225786
O35   O     O_3   0.303824 0.310980 0.354007 -0.541283
H19   H     H_    0.262118 0.282410 0.401355 0.347391
S10   S     S_3+6 0.703635 0.759707 0.549451 0.057168
O36   O     O_2   0.722790 0.701415 0.465442 -0.260721
O37   O     O_2   0.789336 0.826075 0.563945 -0.192418
O38   O     O_3   0.703780 0.697132 0.649834 -0.534476
H20   H     H_    0.693664 0.739432 0.702500 0.353821
O39   O     O_3   0.666509 0.572915 0.075459 -0.575735
C37   C     C_3   0.732011 0.504681 0.048490 0.082870
H21   H     H_    0.691381 0.458336 0.995696 0.110717
H22   H     H_    0.763609 0.466517 0.113103 0.241187
C38   C     C_3   0.821383 0.545157 0.001035 -0.570062
H23   H     H_    0.862148 0.594000 0.050467 0.304036
H24   H     H_    0.876755 0.492656 0.984840 0.218069
H25   H     H_    0.792232 0.578736 0.932333 0.218895
O40   O     O_3   0.424102 0.352773 0.932243 -0.571295
C39   C     C_3   0.506672 0.300918 0.975262 0.030714
H26   H     H_    0.546298 0.334229 0.039781 0.152939
H27   H     H_    0.564370 0.286581 0.923358 0.205191
C40   C     C_3   0.464490 0.213531 0.008347 -0.515040
H28   H     H_    0.426704 0.177240 0.945082 0.268936
H29   H     H_    0.528336 0.172482 0.043605 0.212518
H30   H     H_    0.407084 0.225551 0.061130 0.275767

loop_
_geom_bond_atom_site_label_1
_geom_bond_atom_site_label_2
_ccdc_geom_bond_type
O26   H16   S    
C4    C36   A    
C11   O39   S    
O35   H19   S    
C19   C20   S    
S6    O26   S    
S10   O37   D    
O32   H18   S    
Cu2   N1    S    
O20   H14   S    
C11   C19   A    
O11   H11   S    
S4    O19   D    
C7    H7    S    
C16   N2    A    
C18   H4    S    
Cu1   O1    S    
Cu2   O2    S    
C15   C17   A    
S3    O16   D    
C1    O3    A    
C37   H21   S    
C40   H30   S    
C37   H22   S    
C17   C19   A    
C24   C29   A    
C13   H9    S    
C27   H6    S    
C5    S9    S    
S4    O20   S    
O38   H20   S    
C24   C27   A    
C6    S10   S    
S7    O28   D    
C9    C10   S    
C18   C20   A    
Cu1   O8    S    
C38   H25   S    
C25   C32   A    
C29   S2    S    
C26   C31   A    
C39   H26   S    
C9    C33   A    
S3    O15   D    
C34   S6    S    
S10   O36   D    
C17   H3    S    
S1    O10   D    
S4    O18   D    
O14   H12   S    
C23   C30   A    
S6    O24   D    
C4    C6    A    
C2    O4    A    
C5    C7    A    
C33   S5    S    
C22   O6    A    
S8    O32   S    
S5    O21   D    
C1    C3    S    
C39   C40   S    
S2    O13   D    
S3    O17   S    
C2    C4    S    
S2    O14   S    
C21   O7    A    
Cu1   Cu2   S    
Cu2   O7    S    
C31   C32   A    
C3    C35   A    
C30   S1    S    
C12   C20   A    
C10   C34   A    
C23   C28   A    
S7    O29   S    
S8    O31   D    
C1    O1    A    
C37   C38   S    
C15   H1    S    
C40   H28   S    
C2    O2    A    
C16   H2    S    
C13   N1    A    
Cu1   O4    S    
C35   S7    S    
C16   C18   A    
S9    O34   D    
C12   C14   A    
C25   S3    S    
C21   O5    A    
C38   H23   S    
C7    C9    A    
S1    O11   S    
C26   C28   A    
S6    O25   D    
O17   H13   S    
C3    C5    A    
C22   O8    A    
S5    O23   S    
C6    C8    A    
C25   C27   A    
C28   H5    S    
S5    O22   D    
S9    O33   D    
S2    O12   D    
C29   C31   A    
O40   C39   S    
C30   C32   A    
Cu1   N2    S    
C11   C13   A    
C33   C35   A    
C14   N2    A    
Cu2   O3    S    
O29   H17   S    
C26   S4    S    
C34   C36   A    
C15   N1    A    
S8    O30   D    
C39   H27   S    
C40   H29   S    
C12   O40   S    
Cu1   O5    S    
C36   S8    S    
S1    O9    D    
S9    O35   S    
Cu2   O6    S    
C8    C10   A    
O23   H15   S    
C21   C24   S    
C14   H10   S    
C22   C23   S    
C8    H8    S    
S7    O27   D    
O39   C37   S    
S10   O38   S    
C38   H24   S    
