data_mof_unit_7236.cif
_audit_creation_date              2012-12-10T20:36:34-0500
_audit_creation_method            fapswitch 2.2
_symmetry_space_group_name_H-M    P1
_symmetry_Int_Tables_number       1
_space_group_crystal_system       triclinic
_cell_length_a                    10.506034
_cell_length_b                    10.65533
_cell_length_c                    9.915999
_cell_angle_alpha                 89.154831
_cell_angle_beta                  90.277136
_cell_angle_gamma                 90.845322
_cell_volume                      1109.79566975

loop_
_atom_site_label
_atom_site_type_symbol
_atom_type_description
_atom_site_fract_x
_atom_site_fract_y
_atom_site_fract_z
_atom_type_partial_charge
C1    C     C_R   0.495693 0.260321 0.500958 0.887776
C2    C     C_3   0.958431 0.598072 0.426052 -0.210227
C3    C     C_3   0.038860 0.489645 0.371440 -0.192247
C4    C     C_3   0.122558 0.499436 0.498391 -0.063008
C5    C     C_R   0.503374 0.061748 0.620789 0.066973
C6    C     C_R   0.474699 0.129044 0.504336 -0.137680
C7    C     C_R   0.418893 0.068374 0.393832 -0.237003
C8    C     C_R   0.415582 0.937533 0.390664 0.164363
C9    C     C_R   0.472374 0.871098 0.499834 -0.123929
C10   C     C_R   0.504219 0.934453 0.617449 0.052924
C11   C     C_3   0.616174 0.927005 0.711867 0.042910
C12   C     C_R   0.257530 0.499443 0.499532 0.864932
C13   C     C_3   0.614923 0.070226 0.715026 -0.488406
C14   C     C_R   0.431024 0.412052 0.072465 0.137326
C15   C     C_R   0.579918 0.578050 0.068667 0.242353
C16   C     C_R   0.579680 0.576328 0.925421 -0.165526
C17   C     C_R   0.428227 0.414785 0.930682 0.166827
C18   C     C_3   0.286616 0.392808 0.929504 0.016784
C19   C     C_3   0.291823 0.386051 0.083143 -0.571727
C20   C     C_R   0.493182 0.739586 0.499032 0.916409
C21   C     C_R   0.742282 0.500975 0.500534 0.900074
C22   C     C_3   0.039535 0.403611 0.572944 0.257856
C23   C     C_3   0.955252 0.392706 0.447893 0.176618
C24   C     C_3   0.876918 0.500298 0.501962 -0.015144
C25   C     C_3   0.960206 0.510291 0.629686 -0.188890
C26   C     C_3   0.044490 0.607850 0.552860 -0.200677
H1    H     H_    0.586897 0.106674 0.814887 0.177054
H2    H     H_    0.697874 0.120001 0.669253 0.201457
H3    H     H_    0.641797 0.639336 0.868630 0.154729
H4    H     H_    0.260024 0.301556 0.883441 0.142996
H5    H     H_    0.241191 0.461856 0.134508 0.223561
H6    H     H_    0.271578 0.290354 0.124513 0.174660
H7    H     H_    0.923870 0.518863 0.734029 0.138667
H8    H     H_    0.085585 0.695724 0.594690 0.146627
H9    H     H_    0.920687 0.677026 0.364412 0.140415
H10   H     H_    0.070407 0.481662 0.265742 0.147124
H11   H     H_    0.384124 0.122345 0.308090 0.165155
H12   H     H_    0.589665 0.881684 0.809800 0.112691
N1    N     N_R   0.499140 0.499140 0.142800 -0.102643
N2    N     N_R   0.499140 0.499180 0.857150 -0.123876
O1    O     O_R   0.500020 0.316790 0.614690 -0.616265
O2    O     O_R   0.500000 0.316760 0.385350 -0.616564
O3    O     O_R   0.313960 0.499990 0.614650 -0.586813
O4    O     O_R   0.313940 0.499950 0.385310 -0.635111
O5    O     O_R   0.500000 0.683240 0.614650 -0.628710
O6    O     O_R   0.499980 0.683210 0.385310 -0.628478
O7    O     O_R   0.686060 0.500050 0.614690 -0.626946
O8    O     O_R   0.686040 0.500010 0.385350 -0.622259
Zn1   Zn    Zn3+2 0.500010 0.500020 0.653130 0.942064
Zn2   Zn    Zn3+2 0.499990 0.499980 0.346870 0.930255
C27   C     C_3   0.900987 0.272402 0.388124 -0.939362
H13   H     H_    0.979254 0.206327 0.368775 0.239698
H14   H     H_    0.831805 0.228179 0.459043 0.230828
H15   H     H_    0.851379 0.294463 0.291793 0.259026
N3    N     N_2   0.729532 0.872020 0.653284 -0.280041
H16   H     H_    0.795625 0.844021 0.724364 0.220286
C28   C     C_3   0.786953 0.926333 0.532627 -0.780353
H17   H     H_    0.845865 0.854661 0.483954 0.227701
H18   H     H_    0.850325 0.006384 0.559248 0.226995
H19   H     H_    0.714267 0.957803 0.458664 0.254099
C29   C     C_3   0.670622 0.670811 0.131362 -0.887862
H20   H     H_    0.669449 0.671298 0.241223 0.297497
H21   H     H_    0.769332 0.649532 0.100306 0.212386
H22   H     H_    0.647490 0.767029 0.095302 0.206420
N4    N     N_2   0.208636 0.495571 0.877827 -0.238761
H23   H     H_    0.112752 0.477368 0.890314 0.225700
C30   C     C_3   0.243324 0.625634 0.903365 -0.718027
H24   H     H_    0.161817 0.686742 0.877163 0.200506
H25   H     H_    0.323568 0.656185 0.838186 0.265871
H26   H     H_    0.268246 0.640399 0.010808 0.221655
N5    N     N_2   0.091839 0.299532 0.649430 -0.302723
H27   H     H_    0.145223 0.240515 0.591594 0.216446
C31   C     C_3   0.003672 0.234203 0.738135 -0.824861
H28   H     H_    0.054333 0.159147 0.794571 0.235269
H29   H     H_    0.925134 0.190889 0.679223 0.239502
H30   H     H_    0.963812 0.299810 0.812321 0.240683
C32   C     C_3   0.356095 0.873963 0.270307 -0.877723
H31   H     H_    0.288220 0.799300 0.304501 0.241581
H32   H     H_    0.302174 0.941338 0.206296 0.217962
H33   H     H_    0.430903 0.833051 0.206527 0.260155

loop_
_geom_bond_atom_site_label_1
_geom_bond_atom_site_label_2
_ccdc_geom_bond_type
C2    H9    S    
N3    H16   S    
C11   H12   S    
C31   H28   S    
C3    C23   S    
C19   H5    S    
C7    C8    A    
O7    Zn1   S    
C32   H31   S    
C18   N4    S    
C12   O3    A    
C5    C6    A    
C28   H18   S    
N2    Zn1   S    
C27   H13   S    
C18   C19   S    
C29   H21   S    
C14   N1    A    
C26   H8    S    
C8    C9    A    
N4    C30   S    
C22   C25   S    
C23   C24   S    
C13   H2    S    
C18   H4    S    
C4    C12   S    
C9    C10   A    
C5    C13   S    
C20   O5    A    
C21   O8    A    
O8    Zn2   S    
C31   H29   S    
C14   C17   A    
C19   H6    S    
O1    Zn1   S    
C32   H32   S    
C7    H11   S    
C30   H24   S    
C24   C25   S    
N5    C31   S    
O3    Zn1   S    
C28   H19   S    
C25   C26   S    
C1    C6    S    
C30   H25   S    
C17   N2    A    
C29   H22   S    
C4    C22   S    
C9    C20   S    
C23   C27   S    
O5    Zn1   S    
C17   C18   S    
C15   C29   S    
C2    C26   S    
C15   N1    A    
O2    Zn2   S    
C1    O1    A    
C16   N2    A    
N3    C28   S    
C2    C24   S    
C8    C32   S    
C31   H30   S    
C3    C4    S    
C22   N5    S    
C11   N3    S    
C32   H33   S    
O4    Zn2   S    
C14   C19   S    
C4    C26   S    
C6    C7    A    
O6    Zn2   S    
C27   H15   S    
C30   H26   S    
C2    C3    S    
C16   H3    S    
N5    H27   S    
C12   O4    A    
C11   C13   S    
C28   H17   S    
C3    H10   S    
C29   H20   S    
C10   C11   S    
C1    O2    A    
C5    C10   A    
N1    Zn2   S    
N4    H23   S    
C21   C24   S    
C22   C23   S    
C13   H1    S    
C27   H14   S    
C20   O6    A    
C15   C16   A    
C25   H7    S    
C21   O7    A    
