data_mof_unit_52524.cif
_audit_creation_date              2012-12-11T16:17:33-0500
_audit_creation_method            fapswitch 2.2
_symmetry_space_group_name_H-M    P1
_symmetry_Int_Tables_number       1
_space_group_crystal_system       triclinic
_cell_length_a                    6.919564
_cell_length_b                    28.796059
_cell_length_c                    32.072381
_cell_angle_alpha                 101.191488
_cell_angle_beta                  89.945806
_cell_angle_gamma                 90.270052
_cell_volume                      6269.0262407

loop_
_atom_site_label
_atom_site_type_symbol
_atom_type_description
_atom_site_fract_x
_atom_site_fract_y
_atom_site_fract_z
_atom_type_partial_charge
O1    O     O_R   0.494350 0.453160 0.452490 -0.534069
O2    O     O_R   0.820990 0.455850 0.538220 -0.540759
O3    O     O_R   0.994300 0.546840 0.547510 -0.534743
C1    C     C_R   0.652197 0.446969 0.552846 0.700590
O4    O     O_R   0.823860 0.447580 0.452250 -0.539764
O5    O     O_R   0.997190 0.538510 0.460920 -0.530375
C2    C     C_R   0.654979 0.435606 0.435660 0.722376
O6    O     O_R   0.491450 0.461490 0.539080 -0.551613
O7    O     O_3   0.661790 0.529840 0.502950 -0.359169
V1    V     V_3+5 0.935470 0.494460 0.499450 1.487483
O8    O     O_R   0.327090 0.544150 0.461780 -0.527832
C3    C     C_R   0.158396 0.553109 0.447246 0.767992
O9    O     O_R   0.324210 0.552420 0.547750 -0.536261
C4    C     C_R   0.155412 0.565343 0.563470 0.757908
V2    V     V_3+5 0.435840 0.505540 0.500550 1.496871
O10   O     O_3   0.159650 0.470160 0.497050 -0.375695
C5    C     C_R   0.042939 0.596896 0.638591 0.345218
C6    C     C_R   0.034577 0.632767 0.675087 0.417143
C7    C     C_R   0.128484 0.676902 0.676070 -0.212177
C8    C     C_R   0.229500 0.684777 0.639509 -0.105197
C9    C     C_R   0.239333 0.648246 0.602540 -0.067261
C10   C     C_R   0.145493 0.604068 0.601910 -0.274995
N1    N     N_R   0.272565 0.730784 0.738029 -0.266396
N2    N     N_R   0.258877 0.764710 0.772717 -0.276095
C11   C     C_R   0.085395 0.784490 0.785651 0.515562
N3    N     N_R   0.925952 0.768644 0.762259 -0.268265
N4    N     N_R   0.939586 0.734770 0.727481 -0.248147
C12   C     C_R   0.113422 0.715330 0.714549 0.495798
C13   C     C_R   0.890629 0.840642 0.840085 -0.115189
H1    H     H_    0.758318 0.826973 0.824213 0.139693
C14   C     C_R   0.878374 0.876579 0.876487 -0.137623
H2    H     H_    0.737097 0.889624 0.887467 0.116426
C15   C     C_R   0.046352 0.895650 0.898151 -0.050039
C16   C     C_R   0.226611 0.877567 0.882474 -0.155690
H3    H     H_    0.359302 0.891227 0.898193 0.119773
C17   C     C_R   0.238757 0.841556 0.846282 -0.115927
H4    H     H_    0.380331 0.828746 0.835310 0.134265
C18   C     C_R   0.071120 0.822614 0.824451 0.021638
C19   C     C_R   0.150899 0.658217 0.283622 0.582664
N5    N     N_R   0.128155 0.677506 0.325962 -0.563720
C20   C     C_R   0.100269 0.725240 0.339254 0.575126
C21   C     C_R   0.090460 0.755377 0.309477 -0.035821
C22   C     C_R   0.108055 0.735800 0.265853 -0.016486
C23   C     C_R   0.138921 0.686835 0.252730 -0.042090
C24   C     C_R   0.061510 0.804400 0.322168 -0.131530
C25   C     C_R   0.049853 0.833480 0.291998 -0.133935
C26   C     C_R   0.065523 0.814257 0.248322 -0.031068
C27   C     C_R   0.094300 0.765220 0.235257 -0.015526
C28   C     C_R   0.108903 0.745495 0.191646 -0.035172
C29   C     C_R   0.139352 0.696530 0.178941 -0.129966
C30   C     C_R   0.155087 0.667612 0.209102 -0.129159
C31   C     C_R   0.054435 0.842900 0.217333 0.576135
N6    N     N_R   0.067770 0.823225 0.174804 -0.555142
C32   C     C_R   0.092531 0.775252 0.161744 0.586031
O11   O     O_2   0.183448 0.611386 0.271415 -0.496144
O12   O     O_2   0.079915 0.743433 0.381052 -0.506667
H5    H     H_    0.047652 0.820488 0.355472 0.179218
H6    H     H_    0.027742 0.871064 0.303040 0.177009
O13   O     O_2   0.033104 0.890101 0.229751 -0.519958
O14   O     O_2   0.099668 0.756184 0.119883 -0.508613
H7    H     H_    0.151658 0.680359 0.145625 0.179085
H8    H     H_    0.178603 0.630078 0.198070 0.179973
C33   C     C_R   0.212184 0.853449 0.114554 -0.070708
H9    H     H_    0.335540 0.830922 0.116482 0.170736
C34   C     C_R   0.204539 0.880882 0.082642 -0.071274
C35   C     C_R   0.043378 0.911103 0.080981 -0.139094
C36   C     C_R   0.890944 0.910524 0.110034 -0.128573
H10   H     H_    0.765821 0.932863 0.109473 0.142397
C37   C     C_R   0.898238 0.881778 0.140550 -0.057126
H11   H     H_    0.777739 0.881764 0.162112 0.138303
C38   C     C_R   0.059666 0.853293 0.143388 0.315945
C39   C     C_R   0.290942 0.646096 0.382686 -0.025586
H12   H     H_    0.411530 0.669617 0.380507 0.138646
C40   C     C_R   0.299854 0.615427 0.411439 -0.142120
H13   H     H_    0.426335 0.616746 0.431515 0.178787
C41   C     C_R   0.147805 0.583789 0.414632 -0.192486
C42   C     C_R   0.984985 0.582859 0.387222 0.345143
C43   C     C_R   0.971758 0.615776 0.359610 -0.040297
C44   C     C_R   0.128711 0.646733 0.356730 0.224819
C45   C     C_R   0.578318 0.224942 0.838977 0.549812
N7    N     N_R   0.594254 0.176837 0.825753 -0.580132
C46   C     C_R   0.621277 0.157244 0.783601 0.601194
C47   C     C_R   0.628244 0.186115 0.752848 -0.044281
C48   C     C_R   0.615365 0.235567 0.766078 -0.018783
C49   C     C_R   0.592734 0.255303 0.809544 -0.030617
C50   C     C_R   0.646181 0.166758 0.709272 -0.125103
C51   C     C_R   0.649385 0.196081 0.679253 -0.129546
C52   C     C_R   0.638767 0.245544 0.692132 -0.035804
C53   C     C_R   0.624150 0.265345 0.735744 -0.016501
C54   C     C_R   0.617152 0.314847 0.749080 -0.033885
C55   C     C_R   0.597788 0.334197 0.792635 -0.130602
C56   C     C_R   0.583916 0.304775 0.822453 -0.131230
C57   C     C_R   0.641655 0.275795 0.662468 0.571490
N8    N     N_R   0.640928 0.324091 0.675924 -0.568872
C58   C     C_R   0.629546 0.343790 0.718445 0.579281
O15   O     O_2   0.548327 0.243322 0.880453 -0.506487
O16   O     O_2   0.639716 0.109928 0.771450 -0.488547
H14   H     H_    0.655725 0.128844 0.698162 0.181279
H15   H     H_    0.661510 0.179855 0.645947 0.180002
O17   O     O_2   0.644600 0.257054 0.620518 -0.504313
O18   O     O_2   0.630807 0.391290 0.731130 -0.502797
H16   H     H_    0.591480 0.372145 0.803813 0.181000
H17   H     H_    0.567272 0.320956 0.855670 0.179324
C59   C     C_R   0.488030 0.384383 0.642258 0.006179
H18   H     H_    0.367516 0.383654 0.663733 0.164731
C60   C     C_R   0.487140 0.416166 0.613995 -0.037114
C61   C     C_R   0.644330 0.416029 0.585326 -0.174094
C62   C     C_R   0.801899 0.385918 0.588121 -0.106864
H19   H     H_    0.924257 0.386097 0.567048 0.176700
C63   C     C_R   0.806941 0.356275 0.618210 0.023081
C64   C     C_R   0.645754 0.354726 0.644988 0.239942
C65   C     C_R   0.410440 0.116901 0.856340 0.472322
C66   C     C_R   0.399312 0.084410 0.884296 -0.079827
C67   C     C_R   0.547710 0.083819 0.914801 -0.239423
C68   C     C_R   0.709393 0.113421 0.914789 -0.113831
H20   H     H_    0.823730 0.112530 0.937689 0.180607
C69   C     C_R   0.727582 0.143783 0.885625 -0.004887
C70   C     C_R   0.576642 0.146148 0.856458 0.161576
C71   C     C_R   0.481780 0.391893 0.368975 0.363644
C72   C     C_R   0.473394 0.353530 0.334694 -0.196323
H21   H     H_    0.346183 0.349746 0.314627 0.192059
C73   C     C_R   0.628412 0.321919 0.324688 -0.092192
C74   C     C_R   0.794529 0.328640 0.350903 0.410090
C75   C     C_R   0.800040 0.366182 0.386551 -0.265614
H22   H     H_    0.926065 0.370285 0.406980 0.155554
C76   C     C_R   0.644802 0.397803 0.396472 -0.182447
N9    N     N_R   0.773991 0.259630 0.268869 -0.187655
N10   N     N_R   0.760829 0.225753 0.234137 -0.276340
C77   C     C_R   0.587358 0.213742 0.215114 0.500773
N11   N     N_R   0.427582 0.237153 0.232483 -0.263382
N12   N     N_R   0.440896 0.271066 0.267199 -0.268286
C78   C     C_R   0.614391 0.283088 0.286288 0.572462
C79   C     C_R   0.393080 0.162261 0.157202 -0.116883
H23   H     H_    0.261224 0.178920 0.170670 0.142058
C80   C     C_R   0.380516 0.126627 0.120647 -0.149911
H24   H     H_    0.239431 0.116874 0.107068 0.121149
C81   C     C_R   0.547835 0.103875 0.102005 -0.052742
C82   C     C_R   0.727855 0.117808 0.120905 -0.150695
H25   H     H_    0.859979 0.101118 0.107609 0.121426
C83   C     C_R   0.740324 0.153306 0.157429 -0.121568
H26   H     H_    0.881563 0.162885 0.170992 0.135749
C84   C     C_R   0.573216 0.176019 0.176150 0.026851
O19   O     O_R   0.699050 0.038480 0.960880 -0.529317
O20   O     O_R   0.366680 0.052470 0.047720 -0.539490
O21   O     O_R   0.193410 0.961530 0.039110 -0.550168
C85   C     C_R   0.535851 0.065420 0.063551 0.699023
O22   O     O_R   0.369510 0.044100 0.961740 -0.543943
O23   O     O_R   0.196260 0.953110 0.952520 -0.549003
C86   C     C_R   0.537984 0.052965 0.947191 0.718849
O24   O     O_R   0.696210 0.046900 0.047470 -0.540357
O25   O     O_3   0.528780 0.970170 0.997070 -0.372870
V3    V     V_3+5 0.255080 0.005530 0.000540 1.419744
O26   O     O_R   0.866350 0.947520 0.952280 -0.538874
C87   C     C_R   0.035285 0.934485 0.936446 0.687721
O27   O     O_R   0.863520 0.955880 0.038260 -0.526945
C88   C     C_R   0.032854 0.944435 0.050655 0.689525
V4    V     V_3+5 0.754720 0.994440 0.999470 1.444388
O28   O     O_3   0.030880 0.029830 0.002930 -0.363668
O29   O     O_3   0.952168 0.554566 0.641023 -0.594068
H27   H     H_    0.004961 0.528650 0.619315 0.294150
C89   C     C_2   0.360058 0.874759 0.050052 0.407557
H28   H     H_    0.337018 0.884429 0.019439 0.061748
O30   O     O_2   0.515472 0.857576 0.056622 -0.527682
O31   O     O_3   0.838862 0.549911 0.386347 -0.604516
H29   H     H_    0.898823 0.519239 0.388342 0.292562
O32   O     O_3   0.935304 0.622262 0.709623 -0.586936
H30   H     H_    0.967085 0.645540 0.735654 0.312685
C90   C     C_2   0.795832 0.618190 0.333261 0.506495
H31   H     H_    0.779622 0.646592 0.315749 0.021187
O33   O     O_2   0.666233 0.588863 0.330679 -0.477965
C91   C     C_2   0.327555 0.451097 0.617680 0.425760
H32   H     H_    0.345834 0.484228 0.606922 0.037284
O34   O     O_2   0.174136 0.443911 0.634239 -0.527030
C92   C     C_2   0.983465 0.328392 0.622354 0.481133
H33   H     H_    0.000080 0.310447 0.648885 0.043791
O35   O     O_2   0.113632 0.325271 0.596229 -0.520049
O36   O     O_3   0.259870 0.118019 0.828190 -0.596111
H34   H     H_    0.266389 0.147502 0.816737 0.296990
C93   C     C_2   0.314317 0.732545 0.639549 0.416121
H35   H     H_    0.377524 0.753107 0.668189 0.099937
O37   O     O_2   0.308003 0.750291 0.607959 -0.501394
C94   C     C_2   0.238416 0.049155 0.879690 0.517094
H36   H     H_    0.259320 0.015126 0.888693 0.002585
O38   O     O_2   0.081114 0.057359 0.865581 -0.494837
C95   C     C_2   0.906936 0.172301 0.885300 0.546355
H37   H     H_    0.931604 0.192573 0.860606 0.043179
O39   O     O_2   0.030759 0.173357 0.912588 -0.521739
O40   O     O_3   0.329671 0.423220 0.373594 -0.636107
H38   H     H_    0.382420 0.455545 0.383225 0.296542
O41   O     O_3   0.948201 0.297855 0.341875 -0.611786
H39   H     H_    0.052735 0.307818 0.362888 0.302185
C96   C     C_2   0.349989 0.656611 0.564818 0.500812
H40   H     H_    0.486128 0.675801 0.569118 0.073815
O42   O     O_2   0.287291 0.643670 0.528844 -0.534326

loop_
_geom_bond_atom_site_label_1
_geom_bond_atom_site_label_2
_ccdc_geom_bond_type
C65   C70   A    
C91   H32   S    
C33   C34   A    
V4    O28   S    
O24   V4    S    
O27   V4    S    
C20   C21   A    
C7    C8    A    
C1    O6    A    
N10   C77   A    
C45   C49   A    
C59   C60   A    
C89   H28   S    
C6    O32   S    
C80   H24   S    
C32   O14   S    
C42   C43   A    
N9    C78   A    
C91   O34   D    
C24   H5    S    
C79   C84   A    
O41   H39   S    
C40   C41   A    
C47   C48   A    
O25   V4    S    
C9    C10   A    
O31   H29   S    
O22   C86   A    
C83   C84   A    
C6    C7    A    
C39   C44   A    
O5    C3    A    
C92   H33   S    
C95   O39   D    
C60   C61   A    
C28   C32   A    
N8    C64   S    
C62   H19   S    
C5    C6    A    
C16   H3    S    
C60   C91   S    
C37   C38   A    
C94   H36   S    
C65   C66   A    
C56   H17   S    
C85   O24   A    
O21   C88   A    
O8    V2    S    
C19   O11   S    
C95   H37   S    
C71   O40   S    
C68   C69   A    
C13   C18   A    
O25   V3    S    
C14   C15   A    
O19   V4    S    
O1    V2    S    
C45   O15   S    
C22   C27   A    
C42   O31   S    
C90   O33   D    
C35   C36   A    
O1    C2    A    
O9    C4    A    
C25   H6    S    
C13   C14   A    
N8    C58   A    
C30   H8    S    
O23   C87   A    
C19   C23   A    
C5    O29   S    
C73   C78   S    
C59   H18   S    
C89   O30   D    
C49   C56   A    
C72   C73   A    
C67   C68   A    
C8    C93   S    
C51   H15   S    
C41   C42   A    
C63   C92   S    
C83   H26   S    
C1    C61   S    
V3    O28   S    
C40   H13   S    
C33   H9    S    
C36   H10   S    
C26   C27   A    
C81   C85   S    
C74   C75   A    
N2    C11   A    
C39   C40   A    
C71   C72   A    
C55   C56   A    
O4    C2    A    
C52   C57   A    
C15   C87   S    
C39   H12   S    
C9    C96   S    
C77   C84   S    
C29   C30   A    
C11   N3    A    
N6    C32   A    
N7    C70   S    
C46   C47   A    
N7    C46   A    
C63   C64   A    
O40   H38   S    
C36   C37   A    
C21   C24   A    
C96   O42   D    
O2    C1    A    
C22   C23   A    
C20   O12   S    
C13   H1    S    
C31   O13   S    
C11   C18   S    
O29   H27   S    
C61   C62   A    
C8    C9    A    
C15   C16   A    
N3    N4    A    
N5    C44   S    
C57   N8    A    
N1    C12   A    
C48   C49   A    
C74   O41   S    
C7    C12   S    
C57   O17   S    
C66   C67   A    
O3    C4    A    
C82   C83   A    
C23   C30   A    
O20   C85   A    
N5    C20   A    
C33   C38   A    
C28   C29   A    
O6    V2    S    
O9    V2    S    
C79   H23   S    
C46   O16   S    
C24   C25   A    
C21   C22   A    
C55   H16   S    
N9    N10   A    
O2    V1    S    
C66   C94   S    
C19   N5    A    
C72   H21   S    
C75   C76   A    
C77   N11   A    
O7    V1    S    
C80   C81   A    
C25   C26   A    
C90   H31   S    
C94   O38   D    
C50   C51   A    
C14   H2    S    
O23   V3    S    
C45   N7    A    
C54   C58   A    
O5    V1    S    
C59   C64   A    
O8    C3    A    
C73   C74   A    
C26   C31   A    
C81   C82   A    
C43   C90   S    
C5    C10   A    
C96   H40   S    
C4    C10   S    
C3    C41   S    
O22   V3    S    
C53   C54   A    
O4    V1    S    
O20   V3    S    
O3    V1    S    
V1    O10   S    
N12   C78   A    
C35   C88   S    
C43   C44   A    
C54   C55   A    
O32   H30   S    
C27   C28   A    
C17   C18   A    
C62   C63   A    
N11   N12   A    
C16   C17   A    
C34   C35   A    
C2    C76   S    
O26   V4    S    
C37   H11   S    
C50   H14   S    
C92   O35   D    
O21   V3    S    
C82   H25   S    
N1    N2    A    
C93   H35   S    
C71   C76   A    
C58   O18   S    
O19   C86   A    
C47   C50   A    
C93   O37   D    
C52   C53   A    
C51   C52   A    
C17   H4    S    
O36   H34   S    
C48   C53   A    
C34   C89   S    
O27   C88   A    
C79   C80   A    
C29   H7    S    
C75   H22   S    
C69   C95   S    
C67   C86   S    
C68   H20   S    
O26   C87   A    
C69   C70   A    
V2    O10   S    
O7    V2    S    
C31   N6    A    
C65   O36   S    
N4    C12   A    
N6    C38   S    
