data_mof_unit_37359.cif
_audit_creation_date              2012-12-10T17:43:23-0500
_audit_creation_method            fapswitch 2.2
_symmetry_space_group_name_H-M    P1
_symmetry_Int_Tables_number       1
_space_group_crystal_system       triclinic
_cell_length_a                    15.101574
_cell_length_b                    13.862867
_cell_length_c                    10.873309
_cell_angle_alpha                 90.322909
_cell_angle_beta                  84.40834
_cell_angle_gamma                 88.945371
_cell_volume                      2265.06067437

loop_
_atom_site_label
_atom_site_type_symbol
_atom_type_description
_atom_site_fract_x
_atom_site_fract_y
_atom_site_fract_z
_atom_type_partial_charge
C1    C     C_R   0.329362 0.500865 0.492557 0.847177
C2    C     C_R   0.671268 0.499584 0.501581 0.782046
C3    C     C_R   0.953957 0.523459 0.488819 0.085117
C4    C     C_R   0.046968 0.524886 0.489114 0.066686
C5    C     C_R   0.916202 0.498556 0.378904 0.008888
C6    C     C_R   0.084863 0.535447 0.601582 -0.019418
C7    C     C_R   0.938067 0.582328 0.702620 -0.038965
C8    C     C_R   0.063918 0.512029 0.264894 -0.085712
C9    C     C_R   0.031725 0.573735 0.706090 -0.043528
C10   C     C_R   0.971326 0.499859 0.264491 -0.096569
C11   C     C_R   0.437777 0.795014 0.576810 0.148382
C12   C     C_R   0.561418 0.203669 0.423808 0.090723
C13   C     C_R   0.561463 0.792276 0.422714 0.119440
C14   C     C_R   0.437760 0.207409 0.576579 0.100180
C15   C     C_R   0.561258 0.894891 0.419813 -0.026128
C16   C     C_R   0.436737 0.104390 0.578666 -0.018023
C17   C     C_R   0.436767 0.897860 0.578855 -0.026679
C18   C     C_R   0.560736 0.100923 0.419832 -0.012424
C19   C     C_R   0.498821 0.947856 0.499227 0.074063
C20   C     C_R   0.498592 0.051144 0.499058 0.084536
C21   C     C_R   0.621042 0.946044 0.337978 -0.148944
C22   C     C_R   0.376182 0.052999 0.659655 -0.144142
C23   C     C_R   0.376117 0.952201 0.659601 -0.151545
C24   C     C_R   0.620615 0.046595 0.337723 -0.137307
C25   C     C_R   0.506520 0.499991 0.259059 0.843668
C26   C     C_R   0.496114 0.500554 0.741091 0.790856
C27   C     C_3   0.452231 0.572334 0.055019 -0.151063
C28   C     C_3   0.554736 0.431821 0.944946 -0.114089
C29   C     C_3   0.528766 0.586774 0.952554 -0.109247
C30   C     C_3   0.476819 0.416713 0.046948 -0.011262
C31   C     C_3   0.417687 0.487961 0.981051 -0.144140
C32   C     C_3   0.588160 0.516893 0.019378 -0.038979
C33   C     C_3   0.495216 0.502237 0.878260 -0.175704
C34   C     C_3   0.510482 0.501319 0.121839 -0.107862
C35   C     C_R   0.824114 0.476943 0.387292 -0.174888
C36   C     C_R   0.175516 0.508454 0.604719 -0.204645
C37   C     C_R   0.769059 0.501540 0.495927 -0.068159
C38   C     C_R   0.231929 0.504822 0.493578 -0.075945
C39   C     C_R   0.806284 0.539951 0.597462 -0.168262
C40   C     C_R   0.195222 0.509451 0.381117 -0.096766
C41   C     C_R   0.898995 0.546857 0.598231 0.024864
C42   C     C_R   0.102363 0.514296 0.377595 0.074506
Cu1   Cu    Cu3+1 0.500000 0.597420 0.500000 0.999893
Cu2   Cu    Cu3+1 0.500000 0.402580 0.500000 1.003547
H1    H     H_    0.761454 0.560562 0.677286 0.142073
H2    H     H_    0.239472 0.502581 0.296864 0.187068
H3    H     H_    0.668664 0.909070 0.272426 0.184667
H4    H     H_    0.328409 0.089919 0.725001 0.182088
H5    H     H_    0.328257 0.917515 0.724613 0.175844
H6    H     H_    0.667671 0.081039 0.271366 0.188556
N1    N     N_R   0.500000 0.743810 0.500000 -0.246543
N2    N     N_R   0.500000 0.256190 0.500000 -0.247246
O1    O     O_R   0.370260 0.582280 0.500030 -0.555068
O2    O     O_R   0.629740 0.417720 0.499970 -0.573465
O3    O     O_R   0.629740 0.582280 0.499970 -0.552258
O4    O     O_R   0.370260 0.417720 0.500030 -0.539212
O5    O     O_R   0.499980 0.582260 0.316850 -0.606406
O6    O     O_R   0.500020 0.417740 0.683150 -0.607499
O7    O     O_R   0.500020 0.582260 0.683150 -0.594838
O8    O     O_R   0.499980 0.417740 0.316850 -0.582816
C43   C     C_2   0.319187 0.481874 0.977191 0.975191
O9    O     O_2   0.281241 0.406869 0.004075 -0.503861
O10   O     O_R   0.269618 0.562273 0.944552 -0.723948
H7    H     H_    0.307651 0.619084 0.917112 0.276826
C44   C     C_2   0.683287 0.542468 0.027138 0.858018
O11   O     O_2   0.742958 0.485223 0.991676 -0.575049
O12   O     O_R   0.702937 0.633647 0.071312 -0.777292
H8    H     H_    0.768930 0.646492 0.064859 0.343766
C45   C     C_2   0.397452 0.654017 0.116643 0.414696
H9    H     H_    0.406387 0.727276 0.084338 0.047253
O13   O     O_2   0.341815 0.638346 0.202760 -0.487299
C46   C     C_2   0.615404 0.356751 0.879378 0.477542
H10   H     H_    0.665590 0.378800 0.807329 0.098061
O14   O     O_2   0.608988 0.271613 0.905537 -0.551224
C47   C     C_2   0.557071 0.682474 0.899054 0.439768
H11   H     H_    0.517199 0.747077 0.921468 0.028836
O15   O     O_2   0.624080 0.687584 0.827158 -0.514870
C48   C     C_2   0.446933 0.320776 0.098121 0.436601
H12   H     H_    0.481248 0.254703 0.066375 0.109210
O16   O     O_2   0.383760 0.316546 0.176812 -0.495835
C49   C     C_2   0.786956 0.420871 0.288565 0.910699
O17   O     O_2   0.827173 0.349484 0.244659 -0.441627
O18   O     O_R   0.707206 0.448192 0.243909 -0.773807
H13   H     H_    0.687949 0.516342 0.268936 0.271025
C50   C     C_2   0.204671 0.459119 0.714915 0.941219
O19   O     O_2   0.152329 0.410378 0.779581 -0.463236
O20   O     O_R   0.292713 0.460726 0.740665 -0.754407
H14   H     H_    0.320889 0.524747 0.718945 0.263184
C51   C     C_2   0.881776 0.634565 0.802127 0.502889
H15   H     H_    0.821686 0.602940 0.844503 0.095072
O21   O     O_2   0.900709 0.715610 0.833987 -0.474540
C52   C     C_2   0.118207 0.535986 0.149231 0.507383
H16   H     H_    0.119801 0.489180 0.068914 0.184184
O22   O     O_2   0.158717 0.611438 0.142533 -0.453852
C53   C     C_2   0.076259 0.613138 0.811706 0.530146
H17   H     H_    0.143783 0.639019 0.796286 0.091847
O23   O     O_2   0.039405 0.615462 0.916584 -0.493701
C54   C     C_2   0.931482 0.505157 0.145054 0.499259
H18   H     H_    0.874290 0.551859 0.137295 0.066872
O24   O     O_2   0.959765 0.454611 0.057067 -0.463174
C55   C     C_2   0.370766 0.742956 0.657464 0.407751
H19   H     H_    0.389594 0.704566 0.737440 0.027819
O25   O     O_2   0.292655 0.746000 0.637204 -0.543719
C56   C     C_2   0.633064 0.253177 0.351347 0.448601
H20   H     H_    0.619006 0.299803 0.276258 0.123362
O26   O     O_2   0.709716 0.238076 0.373474 -0.494302
C57   C     C_2   0.628288 0.737547 0.341203 0.419965
H21   H     H_    0.608814 0.699352 0.261722 0.103355
O27   O     O_2   0.706676 0.738372 0.360016 -0.520507
C58   C     C_2   0.370767 0.261543 0.658163 0.478458
H22   H     H_    0.389734 0.300264 0.737797 0.112517
O28   O     O_2   0.292368 0.258792 0.639833 -0.494252

loop_
_geom_bond_atom_site_label_1
_geom_bond_atom_site_label_2
_ccdc_geom_bond_type
C22   H4    S    
O20   H14   S    
C55   H19   S    
C27   C29   S    
C31   C43   S    
C53   H17   S    
C47   H11   S    
C6    C9    A    
C56   O26   D    
C49   O17   D    
C35   C49   S    
C39   C41   A    
C50   O19   D    
C15   C19   A    
C17   C23   A    
C18   C24   A    
C35   C37   A    
C1    O4    A    
C8    C42   A    
C12   C56   S    
C29   C32   S    
C2    O3    A    
C30   C31   S    
C48   O16   D    
C23   H5    S    
C7    C51   S    
C29   C33   S    
C10   C54   S    
C45   O13   D    
C1    O1    A    
C58   H22   S    
C49   O18   S    
C13   N1    A    
Cu1   O1    S    
C14   N2    A    
C19   C20   A    
Cu2   O6    S    
C44   O12   S    
C57   H21   S    
C31   C33   S    
C8    C52   S    
C25   O8    A    
C51   O21   D    
C26   O7    A    
C9    C53   S    
C27   C45   S    
Cu1   O7    S    
C25   C34   S    
C39   H1    S    
Cu2   N2    S    
C40   C42   A    
C55   O25   D    
C57   O27   D    
C28   C46   S    
C25   O5    A    
C56   H20   S    
C12   N2    A    
C58   O28   D    
C50   O20   S    
C27   C34   S    
C24   H6    S    
C30   C34   S    
C27   C31   S    
O12   H8    S    
C28   C32   S    
C4    C6    A    
C2    O2    A    
C48   H12   S    
C32   C34   S    
C40   H2    S    
Cu1   Cu2   S    
C47   O15   D    
Cu2   O4    S    
C26   C33   S    
O18   H13   S    
C16   C20   A    
C52   O22   D    
C11   C55   S    
C26   O6    A    
C1    C38   S    
C46   O14   D    
C28   C33   S    
C54   H18   S    
C54   O24   D    
C13   C15   A    
C14   C16   A    
C3    C4    A    
Cu1   O3    S    
C7    C9    A    
C3    C41   A    
C16   C22   A    
C43   O10   S    
C46   H10   S    
C3    C5    A    
C11   C17   A    
C53   O23   D    
C29   C47   S    
C36   C50   S    
C28   C30   S    
C5    C10   A    
C37   C39   A    
C38   C40   A    
C2    C37   S    
Cu1   N1    S    
C4    C42   A    
Cu2   O8    S    
C14   C58   S    
C5    C35   A    
C36   C38   A    
C52   H16   S    
C17   C19   A    
C6    C36   A    
C18   C20   A    
C7    C41   A    
C43   O9    D    
C45   H9    S    
C11   N1    A    
Cu1   O5    S    
O10   H7    S    
C30   C48   S    
Cu2   O2    S    
C15   C21   A    
C8    C10   A    
C44   O11   D    
C21   C24   A    
C12   C18   A    
C13   C57   S    
C22   C23   A    
C51   H15   S    
C32   C44   S    
C21   H3    S    
