data_mof_unit_64869.cif
_audit_creation_date              2012-12-10T17:06:39-0500
_audit_creation_method            fapswitch 2.2
_symmetry_space_group_name_H-M    P1
_symmetry_Int_Tables_number       1
_space_group_crystal_system       triclinic
_cell_length_a                    14.155634
_cell_length_b                    10.754162
_cell_length_c                    10.04709
_cell_angle_alpha                 90.936065
_cell_angle_beta                  90.022741
_cell_angle_gamma                 89.996656
_cell_volume                      1529.28417974

loop_
_atom_site_label
_atom_site_type_symbol
_atom_type_description
_atom_site_fract_x
_atom_site_fract_y
_atom_site_fract_z
_atom_type_partial_charge
C1    C     C_R   0.501695 0.262729 0.498525 0.832624
C2    C     C_R   0.492112 0.737095 0.500960 0.842868
C3    C     C_R   0.670765 0.500031 0.500007 0.878329
C4    C     C_1   0.227743 0.499867 0.499910 -0.133068
C5    C     C_1   0.142498 0.499885 0.499902 0.027609
C6    C     C_1   0.042615 0.499912 0.499940 0.040791
C7    C     C_1   0.957373 0.499937 0.499991 0.040416
C8    C     C_1   0.857491 0.499970 0.500045 0.022471
C9    C     C_1   0.772246 0.499999 0.500060 -0.146448
C10   C     C_2   0.473148 0.932981 0.391587 0.515561
C11   C     C_2   0.464630 0.866586 0.502796 0.161055
C12   C     C_2   0.461419 0.066556 0.399546 0.368722
C13   C     C_2   0.511258 0.130332 0.492166 0.260757
C14   C     C_2   0.572929 0.526819 0.926781 0.008287
C15   C     C_2   0.565097 0.551333 0.073965 0.823153
C16   C     C_R   0.329225 0.499850 0.499984 0.864889
F1    F     F_    0.500159 0.882493 0.272348 -0.620793
F2    F     F_    0.416684 0.534543 0.901835 -0.515219
F3    F     F_    0.631439 0.625080 0.132685 -0.646905
H1    H     H_    0.641990 0.534565 0.881016 0.083009
H2    H     H_    0.418356 0.859153 0.686486 0.378253
H3    H     H_    0.370526 0.062316 0.254828 0.367480
H4    H     H_    0.609285 0.134478 0.628697 0.347630
H5    H     H_    0.417402 0.368890 0.166569 0.401823
N1    N     N_2   0.500930 0.501330 0.852150 0.171725
N2    N     N_2   0.500950 0.501360 0.147810 0.025259
O1    O     O_R   0.499990 0.319060 0.613040 -0.603320
O2    O     O_3   0.400710 0.126101 0.313233 -0.766461
O3    O     O_3   0.576206 0.071168 0.572967 -0.750681
O4    O     O_3   0.455821 0.403072 0.093561 -0.642064
O5    O     O_R   0.500010 0.319100 0.386900 -0.590525
O6    O     O_R   0.373700 0.499980 0.613090 -0.538828
O7    O     O_R   0.373730 0.500020 0.386960 -0.607863
O8    O     O_R   0.499990 0.680900 0.613100 -0.609392
O9    O     O_R   0.500010 0.680940 0.386960 -0.529862
O10   O     O_R   0.626270 0.499980 0.613040 -0.631339
O11   O     O_R   0.626300 0.500020 0.386910 -0.560007
O12   O     O_3   0.426319 0.921984 0.616456 -0.742648
Zn1   Zn    Zn3+2 0.499980 0.499970 0.650990 1.079949
Zn2   Zn    Zn3+2 0.500020 0.500030 0.349010 1.092765

loop_
_geom_bond_atom_site_label_1
_geom_bond_atom_site_label_2
_ccdc_geom_bond_type
C2    O9    A    
C4    C16   S    
C11   O12   S    
C6    C7    T    
C3    C9    S    
C16   O7    A    
C16   O6    A    
C2    O8    A    
O9    Zn2   S    
C7    C8    S    
H3    O2    S    
N1    Zn1   S    
C15   F3    S    
N2    Zn2   S    
F2    N1    S    
C10   C12   S    
C3    O10   A    
C12   O2    S    
C2    C11   S    
H4    O3    S    
C13   O3    S    
N2    O4    S    
O11   Zn2   S    
C14   N1    D    
C5    C6    S    
H5    O4    S    
O7    Zn2   S    
C1    C13   S    
C10   C11   D    
C10   F1    S    
O8    Zn1   S    
C14   H1    S    
C1    O5    A    
C12   C13   D    
C3    O11   A    
O6    Zn1   S    
C1    O1    A    
C14   C15   S    
C8    C9    T    
C15   N2    D    
O5    Zn2   S    
O10   Zn1   S    
H2    O12   S    
O1    Zn1   S    
C4    C5    T    
