data_mof_unit_38639.cif
_audit_creation_date              2012-12-11T16:44:12-0500
_audit_creation_method            fapswitch 2.2
_symmetry_space_group_name_H-M    P1
_symmetry_Int_Tables_number       1
_space_group_crystal_system       monoclinic
_cell_length_a                    27.504221
_cell_length_b                    7.181881
_cell_length_c                    22.62082
_cell_angle_alpha                 90.0
_cell_angle_beta                  101.480592
_cell_angle_gamma                 90.0
_cell_volume                      4378.93509793

loop_
_atom_site_label
_atom_site_type_symbol
_atom_type_description
_atom_site_fract_x
_atom_site_fract_y
_atom_site_fract_z
_atom_type_partial_charge
O1    O     O_R   0.707300 0.594030 0.176840 -0.529097
O2    O     O_R   0.292700 0.405970 0.823160 -0.529097
O3    O     O_R   0.792700 0.094030 0.323160 -0.529097
O4    O     O_R   0.207300 0.905970 0.676840 -0.529097
O5    O     O_R   0.697330 0.262360 0.295660 -0.531259
O6    O     O_R   0.302670 0.737640 0.704340 -0.531259
O7    O     O_R   0.802670 0.762360 0.204340 -0.531258
O8    O     O_R   0.197330 0.237640 0.795660 -0.531259
C1    C     C_R   0.685580 0.433527 0.313114 0.720578
C2    C     C_R   0.314420 0.566473 0.686886 0.720578
C3    C     C_R   0.814420 0.933527 0.186886 0.720579
C4    C     C_R   0.185580 0.066472 0.813114 0.720578
O9    O     O_R   0.701410 0.264250 0.175600 -0.533968
O10   O     O_R   0.298590 0.735750 0.824400 -0.533968
O11   O     O_R   0.798590 0.764250 0.324400 -0.533968
O12   O     O_R   0.201410 0.235750 0.675600 -0.533968
O13   O     O_R   0.796800 0.094950 0.202240 -0.521011
O14   O     O_R   0.203200 0.905050 0.797760 -0.521010
O15   O     O_R   0.703200 0.594950 0.297760 -0.521010
O16   O     O_R   0.296800 0.405050 0.702240 -0.521011
C5    C     C_R   0.689299 0.432341 0.153450 0.711214
C6    C     C_R   0.310701 0.567659 0.846549 0.711215
C7    C     C_R   0.810701 0.932341 0.346550 0.711214
C8    C     C_R   0.189299 0.067659 0.653450 0.711214
O17   O     O_3   0.781290 0.427390 0.258880 -0.364663
O18   O     O_3   0.218710 0.572610 0.741120 -0.364663
O19   O     O_3   0.718710 0.927390 0.241120 -0.364663
O20   O     O_3   0.281290 0.072610 0.758880 -0.364663
V1    V     V_3+5 0.744190 0.152150 0.248350 1.486457
V2    V     V_3+5 0.255810 0.847850 0.751650 1.486457
V3    V     V_3+5 0.755810 0.652150 0.251650 1.486457
V4    V     V_3+5 0.244190 0.347850 0.748350 1.486457
C9    C     C_R   0.153841 0.065927 0.594757 -0.046519
C10   C     C_R   0.846159 0.934073 0.405243 -0.046519
C11   C     C_R   0.346158 0.565927 0.905243 -0.046519
C12   C     C_R   0.653841 0.434073 0.094757 -0.046520
C13   C     C_R   0.134604 0.167078 0.490571 -0.168401
C14   C     C_R   0.865396 0.832922 0.509428 -0.168401
C15   C     C_R   0.365396 0.667078 0.009428 -0.168401
C16   C     C_R   0.634604 0.332922 0.990571 -0.168401
C17   C     C_R   0.168246 0.147060 0.544812 -0.144314
C18   C     C_R   0.831754 0.852940 0.455188 -0.144313
C19   C     C_R   0.331754 0.647060 0.955188 -0.144313
C20   C     C_R   0.668246 0.352940 0.044812 -0.144313
C21   C     C_R   0.104293 0.007060 0.589914 -0.223164
C22   C     C_R   0.895707 0.992940 0.410086 -0.223164
C23   C     C_R   0.395707 0.507060 0.910086 -0.223164
C24   C     C_R   0.604293 0.492940 0.089914 -0.223163
C25   C     C_R   0.068476 0.031708 0.535185 0.088145
C26   C     C_R   0.931524 0.968292 0.464815 0.088146
C27   C     C_R   0.431524 0.531708 0.964815 0.088145
C28   C     C_R   0.568476 0.468292 0.035185 0.088146
C29   C     C_R   0.085050 0.112251 0.485419 0.138716
C30   C     C_R   0.914950 0.887749 0.514581 0.138716
C31   C     C_R   0.414950 0.612251 0.014581 0.138716
C32   C     C_R   0.585050 0.387749 0.985419 0.138716
C33   C     C_R   0.016851 0.983511 0.528234 0.057466
C34   C     C_R   0.983149 0.016489 0.471766 0.057466
C35   C     C_R   0.483149 0.483511 0.971765 0.057466
C36   C     C_R   0.516851 0.516489 0.028234 0.057466
C37   C     C_R   0.002257 0.095525 0.424090 -0.187268
C38   C     C_R   0.997743 0.904475 0.575910 -0.187268
C39   C     C_R   0.497743 0.595525 0.075910 -0.187268
C40   C     C_R   0.502257 0.404475 0.924090 -0.187268
C41   C     C_R   0.052040 0.141685 0.430897 -0.199082
C42   C     C_R   0.947960 0.858315 0.569102 -0.199082
C43   C     C_R   0.447960 0.641685 0.069102 -0.199082
C44   C     C_R   0.552040 0.358315 0.930898 -0.199082
H1    H     H_    0.064802 0.203216 0.392933 0.124193
H2    H     H_    0.935198 0.796784 0.607066 0.124193
H3    H     H_    0.435198 0.703216 0.107066 0.124193
H4    H     H_    0.564802 0.296783 0.892933 0.124193
H5    H     H_    0.905304 0.050171 0.369908 0.097693
H6    H     H_    0.094696 0.949829 0.630091 0.097693
H7    H     H_    0.594696 0.550171 0.130091 0.097693
H8    H     H_    0.405304 0.449829 0.869908 0.097693
H9    H     H_    0.794436 0.801455 0.452062 0.143931
H10   H     H_    0.205564 0.198545 0.547938 0.143931
H11   H     H_    0.705564 0.301455 0.047938 0.143931
H12   H     H_    0.294436 0.698545 0.952062 0.143931
H13   H     H_    0.147172 0.230426 0.452772 0.116923
H14   H     H_    0.852828 0.769574 0.547228 0.116923
H15   H     H_    0.352828 0.730426 0.047228 0.116923
H16   H     H_    0.647172 0.269574 0.952772 0.116923
H17   H     H_    0.979568 0.124668 0.380555 0.124862
H18   H     H_    0.020432 0.875332 0.619445 0.124862
H19   H     H_    0.520432 0.624668 0.119445 0.124862
H20   H     H_    0.479568 0.375332 0.880555 0.124862
C45   C     C_R   0.856247 0.109922 0.111292 0.079630
C46   C     C_R   0.143753 0.890078 0.888708 0.079630
C47   C     C_R   0.643753 0.609922 0.388708 0.079629
C48   C     C_R   0.356247 0.390078 0.611292 0.079630
C49   C     C_R   0.891813 0.116140 0.074222 0.387794
C50   C     C_R   0.108186 0.883860 0.925778 0.387794
C51   C     C_R   0.608186 0.616141 0.425778 0.387794
C52   C     C_R   0.391814 0.383859 0.574222 0.387794
C53   C     C_R   0.925642 0.968659 0.074541 -0.050707
C54   C     C_R   0.074357 0.031341 0.925459 -0.050707
C55   C     C_R   0.574358 0.468659 0.425459 -0.050707
C56   C     C_R   0.425643 0.531341 0.574541 -0.050707
C57   C     C_R   0.921015 0.809411 0.108931 -0.185059
C58   C     C_R   0.078985 0.190589 0.891069 -0.185058
C59   C     C_R   0.578985 0.309411 0.391069 -0.185060
C60   C     C_R   0.421015 0.690589 0.608931 -0.185058
H21   H     H_    0.946189 0.693288 0.109170 0.153198
H22   H     H_    0.053811 0.306712 0.890829 0.153198
H23   H     H_    0.553811 0.193288 0.390830 0.153199
H24   H     H_    0.446189 0.806712 0.609171 0.153198
C61   C     C_R   0.884779 0.799633 0.144508 -0.160646
C62   C     C_R   0.115221 0.200367 0.855491 -0.160646
C63   C     C_R   0.615221 0.299633 0.355492 -0.160646
C64   C     C_R   0.384779 0.700367 0.644509 -0.160646
H25   H     H_    0.883288 0.675860 0.171387 0.169170
H26   H     H_    0.116712 0.324139 0.828613 0.169170
H27   H     H_    0.616712 0.175860 0.328613 0.169170
H28   H     H_    0.383288 0.824139 0.671387 0.169170
C65   C     C_R   0.851939 0.948597 0.146979 -0.147532
C66   C     C_R   0.148060 0.051403 0.853020 -0.147532
C67   C     C_R   0.648061 0.448597 0.353021 -0.147532
C68   C     C_R   0.351940 0.551403 0.646980 -0.147532
C69   C     C_R   0.971017 0.838925 0.997623 -0.210744
C70   C     C_R   0.028983 0.161075 0.002376 -0.210744
C71   C     C_R   0.528983 0.338925 0.502377 -0.210744
C72   C     C_R   0.471017 0.661075 0.497624 -0.210744
H29   H     H_    0.948352 0.714818 0.994486 0.124501
H30   H     H_    0.051647 0.285182 0.005513 0.124501
H31   H     H_    0.551648 0.214818 0.505514 0.124501
H32   H     H_    0.448353 0.785181 0.494487 0.124501
C73   C     C_R   0.005254 0.857725 0.959742 -0.098636
C74   C     C_R   0.994745 0.142275 0.040257 -0.098636
C75   C     C_R   0.494746 0.357725 0.540258 -0.098636
C76   C     C_R   0.505255 0.642275 0.459743 -0.098636
H33   H     H_    0.008642 0.746157 0.928608 0.138263
H34   H     H_    0.991358 0.253843 0.071391 0.138264
H35   H     H_    0.491358 0.246157 0.571392 0.138263
H36   H     H_    0.508642 0.753843 0.428609 0.138264
C77   C     C_R   0.034893 0.018543 0.961981 0.113837
C78   C     C_R   0.965106 0.981457 0.038018 0.113838
C79   C     C_R   0.465107 0.518543 0.538019 0.113837
C80   C     C_R   0.534894 0.481457 0.461981 0.113837
I1    I     I_    0.811243 0.354577 0.107622 -0.428815
I2    I     I_    0.188757 0.645424 0.892378 -0.428815
I3    I     I_    0.688757 0.854577 0.392377 -0.428815
I4    I     I_    0.311243 0.145424 0.607622 -0.428815
O21   O     O_3   0.894905 0.272760 0.039481 -0.569548
C81   C     C_3   0.868379 0.240074 0.980186 0.103159
H37   H     H_    0.828056 0.224063 0.979952 0.137303
H38   H     H_    0.881902 0.112584 0.960447 0.114985
C82   C     C_3   0.875729 0.406220 0.940763 -0.281515
H39   H     H_    0.862881 0.535317 0.960060 0.207841
H40   H     H_    0.915870 0.421156 0.940202 0.191890
C83   C     C_3   0.847051 0.381691 0.876209 -0.849958
H41   H     H_    0.859962 0.255076 0.855684 0.233089
H42   H     H_    0.853284 0.504545 0.848856 0.232316
H43   H     H_    0.806682 0.369425 0.875530 0.234749
O22   O     O_3   0.105095 0.727240 0.960518 -0.569548
C84   C     C_3   0.131620 0.759927 0.019814 0.103159
H44   H     H_    0.118097 0.887418 0.039552 0.114987
H45   H     H_    0.171943 0.775937 0.020049 0.137304
C85   C     C_3   0.124270 0.593782 0.059237 -0.281516
H46   H     H_    0.084128 0.578844 0.059796 0.191892
H47   H     H_    0.137118 0.464685 0.039941 0.207841
C86   C     C_3   0.152946 0.618314 0.123791 -0.849967
H48   H     H_    0.193315 0.630579 0.124472 0.234750
H49   H     H_    0.146712 0.495462 0.151144 0.232318
H50   H     H_    0.140034 0.744930 0.144315 0.233091
O23   O     O_3   0.605095 0.772760 0.460518 -0.569548
C87   C     C_3   0.631621 0.740075 0.519814 0.103159
H51   H     H_    0.671944 0.724060 0.520048 0.137303
H52   H     H_    0.618097 0.612587 0.539553 0.114986
C88   C     C_3   0.624272 0.906223 0.559237 -0.281515
H53   H     H_    0.637120 0.035318 0.539939 0.207842
H54   H     H_    0.584131 0.921162 0.559797 0.191890
C89   C     C_3   0.652950 0.881695 0.623790 -0.849960
H55   H     H_    0.640040 0.755078 0.644315 0.233089
H56   H     H_    0.646717 0.004548 0.651143 0.232316
H57   H     H_    0.693319 0.869432 0.624468 0.234749
O24   O     O_3   0.394905 0.227240 0.539482 -0.569548
C90   C     C_3   0.368380 0.259927 0.480186 0.103158
H58   H     H_    0.381904 0.387415 0.460447 0.114987
H59   H     H_    0.328057 0.275942 0.479951 0.137302
C91   C     C_3   0.375729 0.093779 0.440763 -0.281512
H60   H     H_    0.415870 0.078836 0.440204 0.191890
H61   H     H_    0.362880 0.964684 0.460060 0.207840
C92   C     C_3   0.347053 0.118311 0.376209 -0.849961
H62   H     H_    0.306683 0.130584 0.375529 0.234748
H63   H     H_    0.353285 0.995455 0.348857 0.232317
H64   H     H_    0.359966 0.244923 0.355685 0.233090

loop_
_geom_bond_atom_site_label_1
_geom_bond_atom_site_label_2
_ccdc_geom_bond_type
O17   V3    S    
C55   C59   A    
C88   H53   S    
C25   C29   A    
O1    C5    A    
C84   H44   S    
C49   C53   A    
O19   V1    S    
C9    C21   A    
C16   H16   S    
C72   C79   A    
O3    C7    A    
C86   H48   S    
C10   C18   A    
O1    V3    S    
O15   V3    S    
C62   C66   A    
O21   C81   S    
C92   H62   S    
C61   C65   A    
C33   C38   A    
C5    C12   S    
C47   C67   A    
O7    C3    A    
C6    C11   S    
C38   H18   S    
C35   C40   A    
C26   C30   A    
C36   C39   A    
C46   C66   A    
O2    V4    S    
O9    V1    S    
O22   C84   S    
C86   H49   S    
C23   H8    S    
C14   C18   A    
C75   H35   S    
C82   H40   S    
O4    C8    A    
C51   C55   A    
C92   H63   S    
C43   H3    S    
C50   C54   A    
C57   C61   A    
C60   H24   S    
C48   C52   A    
O13   V1    S    
C31   C43   A    
C72   C76   A    
C59   C63   A    
O3    V1    S    
C89   H55   S    
C28   C36   A    
C91   H60   S    
C1    O15   A    
C56   C60   A    
C15   C31   A    
C76   C80   A    
C2    O16   A    
C16   C32   A    
O2    C6    A    
C39   H19   S    
C49   O21   S    
C10   C22   A    
C56   C79   S    
C11   C19   A    
C62   H26   S    
C16   C20   A    
C81   H38   S    
C76   H36   S    
C72   H32   S    
C90   C91   S    
C13   C29   A    
C34   C37   A    
C87   H52   S    
C11   C23   A    
C35   C36   A    
O12   C8    A    
C14   H14   S    
C45   C49   A    
C24   H7    S    
C13   H13   S    
C74   H34   S    
O10   V2    S    
C46   C50   A    
O5    V1    S    
C87   C88   S    
C57   H21   S    
C88   C89   S    
C39   C43   A    
O7    V3    S    
C38   C42   A    
C54   C77   S    
O8    V4    S    
C85   C86   S    
O24   C90   S    
C86   H50   S    
C2    C68   S    
C44   H4    S    
C82   C83   S    
C69   C73   A    
O23   C87   S    
C60   C64   A    
O18   V4    S    
C92   H64   S    
C15   C19   A    
C19   H12   S    
C54   C58   A    
C71   C80   A    
O4    V2    S    
C21   H6    S    
C91   C92   S    
C26   C34   A    
C69   C78   A    
C70   H30   S    
C69   H29   S    
C17   H10   S    
C81   C82   S    
C88   H54   S    
C71   H31   S    
C14   C30   A    
C83   H43   S    
C21   C25   A    
O8    C4    A    
C7    C10   S    
O9    C5    A    
C89   H57   S    
C46   I2    S    
C47   I3    S    
C37   H17   S    
C4    C66   S    
C63   C67   A    
C87   H51   S    
O6    V2    S    
C83   H42   S    
C45   C65   A    
C84   C85   S    
O14   V2    S    
C1    C67   S    
C73   H33   S    
C55   C80   S    
C12   C20   A    
C27   C35   A    
C84   H45   S    
C3    C65   S    
C40   C44   A    
C53   C78   S    
C64   H28   S    
C29   C41   A    
C64   C68   A    
C81   H37   S    
O16   V4    S    
C41   H1    S    
C3    O13   A    
C71   C75   A    
C20   H11   S    
C70   C77   A    
O5    C1    A    
C51   O23   S    
O6    C2    A    
C25   C33   A    
C23   C27   A    
O11   V3    S    
C30   C42   A    
C61   H25   S    
O12   V4    S    
C22   C26   A    
C8    C9    S    
C9    C17   A    
C85   H46   S    
O10   C6    A    
O20   V2    S    
C48   C68   A    
C15   H15   S    
C32   C44   A    
C82   H39   S    
C63   H27   S    
C33   C34   A    
C42   H2    S    
C58   C62   A    
C45   I1    S    
C52   C56   A    
O11   C7    A    
C89   H56   S    
C70   C74   A    
C12   C24   A    
C27   C31   A    
C13   C17   A    
C48   I4    S    
C91   H61   S    
C75   C79   A    
C47   C51   A    
C90   H58   S    
C37   C41   A    
C24   C28   A    
C73   C77   A    
C83   H41   S    
C18   H9    S    
C50   O22   S    
C58   H22   S    
C4    O14   A    
C59   H23   S    
C52   O24   S    
C40   H20   S    
C22   H5    S    
C53   C57   A    
C28   C32   A    
C85   H47   S    
C90   H59   S    
C74   C78   A    
