data_mof_unit_22900.cif
_audit_creation_date              2012-12-10T18:11:04-0500
_audit_creation_method            fapswitch 2.2
_symmetry_space_group_name_H-M    P1
_symmetry_Int_Tables_number       1
_space_group_crystal_system       triclinic
_cell_length_a                    11.252122
_cell_length_b                    9.710418
_cell_length_c                    10.847078
_cell_angle_alpha                 89.46571
_cell_angle_beta                  88.228943
_cell_angle_gamma                 89.418831
_cell_volume                      1184.50695017

loop_
_atom_site_label
_atom_site_type_symbol
_atom_type_description
_atom_site_fract_x
_atom_site_fract_y
_atom_site_fract_z
_atom_type_partial_charge
C1    C     C_R   0.259142 0.498907 0.503018 0.746093
C2    C     C_3   0.508022 0.510080 0.119910 -0.166398
C3    C     C_3   0.065396 0.630846 0.572641 -0.050355
C4    C     C_3   0.063030 0.362717 0.585400 -0.081115
C5    C     C_3   0.925862 0.612167 0.594942 -0.212258
C6    C     C_3   0.923543 0.355219 0.562827 -0.240841
C7    C     C_3   0.063198 0.489389 0.367825 0.467307
C8    C     C_3   0.117970 0.494502 0.506275 -0.210729
C9    C     C_3   0.875069 0.496638 0.511050 -0.168315
C10   C     C_3   0.925722 0.518996 0.379915 -0.400842
C11   C     C_3   0.610889 0.080365 0.550985 -0.138870
C12   C     C_3   0.603948 0.917031 0.564266 -0.190411
C13   C     C_3   0.401749 0.083829 0.579707 0.238514
C14   C     C_3   0.392984 0.919367 0.570266 0.194467
C15   C     C_3   0.489608 0.080396 0.375619 -0.127135
C16   C     C_3   0.501572 0.915681 0.375248 -0.139675
C17   C     C_R   0.504948 0.501944 0.259206 0.813210
C18   C     C_R   0.738182 0.499165 0.507018 0.742882
C19   C     C_R   0.510017 0.500166 0.738228 0.816980
C20   C     C_3   0.451795 0.619825 0.031233 0.009095
C21   C     C_3   0.464691 0.391121 0.037929 0.006986
C22   C     C_3   0.406405 0.500120 0.952411 -0.365362
C23   C     C_3   0.521468 0.504005 0.873463 -0.170955
C24   C     C_3   0.566689 0.622506 0.951617 0.252402
C25   C     C_3   0.581932 0.399463 0.958473 0.176884
C26   C     C_3   0.624807 0.517624 0.038164 0.198247
Cu1   Cu    Cu3+1 0.499860 0.642410 0.500060 0.941586
Cu2   Cu    Cu3+1 0.499860 0.357590 0.500060 0.988761
H1    H     H_    0.315698 0.494706 0.915637 0.203408
H2    H     H_    0.904038 0.626976 0.353003 0.167887
H3    H     H_    0.875724 0.457337 0.315537 0.159477
H4    H     H_    0.638912 0.132747 0.635104 0.179297
H5    H     H_    0.608861 0.881435 0.660637 0.162368
H6    H     H_    0.685518 0.101561 0.487206 0.236877
H7    H     H_    0.684076 0.874873 0.523223 0.217076
H8    H     H_    0.398925 0.105345 0.343842 0.131818
H9    H     H_    0.421616 0.876594 0.329588 0.138149
H10   H     H_    0.320801 0.121052 0.537639 0.088338
H11   H     H_    0.314461 0.898211 0.513974 0.107464
H12   H     H_    0.905743 0.574141 0.690370 0.157859
H13   H     H_    0.874198 0.337443 0.652052 0.118562
N1    N     N_3   0.500250 0.143650 0.502780 -0.203931
N2    N     N_3   0.500250 0.856350 0.502780 -0.213888
O1    O     O_R   0.317570 0.620260 0.500070 -0.599000
O2    O     O_R   0.317570 0.379740 0.500070 -0.598101
O3    O     O_R   0.499850 0.620240 0.316900 -0.617158
O4    O     O_R   0.499850 0.379760 0.316900 -0.525285
O5    O     O_R   0.682190 0.620260 0.500030 -0.604899
O6    O     O_R   0.682190 0.379740 0.500030 -0.575006
O7    O     O_R   0.499910 0.620280 0.683200 -0.587372
O8    O     O_R   0.499910 0.379720 0.683200 -0.548624
N3    N     N_2   0.398564 0.139742 0.704506 -0.377648
H14   H     H_    0.327160 0.201829 0.727714 0.311129
C27   C     C_3   0.469680 0.095276 0.807505 -0.662035
H15   H     H_    0.494003 0.186922 0.855743 0.261516
H16   H     H_    0.550536 0.037550 0.783553 0.227885
H17   H     H_    0.419129 0.032977 0.876202 0.223003
N4    N     N_2   0.368002 0.854892 0.690451 -0.407338
H18   H     H_    0.437570 0.842470 0.748492 0.295779
C28   C     C_3   0.257259 0.891871 0.755353 -0.587433
H19   H     H_    0.254707 0.993617 0.797978 0.244957
H20   H     H_    0.241017 0.818703 0.831974 0.220244
H21   H     H_    0.183530 0.894508 0.692471 0.306885
C29   C     C_2   0.571993 0.137797 0.274878 0.560140
H22   H     H_    0.547804 0.120738 0.181082 0.040953
O9    O     O_2   0.665077 0.195668 0.294805 -0.585128
C30   C     C_2   0.607731 0.862235 0.295350 0.421553
H23   H     H_    0.592270 0.802072 0.214551 0.136817
O10   O     O_2   0.710448 0.893317 0.314000 -0.582562
C31   C     C_2   0.375327 0.746398 0.047516 0.313904
H24   H     H_    0.284333 0.745332 0.018358 0.093487
O11   O     O_2   0.412091 0.849781 0.095345 -0.627292
C32   C     C_2   0.383927 0.273660 0.071539 0.322706
H25   H     H_    0.352626 0.206212 0.001587 0.107723
O12   O     O_2   0.342986 0.260173 0.175821 -0.603355
N5    N     N_2   0.623442 0.739043 0.890774 -0.436800
H26   H     H_    0.677445 0.709384 0.817347 0.272566
C33   C     C_3   0.678046 0.839650 0.967163 -0.621516
H27   H     H_    0.728557 0.913199 0.907419 0.248531
H28   H     H_    0.740527 0.791084 0.031727 0.264463
H29   H     H_    0.609166 0.898088 0.019074 0.245205
N6    N     N_2   0.665459 0.300099 0.905351 -0.446789
H30   H     H_    0.726042 0.343217 0.843444 0.244130
C34   C     C_3   0.716687 0.200559 0.987763 -0.679929
H31   H     H_    0.793694 0.148502 0.940944 0.237565
H32   H     H_    0.649739 0.122415 0.011089 0.225520
H33   H     H_    0.747657 0.249534 0.072488 0.258828
N7    N     N_2   0.740900 0.530818 0.090409 -0.442532
H34   H     H_    0.751679 0.468029 0.165998 0.247503
C35   C     C_3   0.843015 0.532103 0.005810 -0.674381
H35   H     H_    0.916313 0.588249 0.048534 0.244277
H36   H     H_    0.822761 0.584420 0.917707 0.251890
H37   H     H_    0.874041 0.425729 0.986020 0.218409
C36   C     C_2   0.099250 0.762086 0.497509 0.297753
H38   H     H_    0.166941 0.761201 0.425663 0.141487
O13   O     O_2   0.059619 0.876039 0.522958 -0.493742
C37   C     C_2   0.119429 0.222846 0.555993 0.501835
H39   H     H_    0.155736 0.197284 0.466763 0.064319
O14   O     O_2   0.113395 0.128631 0.631362 -0.515428
C38   C     C_2   0.120035 0.650157 0.697526 0.356277
H40   H     H_    0.213734 0.628783 0.708881 0.126875
O15   O     O_2   0.060896 0.687394 0.788024 -0.549453
C39   C     C_2   0.079815 0.375439 0.724740 0.398022
H41   H     H_    0.004602 0.386428 0.789028 0.074397
O16   O     O_2   0.178921 0.373395 0.767258 -0.620161
C40   C     C_2   0.864315 0.748927 0.589504 0.535267
H42   H     H_    0.855066 0.797540 0.500054 0.139915
O17   O     O_2   0.836504 0.811012 0.683541 -0.544842
C41   C     C_2   0.889704 0.231912 0.485878 0.457966
H43   H     H_    0.869012 0.242516 0.389824 0.135947
O18   O     O_2   0.888934 0.116674 0.531962 -0.494449
N8    N     N_2   0.112263 0.595837 0.285377 -0.474894
H44   H     H_    0.055397 0.643156 0.224827 0.257720
C42   C     C_3   0.229785 0.580307 0.232025 -0.661986
H45   H     H_    0.223579 0.557172 0.132721 0.220168
H46   H     H_    0.279955 0.495762 0.273438 0.252066
H47   H     H_    0.278100 0.676561 0.248168 0.244438
N9    N     N_2   0.084637 0.354108 0.310643 -0.441565
H48   H     H_    0.171834 0.323133 0.314045 0.284785
C43   C     C_3   0.040102 0.325573 0.188899 -0.634074
H49   H     H_    0.944185 0.301547 0.193288 0.212958
H50   H     H_    0.085773 0.232664 0.150600 0.250275
H51   H     H_    0.057137 0.412015 0.123727 0.239825

loop_
_geom_bond_atom_site_label_1
_geom_bond_atom_site_label_2
_ccdc_geom_bond_type
Cu1   O5    S    
C7    C10   S    
Cu2   O4    S    
C22   H1    S    
C1    C8    S    
C32   H25   S    
C19   O7    A    
C34   H33   S    
C4    C8    S    
C6    C9    S    
N8    C42   S    
C42   H45   S    
C7    C8    S    
C43   H49   S    
C28   H21   S    
N5    C33   S    
C12   N2    S    
C41   O18   D    
C24   C26   S    
Cu2   O8    S    
C33   H28   S    
C40   H42   S    
N4    C28   S    
C15   C16   S    
C4    C39   S    
C21   C32   S    
C7    N8    S    
C11   N1    S    
C28   H20   S    
N9    H48   S    
N8    H44   S    
C14   H11   S    
C10   H3    S    
C20   C24   S    
C43   H50   S    
C6    H13   S    
C15   C29   S    
C31   H24   S    
C9    C10   S    
Cu1   O7    S    
C16   H9    S    
C13   C14   S    
C2    C17   S    
C32   O12   D    
C7    N9    S    
C20   C31   S    
Cu1   O1    S    
C13   N1    S    
C37   O14   D    
N3    C27   S    
C37   H39   S    
C5    C40   S    
C14   N4    S    
C27   H16   S    
Cu2   O2    S    
C2    C20   S    
C30   H23   S    
C34   H31   S    
C17   O3    A    
C39   O16   D    
C3    C8    S    
C3    C38   S    
C33   H27   S    
C24   N5    S    
N4    H18   S    
C28   H19   S    
C30   O10   D    
C29   O9    D    
C19   C23   S    
C5    C9    S    
C19   O8    A    
C13   N3    S    
Cu2   O6    S    
C10   H2    S    
C1    O1    A    
C35   H36   S    
C23   C24   S    
C2    C21   S    
C38   O15   D    
C2    C26   S    
C16   C30   S    
N5    H26   S    
C12   H7    S    
C36   O13   D    
C16   N2    S    
C13   H10   S    
Cu1   O3    S    
C4    C6    S    
N7    C35   S    
C11   H4    S    
N6    C34   S    
C25   N6    S    
C6    C41   S    
C4    C37   S    
C15   H8    S    
Cu1   Cu2   S    
N3    H14   S    
C35   H37   S    
C21   C25   S    
C27   H15   S    
C11   H6    S    
C17   O4    A    
C15   N1    S    
C20   C22   S    
C3    C5    S    
C18   O5    A    
C42   H46   S    
C11   C12   S    
C43   H51   S    
C29   H22   S    
C25   C26   S    
C41   H43   S    
C33   H29   S    
C1    O2    A    
C35   H35   S    
C40   O17   D    
Cu2   N1    S    
C38   H40   S    
C3    C36   S    
C23   C25   S    
C36   H38   S    
N9    C43   S    
C42   H47   S    
Cu1   N2    S    
C9    C18   S    
N7    H34   S    
C26   N7    S    
N6    H30   S    
C5    H12   S    
C39   H41   S    
C22   C23   S    
C34   H32   S    
C31   O11   D    
C12   H5    S    
C21   C22   S    
C18   O6    A    
C14   N2    S    
C27   H17   S    
