data_mof_unit_31723.cif
_audit_creation_date              2012-12-10T17:23:42-0500
_audit_creation_method            fapswitch 2.2
_symmetry_space_group_name_H-M    P1
_symmetry_Int_Tables_number       1
_space_group_crystal_system       triclinic
_cell_length_a                    9.605346
_cell_length_b                    10.77856
_cell_length_c                    17.36428
_cell_angle_alpha                 92.577762
_cell_angle_beta                  85.999
_cell_angle_gamma                 90.038062
_cell_volume                      1791.55346969

loop_
_atom_site_label
_atom_site_type_symbol
_atom_type_description
_atom_site_fract_x
_atom_site_fract_y
_atom_site_fract_z
_atom_type_partial_charge
C1    C     C_R   0.499658 0.737407 0.502705 0.794850
C2    C     C_R   0.343064 0.494139 0.776114 -0.209807
C3    C     C_R   0.412234 0.514240 0.147157 -0.149789
C4    C     C_R   0.405206 0.513219 0.227125 -0.206097
C5    C     C_R   0.657085 0.491388 0.223646 -0.202879
C6    C     C_R   0.663991 0.492065 0.143338 -0.172584
C7    C     C_R   0.541568 0.501494 0.104663 0.192905
C8    C     C_2   0.448772 0.458911 0.977788 -0.232335
C9    C     C_2   0.552082 0.500877 0.020054 -0.229876
C10   C     C_R   0.527366 0.501251 0.265972 -0.028019
C11   C     C_R   0.337376 0.879671 0.625534 -0.186872
C12   C     C_R   0.481778 0.497782 0.649630 0.766911
C13   C     C_R   0.258612 0.948757 0.682745 -0.141805
C14   C     C_R   0.258544 0.077780 0.682662 -0.130741
C15   C     C_R   0.337147 0.138538 0.625335 -0.169241
C16   C     C_R   0.415993 0.070422 0.565874 0.098314
C17   C     C_R   0.416104 0.939168 0.565989 0.097950
C18   C     C_R   0.499149 0.871611 0.507985 -0.102521
C19   C     C_R   0.584790 0.932617 0.453634 -0.193329
C20   C     C_R   0.584680 0.060599 0.453504 -0.206357
C21   C     C_R   0.498953 0.129520 0.507742 -0.089116
C22   C     C_R   0.868885 0.335355 0.397039 -0.150639
C23   C     C_R   0.499653 0.262921 0.502358 0.768188
C24   C     C_R   0.947269 0.254838 0.346681 -0.220217
C25   C     C_R   0.090734 0.254630 0.346744 -0.203756
C26   C     C_R   0.156707 0.334951 0.397159 -0.141831
C27   C     C_R   0.081080 0.418932 0.449437 0.206906
C28   C     C_R   0.931553 0.419055 0.449413 0.213290
C29   C     C_R   0.920128 0.576974 0.548186 -0.062699
C30   C     C_R   0.067981 0.576949 0.548165 -0.062076
C31   C     C_R   0.518208 0.500118 0.350283 0.772237
C32   C     C_R   0.472579 0.487044 0.733415 -0.025679
C33   C     C_R   0.594110 0.464883 0.771026 -0.199486
C34   C     C_R   0.586905 0.452464 0.850293 -0.151919
C35   C     C_R   0.458141 0.463932 0.893413 0.195741
C36   C     C_R   0.336017 0.482192 0.855790 -0.172389
Cu1   Cu    Cu3+1 0.359340 0.500010 0.500010 0.926694
Cu2   Cu    Cu3+1 0.640660 0.499990 0.499990 0.934893
H1    H     H_    0.694985 0.456060 0.739240 0.154693
H2    H     H_    0.764702 0.483643 0.111294 0.121667
H3    H     H_    0.649696 0.880627 0.409903 0.152616
H4    H     H_    0.337867 0.779914 0.629627 0.137853
H5    H     H_    0.198898 0.901978 0.727955 0.130714
H6    H     H_    0.198805 0.131145 0.727819 0.134766
H7    H     H_    0.337290 0.238842 0.629268 0.154177
H8    H     H_    0.649506 0.106127 0.409667 0.137824
H9    H     H_    0.860085 0.640119 0.587712 0.138216
H10   H     H_    0.759757 0.327690 0.392252 0.193234
H11   H     H_    0.895972 0.192010 0.307336 0.146430
H12   H     H_    0.303932 0.522766 0.258423 0.160543
H13   H     H_    0.151709 0.191639 0.307435 0.150716
H14   H     H_    0.267032 0.326873 0.392477 0.198567
H15   H     H_    0.118204 0.640072 0.587679 0.131772
H16   H     H_    0.752869 0.482565 0.252398 0.156738
H17   H     H_    0.648197 0.535490 0.992217 0.143627
H18   H     H_    0.235706 0.489842 0.888309 0.119752
H19   H     H_    0.316477 0.527091 0.119159 0.122863
H20   H     H_    0.352395 0.424552 0.005424 0.142808
H21   H     H_    0.682114 0.432997 0.877389 0.121515
N1    N     N_R   0.852190 0.498790 0.499250 -0.200096
N2    N     N_R   0.148060 0.498710 0.499220 -0.199755
O1    O     O_R   0.381190 0.680360 0.500010 -0.576391
O2    O     O_R   0.618760 0.680340 0.500000 -0.573133
O3    O     O_R   0.367440 0.500030 0.613600 -0.598819
O4    O     O_R   0.605010 0.500010 0.613590 -0.582411
O5    O     O_R   0.381240 0.319660 0.500000 -0.601993
O6    O     O_R   0.618810 0.319640 0.499990 -0.589412
O7    O     O_R   0.394990 0.499990 0.386410 -0.600744
O8    O     O_R   0.632560 0.499970 0.386400 -0.602856
H22   H     H_    0.247649 0.509711 0.748171 0.147696

loop_
_geom_bond_atom_site_label_1
_geom_bond_atom_site_label_2
_ccdc_geom_bond_type
C17   C18   A    
Cu1   N2    S    
C24   C25   A    
C25   H13   S    
C16   C21   A    
C36   H18   S    
C26   H14   S    
C12   O4    A    
C8    C35   S    
C22   H10   S    
C19   C20   A    
Cu2   O4    S    
C31   O8    A    
Cu1   O5    S    
Cu1   O3    S    
C22   C24   A    
C21   C23   S    
Cu1   O1    S    
C1    C18   S    
Cu2   O8    S    
C5    C10   A    
C22   C28   A    
C13   C14   A    
C32   C33   A    
C11   C13   A    
C26   C27   A    
C29   C30   A    
C35   C36   A    
C29   H9    S    
C9    H17   S    
C5    C6    A    
C3    H19   S    
C23   O5    A    
C2    C32   A    
C24   H11   S    
Cu1   Cu2   S    
C33   C34   A    
Cu2   O2    S    
C6    C7    A    
C3    C7    A    
C28   N1    A    
C31   O7    A    
C12   O3    A    
C30   H15   S    
Cu2   N1    S    
C34   H21   S    
C16   C17   A    
C15   H7    S    
C4    C10   A    
C15   C16   A    
Cu2   O6    S    
Cu1   O7    S    
C1    O2    A    
C5    H16   S    
C13   H5    S    
C6    H2    S    
C2    C36   A    
C20   C21   A    
C1    O1    A    
C14   H6    S    
C34   C35   A    
C30   N2    A    
C23   O6    A    
C27   C28   A    
C7    C9    S    
C14   C15   A    
C18   C19   A    
C11   H4    S    
C27   N2    A    
C8    H20   S    
C25   C26   A    
C2    H22   S    
C29   N1    A    
C10   C31   S    
C33   H1    S    
C12   C32   S    
C3    C4    A    
C19   H3    S    
C4    H12   S    
C8    C9    D    
C20   H8    S    
C11   C17   A    
