data_mof_unit_10130.cif
_audit_creation_date              2012-10-26T19:21:29-0400
_audit_creation_method            fapswitch 2.2
_symmetry_space_group_name_H-M    P1
_symmetry_Int_Tables_number       1
_space_group_crystal_system       triclinic
_cell_length_a                    9.895167
_cell_length_b                    11.022859
_cell_length_c                    15.679034
_cell_angle_alpha                 95.821257
_cell_angle_beta                  79.335425
_cell_angle_gamma                 110.280193
_cell_volume                      1575.1473263

loop_
_atom_site_label
_atom_site_type_symbol
_atom_type_description
_atom_site_fract_x
_atom_site_fract_y
_atom_site_fract_z
_atom_type_partial_charge
C1    C     C_R   0.551698 0.743338 0.511148 0.606188
C2    C     C_2   0.508367 0.071851 0.529507 0.237033
C3    C     C_2   0.919706 0.479758 0.498833 0.140868
C4    C     C_2   0.074477 0.507953 0.510547 0.146976
C5    C     C_R   0.412377 0.487449 0.663234 0.581005
C6    C     C_R   0.588114 0.515423 0.336935 0.591455
C7    C     C_R   0.358194 0.465779 0.756696 0.044967
C8    C     C_R   0.637457 0.513641 0.242113 0.034493
C9    C     C_R   0.159179 0.369410 0.871881 -0.108704
C10   C     C_R   0.813812 0.483804 0.119426 -0.102218
C11   C     C_R   0.208933 0.403381 0.785565 -0.101778
C12   C     C_R   0.443481 0.254797 0.497486 0.579112
C13   C     C_R   0.775009 0.503757 0.208346 -0.104005
C14   C     C_R   0.456846 0.494099 0.816308 0.252508
C15   C     C_R   0.541604 0.508620 0.184449 0.249745
C16   C     C_R   0.410484 0.436412 0.897852 0.059137
C17   C     C_R   0.568713 0.463107 0.097760 0.059606
C18   C     C_R   0.259078 0.386075 0.928487 -0.007119
C19   C     C_R   0.711517 0.463152 0.063845 -0.003649
C20   C     C_R   0.509674 0.432254 0.951539 0.012889
C21   C     C_R   0.461182 0.424390 0.042289 0.013846
C22   C     C_2   0.247232 0.308127 0.158006 0.628487
C23   C     C_R   0.308069 0.368425 0.072312 0.083533
C24   C     C_2   0.689566 0.375957 0.828311 0.638602
C25   C     C_2   0.131103 0.606586 0.577983 0.619151
C26   C     C_2   0.856446 0.361613 0.445318 0.617953
C27   C     C_R   0.650781 0.424083 0.918226 0.080530
C28   C     C_R   0.209515 0.349939 0.014529 -0.108244
C29   C     C_R   0.749753 0.440252 0.975112 -0.097551
C30   C     C_2   0.557288 0.871055 0.545002 0.252771
C31   C     C_2   0.419340 0.115866 0.494696 0.243484
C32   C     C_2   0.536776 0.952263 0.494306 0.228197
Cl1   Cl    Cl    0.409877 0.587678 0.214494 -0.468136
Cl2   Cl    Cl    0.626683 0.621760 0.796746 -0.467407
Cl3   Cl    Cl    0.608353 0.164663 0.611275 -0.441634
Cl4   Cl    Cl    0.562112 0.924284 0.379696 -0.465497
Cl5   Cl    Cl    0.282216 0.012182 0.437228 -0.420629
Cl6   Cl    Cl    0.536572 0.886555 0.659605 -0.443970
Cu1   Cu    Cu3+1 0.362980 0.479380 0.485080 1.143755
Cu2   Cu    Cu3+1 0.637020 0.520620 0.514920 1.150845
H1    H     H_    0.093309 0.305622 0.036393 0.155698
H2    H     H_    0.847639 0.374826 0.726740 0.378746
H3    H     H_    0.220342 0.796306 0.609223 0.364879
H4    H     H_    0.822265 0.170505 0.423796 0.366759
H5    H     H_    0.856745 0.433311 0.950334 0.145021
H6    H     H_    0.853377 0.512447 0.250358 0.204515
H7    H     H_    0.130404 0.380706 0.741532 0.195086
H8    H     H_    0.043001 0.325572 0.893477 0.144330
H9    H     H_    0.922282 0.480467 0.094476 0.151359
H10   H     H_    0.119077 0.386206 0.412247 0.240787
H11   H     H_    0.892358 0.632897 0.573430 0.253869
H12   H     H_    0.078111 0.260708 0.256905 0.360254
N1    N     N_2   0.842890 0.551600 0.537350 -0.347380
N2    N     N_2   0.157110 0.448400 0.462650 -0.346583
O1    O     O_R   0.426810 0.668300 0.492040 -0.455592
O2    O     O_R   0.108104 0.304870 0.199390 -0.662458
O3    O     O_2   0.594978 0.298515 0.791068 -0.431526
O4    O     O_R   0.835163 0.415259 0.787439 -0.652918
O5    O     O_2   0.108414 0.576403 0.653490 -0.488468
O6    O     O_R   0.192843 0.736664 0.556931 -0.637075
O7    O     O_2   0.816493 0.368643 0.377571 -0.497180
O8    O     O_R   0.860056 0.243241 0.467493 -0.657548
O9    O     O_R   0.573190 0.331700 0.507960 -0.468365
O10   O     O_R   0.658240 0.703130 0.517240 -0.476552
O11   O     O_R   0.341760 0.296870 0.482760 -0.468959
O12   O     O_R   0.319390 0.472820 0.610170 -0.506609
O13   O     O_R   0.680610 0.527180 0.389830 -0.481393
O14   O     O_R   0.550820 0.507640 0.635370 -0.433474
O15   O     O_R   0.449180 0.492360 0.364630 -0.439615
O16   O     O_2   0.316325 0.257980 0.191210 -0.466202

loop_
_geom_bond_atom_site_label_1
_geom_bond_atom_site_label_2
_ccdc_geom_bond_type
C2    Cl3   S    
C14   Cl2   S    
C6    O15   A    
C7    C11   A    
C10   C13   A    
C24   O3    D    
C8    C13   A    
C20   C27   A    
C27   C29   A    
C9    C11   A    
C12   O11   A    
Cu1   O11   S    
C11   H7    S    
Cu2   O10   S    
C24   C27   S    
C22   O2    S    
C10   C19   A    
C16   C20   A    
C4    N2    D    
H2    O4    S    
C4    C25   S    
C26   O8    S    
C24   O4    S    
C23   C28   A    
C5    O12   A    
C30   C32   D    
C3    N1    D    
Cu1   O15   S    
H10   N2    S    
Cu2   O9    S    
H3    O6    S    
C5    O14   A    
C32   Cl4   S    
C2    C32   S    
C1    C30   S    
C17   C19   A    
C26   O7    D    
C22   O16   D    
C8    C15   A    
C5    C7    S    
C21   C23   A    
C12   C31   S    
C1    O1    A    
C13   H6    S    
Cu1   O12   S    
C14   C16   A    
Cu1   N2    S    
H11   N1    S    
C3    C4    S    
C19   C29   A    
C1    O10   A    
C31   Cl5   S    
C9    C18   A    
C18   C28   A    
C20   C21   A    
C30   Cl6   S    
C9    H8    S    
C16   C18   A    
Cu2   N1    S    
Cu2   O14   S    
C25   O6    S    
Cu1   Cu2   S    
C15   C17   A    
C12   O9    A    
C22   C23   S    
C6    O13   A    
C6    C8    S    
C25   O5    D    
H4    O8    S    
C10   H9    S    
C15   Cl1   S    
C3    C26   S    
C7    C14   A    
C28   H1    S    
H12   O2    S    
C29   H5    S    
C2    C31   D    
Cu1   O1    S    
Cu2   O13   S    
C17   C21   A    
