data_mof_unit_52468.cif
_audit_creation_date              2012-12-10T20:24:45-0500
_audit_creation_method            fapswitch 2.2
_symmetry_space_group_name_H-M    P1
_symmetry_Int_Tables_number       1
_space_group_crystal_system       triclinic
_cell_length_a                    10.749895
_cell_length_b                    19.317623
_cell_length_c                    18.443914
_cell_angle_alpha                 89.7065
_cell_angle_beta                  91.014665
_cell_angle_gamma                 90.361604
_cell_volume                      3829.38285905

loop_
_atom_site_label
_atom_site_type_symbol
_atom_type_description
_atom_site_fract_x
_atom_site_fract_y
_atom_site_fract_z
_atom_type_partial_charge
C1    C     C_R   0.502381 0.366043 0.500082 0.964605
C2    C     C_R   0.494671 0.634560 0.499554 0.896412
C3    C     C_R   0.872469 0.510159 0.504325 -0.082499
C4    C     C_R   0.127650 0.513611 0.500039 -0.091494
C5    C     C_R   0.941450 0.501514 0.569594 0.002681
C6    C     C_R   0.058739 0.536057 0.438569 0.017992
C7    C     C_R   0.496882 0.744591 0.430257 0.515544
C8    C     C_R   0.379616 0.262594 0.475245 0.521370
C9    C     C_R   0.477322 0.815618 0.423700 -0.052074
C10   C     C_R   0.365714 0.190901 0.470363 -0.064634
C11   C     C_R   0.450318 0.853556 0.486406 0.057085
C12   C     C_R   0.464846 0.148507 0.494359 0.062842
C13   C     C_R   0.427817 0.819439 0.551834 -0.228144
C14   C     C_R   0.577087 0.178074 0.518936 -0.217950
C15   C     C_R   0.434402 0.747657 0.557234 -0.077841
C16   C     C_R   0.594654 0.249456 0.518666 -0.084291
C17   C     C_R   0.476987 0.709865 0.496819 -0.234423
C18   C     C_R   0.492854 0.291599 0.499134 -0.206334
C19   C     C_R   0.353960 0.965184 0.518437 -0.371777
C20   C     C_R   0.553716 0.037051 0.458229 -0.374595
C21   C     C_R   0.358868 0.036767 0.523082 0.666416
C22   C     C_R   0.553068 0.965523 0.457971 0.666913
C23   C     C_R   0.259943 0.504826 0.499486 0.896666
C24   C     C_R   0.740292 0.502452 0.501159 0.877277
C25   C     C_R   0.457391 0.073063 0.491162 -0.094218
C26   C     C_R   0.451167 0.929216 0.486149 -0.090223
C27   C     C_R   0.523411 0.559900 0.725811 0.055416
C28   C     C_R   0.395809 0.518718 0.272952 0.055128
C29   C     C_R   0.521404 0.561614 0.801693 -0.385397
C30   C     C_R   0.393693 0.520517 0.196998 -0.381880
C31   C     C_R   0.498772 0.500708 0.841391 -0.026991
C32   C     C_R   0.500171 0.502494 0.158597 -0.020022
C33   C     C_R   0.482218 0.438613 0.802507 0.561670
C34   C     C_R   0.606157 0.481326 0.198639 0.573972
C35   C     C_R   0.480565 0.439772 0.726449 -0.100712
C36   C     C_R   0.604082 0.480818 0.274756 -0.086901
C37   C     C_R   0.396573 0.471314 0.962429 0.054885
C38   C     C_R   0.590552 0.541656 0.037574 0.061455
C39   C     C_R   0.402216 0.471555 0.038843 -0.276991
C40   C     C_R   0.588597 0.538200 0.961262 -0.287833
C41   C     C_R   0.498814 0.505359 0.077322 0.120291
C42   C     C_R   0.494116 0.502711 0.922715 0.120878
C43   C     C_R   0.223602 0.674198 0.329083 -0.077545
C44   C     C_R   0.797408 0.432518 0.742014 -0.163461
C45   C     C_R   0.187775 0.632635 0.387529 -0.120298
C46   C     C_R   0.838141 0.436274 0.670574 -0.115110
C47   C     C_R   0.112032 0.573913 0.375935 0.109571
C48   C     C_R   0.887975 0.498144 0.643199 0.152208
C49   C     C_R   0.072388 0.558006 0.304713 -0.160688
C50   C     C_R   0.893486 0.556837 0.687810 -0.172555
C51   C     C_R   0.108844 0.599598 0.246537 -0.169175
C52   C     C_R   0.851972 0.553120 0.759167 -0.170930
C53   C     C_R   0.184193 0.657712 0.258663 -0.150209
C54   C     C_R   0.805440 0.490723 0.786514 -0.107270
C55   C     C_R   0.930869 0.530065 0.440568 -0.251463
C56   C     C_R   0.068649 0.499681 0.565585 -0.270205
H1    H     H_    0.212139 0.689879 0.213503 0.134692
H2    H     H_    0.775105 0.487523 0.842037 0.143669
H3    H     H_    0.275956 0.937668 0.541637 0.194811
H4    H     H_    0.631293 0.064442 0.434351 0.189079
H5    H     H_    0.543661 0.606720 0.696063 0.163209
H6    H     H_    0.314523 0.532134 0.302245 0.174633
H7    H     H_    0.537073 0.610363 0.829154 0.168200
H8    H     H_    0.309912 0.536546 0.168344 0.171766
H9    H     H_    0.465629 0.392084 0.697118 0.167186
H10   H     H_    0.685836 0.464594 0.305122 0.150205
H11   H     H_    0.329088 0.446032 0.068848 0.149119
H12   H     H_    0.660534 0.564829 0.931344 0.134419
H13   H     H_    0.280402 0.719789 0.338421 0.158075
H14   H     H_    0.759643 0.384479 0.762885 0.152645
H15   H     H_    0.215930 0.647477 0.441846 0.091791
H16   H     H_    0.829444 0.391533 0.636439 0.157973
H17   H     H_    0.012920 0.513565 0.294266 0.153948
H18   H     H_    0.930731 0.605227 0.667430 0.131076
H19   H     H_    0.079465 0.586341 0.192020 0.150229
H20   H     H_    0.857135 0.598347 0.793499 0.132884
H21   H     H_    0.875901 0.544783 0.393143 0.175564
H22   H     H_    0.121346 0.487483 0.614674 0.171414
H23   H     H_    0.402109 0.849175 0.598912 0.165115
H24   H     H_    0.653806 0.144833 0.534991 0.162180
N1    N     N_R   0.500020 0.499980 0.689440 -0.123795
N2    N     N_R   0.499980 0.500020 0.310560 -0.121283
O1    O     O_R   0.500010 0.398180 0.560840 -0.628588
O2    O     O_R   0.499990 0.601820 0.439160 -0.540833
O3    O     O_R   0.499950 0.398180 0.439210 -0.593388
O4    O     O_R   0.500050 0.601820 0.560790 -0.641934
O5    O     O_R   0.316790 0.500010 0.560810 -0.628567
O6    O     O_R   0.683210 0.499990 0.439190 -0.642068
O7    O     O_R   0.316730 0.500000 0.439190 -0.612898
O8    O     O_R   0.683270 0.500000 0.560810 -0.612008
Zn1   Zn    Zn3+2 0.500040 0.500000 0.581210 0.958457
Zn2   Zn    Zn3+2 0.499960 0.500000 0.418790 1.002347
C57   C     C_R   0.385982 0.715447 0.624604 0.161161
C58   C     C_R   0.286972 0.667516 0.621122 -0.079427
C59   C     C_R   0.234058 0.641993 0.684666 -0.134306
C60   C     C_R   0.276575 0.665629 0.752149 -0.117940
C61   C     C_R   0.373636 0.713948 0.756288 -0.160511
C62   C     C_R   0.428580 0.738568 0.692947 -0.188519
H25   H     H_    0.249887 0.650464 0.569315 0.094248
H26   H     H_    0.159206 0.604454 0.681601 0.124486
H27   H     H_    0.234470 0.646484 0.801232 0.121309
H28   H     H_    0.406641 0.732149 0.808631 0.134568
H29   H     H_    0.503490 0.776167 0.697115 0.140104
C63   C     C_R   0.723075 0.276730 0.530861 0.128027
C64   C     C_R   0.778840 0.319463 0.478460 -0.189362
C65   C     C_R   0.904104 0.338578 0.485542 -0.114762
C66   C     C_R   0.975183 0.315160 0.544687 -0.121155
C67   C     C_R   0.921575 0.271716 0.596448 -0.201996
C68   C     C_R   0.796053 0.252786 0.589841 -0.159934
H30   H     H_    0.726788 0.336220 0.430841 0.142566
H31   H     H_    0.946441 0.371102 0.444765 0.165309
H32   H     H_    0.071990 0.330321 0.550165 0.178125
H33   H     H_    0.977041 0.253123 0.641965 0.157164
H34   H     H_    0.756105 0.218894 0.630301 0.146322
F1    F     F_    0.270051 0.070155 0.560574 -0.676988
F2    F     F_    0.653878 0.931951 0.432663 -0.681026
F3    F     F_    0.470448 0.377064 0.837544 -0.677040
F4    F     F_    0.709999 0.460126 0.164592 -0.677220
C69   C     C_R   0.285068 0.440609 0.925866 0.156457
C70   C     C_R   0.219624 0.477857 0.871857 -0.187198
C71   C     C_R   0.119105 0.447473 0.834770 -0.136780
C72   C     C_R   0.080240 0.380522 0.852713 -0.095287
C73   C     C_R   0.142324 0.343752 0.907681 -0.118090
C74   C     C_R   0.244397 0.373515 0.944134 -0.064109
H35   H     H_    0.247543 0.530042 0.857721 0.121744
H36   H     H_    0.072077 0.475781 0.791803 0.152276
H37   H     H_    0.002244 0.357078 0.823968 0.132470
H38   H     H_    0.112159 0.291868 0.921550 0.134755
H39   H     H_    0.293138 0.343748 0.985513 0.133056
C75   C     C_R   0.684911 0.587170 0.073432 0.146319
C76   C     C_R   0.648775 0.637377 0.123822 -0.169498
C77   C     C_R   0.737380 0.681330 0.155959 -0.104574
C78   C     C_R   0.862332 0.676480 0.137206 -0.117078
C79   C     C_R   0.898906 0.627586 0.086370 -0.162799
C80   C     C_R   0.810939 0.582910 0.054804 -0.076883
H40   H     H_    0.551930 0.643068 0.137689 0.137648
H41   H     H_    0.708946 0.719575 0.194928 0.145063
H42   H     H_    0.930758 0.710784 0.161835 0.131297
H43   H     H_    0.995580 0.624228 0.071416 0.120115
H44   H     H_    0.841141 0.544985 0.015913 0.128715
F5    F     F_    0.530654 0.709165 0.370222 -0.682688
F6    F     F_    0.284721 0.304611 0.453506 -0.691410
C81   C     C_R   0.478597 0.848539 0.350540 0.183216
C82   C     C_R   0.375937 0.887405 0.325827 -0.213031
C83   C     C_R   0.376502 0.918473 0.257227 -0.136440
C84   C     C_R   0.478991 0.910681 0.212517 -0.106863
C85   C     C_R   0.581213 0.871903 0.236381 -0.183944
C86   C     C_R   0.581294 0.840956 0.305065 0.030596
H45   H     H_    0.295339 0.893440 0.359592 0.141114
H46   H     H_    0.297310 0.948473 0.238673 0.130198
H47   H     H_    0.479205 0.934699 0.159376 0.131600
H48   H     H_    0.660630 0.865984 0.201733 0.127969
H49   H     H_    0.661984 0.811872 0.323105 0.162790
C87   C     C_R   0.250397 0.161950 0.436666 0.192979
C88   C     C_R   0.255951 0.121156 0.373935 -0.179109
C89   C     C_R   0.146971 0.093586 0.342873 -0.133661
C90   C     C_R   0.031835 0.106865 0.373868 -0.102521
C91   C     C_R   0.025520 0.147564 0.436111 -0.135203
C92   C     C_R   0.134378 0.174912 0.467466 0.032639
H50   H     H_    0.344493 0.110721 0.349213 0.138280
H51   H     H_    0.151787 0.061978 0.294729 0.131403
H52   H     H_    0.947568 0.085514 0.349747 0.143065
H53   H     H_    0.936420 0.157608 0.460298 0.147372
H54   H     H_    0.129060 0.204986 0.516555 0.146359

loop_
_geom_bond_atom_site_label_1
_geom_bond_atom_site_label_2
_ccdc_geom_bond_type
C34   F4    S    
C30   C32   A    
C64   H30   S    
C29   H7    S    
C33   F3    S    
C57   C58   A    
C31   C42   S    
C30   H8    S    
C45   H15   S    
C66   H32   S    
C5    C56   A    
C2    O2    A    
C59   C60   A    
C6    C55   A    
C21   F1    S    
C10   C87   S    
C13   H23   S    
C61   C62   A    
C9    C81   S    
N2    Zn2   S    
C73   C74   A    
C39   C41   A    
C69   C74   A    
C1    C18   S    
C90   C91   A    
C38   C75   S    
C89   C90   A    
C19   C21   A    
C51   H19   S    
C48   C50   A    
O5    Zn1   S    
O4    Zn1   S    
C50   H18   S    
C63   C68   A    
C55   H21   S    
C36   H10   S    
C27   C29   A    
C65   C66   A    
C35   H9    S    
C62   H29   S    
C72   H37   S    
C56   H22   S    
C67   C68   A    
C7    C9    A    
C37   C42   A    
C19   C26   A    
C27   H5    S    
C85   C86   A    
C3    C55   A    
C43   C53   A    
O6    Zn2   S    
C52   C54   A    
C77   C78   A    
C7    C17   A    
C50   C52   A    
C66   C67   A    
C23   O7    A    
C44   H14   S    
C14   H24   S    
C20   H4    S    
C46   H16   S    
C83   H46   S    
C40   C42   A    
C40   H12   S    
C78   H42   S    
C43   H13   S    
C23   O5    A    
C60   H27   S    
C4    C56   A    
C2    C17   S    
C29   C31   A    
C3    C24   S    
C81   C86   A    
C63   C64   A    
O3    Zn2   S    
C44   C46   A    
C83   C84   A    
C65   H31   S    
C45   C47   A    
C1    O3    A    
C80   H44   S    
C5    C48   S    
C46   C48   A    
C6    C47   S    
C28   N2    A    
C27   N1    A    
C38   C41   A    
C47   C49   A    
C76   H40   S    
C36   N2    A    
C79   H43   S    
C4    C23   S    
C53   H1    S    
C59   H26   S    
C11   C26   S    
C49   C51   A    
C77   H41   S    
C8    C18   A    
C51   C53   A    
C32   C34   A    
C67   H33   S    
C82   H45   S    
C24   O6    A    
C75   C76   A    
C37   C69   S    
C32   C41   S    
C60   C61   A    
C31   C33   A    
C87   C88   A    
C16   C18   A    
O7    Zn2   S    
C43   C45   A    
C9    C11   A    
C71   C72   A    
C10   C12   A    
C68   H34   S    
C91   H53   S    
C4    C6    A    
C75   C80   A    
C12   C14   A    
C89   H51   S    
C16   C63   S    
C13   C15   A    
C22   C26   A    
C78   C79   A    
C49   H17   S    
C86   H49   S    
C76   C77   A    
C3    C5    A    
C7    F5    S    
C70   C71   A    
C84   C85   A    
C54   H2    S    
C15   C17   A    
C21   C25   A    
C88   H50   S    
C70   H35   S    
C39   H11   S    
C61   H28   S    
C20   C22   A    
C82   C83   A    
C52   H20   S    
C24   O8    A    
C15   C57   S    
C69   C70   A    
C79   C80   A    
C1    O1    A    
O1    Zn1   S    
C64   C65   A    
C35   N1    A    
C12   C25   S    
C19   H3    S    
C28   C30   A    
C85   H48   S    
C87   C92   A    
C37   C39   A    
C38   C40   A    
C11   C13   A    
O8    Zn1   S    
C91   C92   A    
C58   H25   S    
C57   C62   A    
C22   F2    S    
C33   C35   A    
C34   C36   A    
C74   H39   S    
C2    O4    A    
C14   C16   A    
C58   C59   A    
C84   H47   S    
N1    Zn1   S    
C44   C54   A    
C71   H36   S    
C8    C10   A    
C20   C25   A    
C73   H38   S    
C88   C89   A    
C92   H54   S    
C8    F6    S    
O2    Zn2   S    
C72   C73   A    
C90   H52   S    
C81   C82   A    
C28   H6    S    
