data_mof_unit_60825.cif
_audit_creation_date              2012-12-11T16:16:34-0500
_audit_creation_method            fapswitch 2.2
_symmetry_space_group_name_H-M    P1
_symmetry_Int_Tables_number       1
_space_group_crystal_system       triclinic
_cell_length_a                    7.194321
_cell_length_b                    25.402719
_cell_length_c                    29.300308
_cell_angle_alpha                 90.000891
_cell_angle_beta                  90.001355
_cell_angle_gamma                 89.999705
_cell_volume                      5354.78700885

loop_
_atom_site_label
_atom_site_type_symbol
_atom_type_description
_atom_site_fract_x
_atom_site_fract_y
_atom_site_fract_z
_atom_type_partial_charge
O1    O     O_R   0.600980 0.796780 0.202430 -0.529019
O2    O     O_R   0.399020 0.203220 0.797570 -0.517981
O3    O     O_R   0.399020 0.203220 0.702430 -0.529041
O4    O     O_R   0.600980 0.796780 0.297570 -0.518077
O5    O     O_R   0.100980 0.703220 0.297570 -0.529046
O6    O     O_R   0.899020 0.296780 0.702430 -0.517994
O7    O     O_R   0.899020 0.296780 0.797570 -0.529028
O8    O     O_R   0.100980 0.703220 0.202430 -0.518038
O9    O     O_R   0.271240 0.802920 0.297240 -0.541239
O10   O     O_R   0.728760 0.197080 0.702760 -0.526082
O11   O     O_R   0.728760 0.197080 0.797240 -0.541240
O12   O     O_R   0.271240 0.802920 0.202760 -0.526012
O13   O     O_R   0.771240 0.697080 0.202760 -0.541235
O14   O     O_R   0.228760 0.302920 0.797240 -0.526087
O15   O     O_R   0.228760 0.302920 0.702760 -0.541245
O16   O     O_R   0.771240 0.697080 0.297240 -0.526062
C1    C     C_R   0.437970 0.814185 0.314171 0.765956
C2    C     C_R   0.560173 0.184914 0.687088 0.796433
C3    C     C_R   0.562029 0.185801 0.814162 0.765977
C4    C     C_R   0.439830 0.815083 0.187085 0.796417
C5    C     C_R   0.937968 0.685816 0.185828 0.766012
C6    C     C_R   0.060174 0.315086 0.812912 0.796435
C7    C     C_R   0.062026 0.314197 0.685836 0.765960
C8    C     C_R   0.939830 0.684916 0.312915 0.796439
O17   O     O_3   0.434470 0.717290 0.250000 -0.388364
O18   O     O_3   0.565530 0.282710 0.750000 -0.388379
O19   O     O_3   0.934470 0.782710 0.250000 -0.388392
O20   O     O_3   0.065530 0.217290 0.750000 -0.388368
V1    V     V_3+5 0.159620 0.756070 0.250000 1.497554
V2    V     V_3+5 0.840380 0.243930 0.750000 1.497737
V3    V     V_3+5 0.659620 0.743930 0.250000 1.497540
V4    V     V_3+5 0.340380 0.256070 0.750000 1.497723
C9    C     C_R   0.053527 0.661968 0.391901 0.342789
C10   C     C_R   0.904088 0.347053 0.613407 0.316678
C11   C     C_R   0.946512 0.338042 0.891897 0.342742
C12   C     C_R   0.095861 0.652989 0.113384 0.316756
C13   C     C_R   0.553471 0.838007 0.108089 0.342905
C14   C     C_R   0.404098 0.152936 0.886587 0.316679
C15   C     C_R   0.446498 0.161956 0.608103 0.342737
C16   C     C_R   0.595879 0.847017 0.386614 0.316772
C17   C     C_R   0.066945 0.627322 0.429525 0.371897
C18   C     C_R   0.883184 0.383654 0.577231 0.353074
C19   C     C_R   0.933101 0.372694 0.929518 0.371878
C20   C     C_R   0.116763 0.616389 0.077205 0.353067
C21   C     C_R   0.566863 0.872641 0.070456 0.372046
C22   C     C_R   0.383191 0.116330 0.922759 0.353068
C23   C     C_R   0.433078 0.127304 0.570483 0.371873
C24   C     C_R   0.616780 0.883618 0.422792 0.353058
C25   C     C_R   0.978870 0.577775 0.428160 -0.150704
C26   C     C_R   0.015641 0.424101 0.570690 -0.137941
C27   C     C_R   0.021158 0.422242 0.928149 -0.150704
C28   C     C_R   0.984343 0.575929 0.070672 -0.137912
C29   C     C_R   0.478854 0.922197 0.071818 -0.150674
C30   C     C_R   0.515638 0.075878 0.929295 -0.137949
C31   C     C_R   0.521139 0.077756 0.571853 -0.150715
C32   C     C_R   0.484345 0.924074 0.429326 -0.137929
C33   C     C_R   0.881027 0.563418 0.388931 -0.193407
C34   C     C_R   0.173604 0.423979 0.598474 -0.178434
C35   C     C_R   0.118996 0.436595 0.888918 -0.193410
C36   C     C_R   0.826384 0.576048 0.098457 -0.178505
C37   C     C_R   0.381103 0.936575 0.111055 -0.193386
C38   C     C_R   0.673598 0.076002 0.901512 -0.178428
C39   C     C_R   0.618986 0.063404 0.611084 -0.193413
C40   C     C_R   0.326381 0.923952 0.401541 -0.178506
H1    H     H_    0.820974 0.524351 0.387269 0.166269
H2    H     H_    0.282197 0.452583 0.591948 0.182931
H3    H     H_    0.179043 0.475662 0.887253 0.166268
H4    H     H_    0.717798 0.547438 0.091938 0.182923
H5    H     H_    0.321134 0.975653 0.112717 0.166220
H6    H     H_    0.782188 0.047396 0.908036 0.182930
H7    H     H_    0.679040 0.024338 0.612749 0.166269
H8    H     H_    0.217791 0.952561 0.408060 0.182933
C41   C     C_R   0.864159 0.597329 0.351256 0.071484
C42   C     C_R   0.202672 0.386541 0.633081 0.048527
C43   C     C_R   0.135875 0.402677 0.851247 0.071507
C44   C     C_R   0.797292 0.613502 0.133050 0.048345
C45   C     C_R   0.364242 0.902675 0.148737 0.071396
C46   C     C_R   0.702669 0.113445 0.866908 0.048532
C47   C     C_R   0.635876 0.097323 0.648755 0.071480
C48   C     C_R   0.297295 0.886499 0.366947 0.048368
C49   C     C_R   0.950421 0.647695 0.352433 -0.222825
C50   C     C_R   0.057125 0.349987 0.644261 -0.186920
C51   C     C_R   0.049602 0.352312 0.852427 -0.222884
C52   C     C_R   0.942850 0.650045 0.144240 -0.186911
C53   C     C_R   0.450429 0.852298 0.147562 -0.222852
C54   C     C_R   0.557132 0.150004 0.855734 -0.186931
C55   C     C_R   0.549597 0.147688 0.647573 -0.222894
C56   C     C_R   0.442858 0.849958 0.355758 -0.186886
N1    N     N_R   0.833032 0.512109 0.479061 -0.243485
N2    N     N_R   0.157259 0.492561 0.520986 -0.251620
N3    N     N_R   0.166968 0.487931 0.979038 -0.243504
N4    N     N_R   0.842758 0.507451 0.020979 -0.251631
N5    N     N_R   0.333034 0.987880 0.020930 -0.243500
N6    N     N_R   0.657222 0.007386 0.978975 -0.251660
N7    N     N_R   0.666962 0.012076 0.520960 -0.243496
N8    N     N_R   0.342743 0.992543 0.479024 -0.251618
N9    N     N_R   0.840816 0.475965 0.512040 -0.196497
N10   N     N_R   0.149580 0.528938 0.488224 -0.205285
N11   N     N_R   0.159175 0.524077 0.012016 -0.196512
N12   N     N_R   0.850447 0.471072 0.988217 -0.205273
N13   N     N_R   0.340822 0.024026 0.987953 -0.196479
N14   N     N_R   0.649539 0.971006 0.011735 -0.205270
N15   N     N_R   0.659173 0.975931 0.487980 -0.196514
N16   N     N_R   0.350426 0.028920 0.511787 -0.205277
C57   C     C_R   0.003436 0.464875 0.533585 0.581909
C58   C     C_R   0.987095 0.539539 0.466584 0.586535
C59   C     C_R   0.996562 0.535152 0.033569 0.581917
C60   C     C_R   0.012925 0.460485 0.966570 0.586530
C61   C     C_R   0.503424 0.035097 0.966394 0.581893
C62   C     C_R   0.487072 0.960427 0.033390 0.586509
C63   C     C_R   0.496558 0.964849 0.466430 0.581917
C64   C     C_R   0.512908 0.039513 0.533432 0.586536
Cl1   Cl    Cl    0.166108 0.723850 0.395104 -0.472290
Cl2   Cl    Cl    0.748716 0.293031 0.615241 -0.508128
Cl3   Cl    Cl    0.833945 0.276160 0.895106 -0.472123
Cl4   Cl    Cl    0.251146 0.707029 0.115214 -0.508237
Cl5   Cl    Cl    0.666021 0.776120 0.104893 -0.472287
Cl6   Cl    Cl    0.248724 0.206959 0.884756 -0.508088
Cl7   Cl    Cl    0.333925 0.223839 0.604893 -0.472152
Cl8   Cl    Cl    0.751182 0.792980 0.384783 -0.508229
Cl9   Cl    Cl    0.188599 0.647402 0.478962 -0.438048
Cl10  Cl    Cl    0.696474 0.375188 0.538515 -0.472528
Cl11  Cl    Cl    0.811476 0.352615 0.978959 -0.438065
Cl12  Cl    Cl    0.303407 0.624875 0.038476 -0.472494
Cl13  Cl    Cl    0.688408 0.852536 0.021012 -0.437932
Cl14  Cl    Cl    0.196484 0.124795 0.961474 -0.472528
Cl15  Cl    Cl    0.311437 0.147380 0.521042 -0.438069
Cl16  Cl    Cl    0.803442 0.875137 0.461519 -0.472519
C65   C     C_3   0.765136 0.576033 0.309532 -0.344208
C66   C     C_3   0.561315 0.561412 0.319165 -0.322764
C67   C     C_3   0.441576 0.609205 0.330245 -0.598436
H9    H     H_    0.443959 0.637362 0.301440 0.233623
H10   H     H_    0.296204 0.596139 0.335679 0.177701
H11   H     H_    0.491483 0.629020 0.361730 0.262255
H12   H     H_    0.503525 0.541653 0.288603 0.186253
H13   H     H_    0.550959 0.532665 0.347567 0.210605
H14   H     H_    0.771541 0.603518 0.280365 0.147402
H15   H     H_    0.839246 0.539927 0.298200 0.150880
C68   C     C_3   0.400611 0.385523 0.651543 -0.253121
C69   C     C_3   0.439544 0.430932 0.684484 -0.374243
C70   C     C_3   0.642921 0.430779 0.699579 -0.745912
H16   H     H_    0.736277 0.432953 0.669454 0.224545
H17   H     H_    0.674523 0.394483 0.719246 0.229155
H18   H     H_    0.671178 0.465571 0.721378 0.221595
H19   H     H_    0.409387 0.469188 0.667652 0.218154
H20   H     H_    0.348084 0.427382 0.714622 0.191750
H21   H     H_    0.445236 0.347784 0.666186 0.237223
H22   H     H_    0.496337 0.389871 0.622057 0.226214
C71   C     C_3   0.234934 0.423963 0.809525 -0.344222
C72   C     C_3   0.438750 0.438582 0.819170 -0.322819
C73   C     C_3   0.558480 0.390785 0.830232 -0.598555
H23   H     H_    0.556095 0.362647 0.801416 0.233583
H24   H     H_    0.703848 0.403848 0.835673 0.177716
H25   H     H_    0.508573 0.370953 0.861704 0.262277
H26   H     H_    0.496554 0.458354 0.788619 0.186305
H27   H     H_    0.449107 0.467314 0.847582 0.210633
H28   H     H_    0.228554 0.396479 0.780355 0.147471
H29   H     H_    0.160844 0.460071 0.798188 0.150852
C74   C     C_3   0.599307 0.614575 0.151471 -0.252782
C75   C     C_3   0.560271 0.569263 0.184499 -0.374243
C76   C     C_3   0.356865 0.569468 0.199567 -0.745916
H30   H     H_    0.263558 0.567219 0.169438 0.224473
H31   H     H_    0.325267 0.605813 0.219161 0.229359
H32   H     H_    0.328530 0.534738 0.221427 0.221481
H33   H     H_    0.590451 0.530961 0.167749 0.218098
H34   H     H_    0.651664 0.572900 0.214639 0.191753
H35   H     H_    0.554713 0.652370 0.166017 0.237406
H36   H     H_    0.503644 0.610146 0.121979 0.226103
C77   C     C_3   0.265383 0.924002 0.190469 -0.344232
C78   C     C_3   0.061540 0.938629 0.180865 -0.322559
C79   C     C_3   0.941577 0.890799 0.170065 -0.598666
H37   H     H_    0.943766 0.862890 0.199055 0.233260
H38   H     H_    0.796291 0.903887 0.164545 0.177830
H39   H     H_    0.991455 0.870682 0.138719 0.262279
H40   H     H_    0.004064 0.958585 0.211368 0.186195
H41   H     H_    0.051018 0.967208 0.152338 0.210692
H42   H     H_    0.271905 0.896535 0.219647 0.147336
H43   H     H_    0.339556 0.960114 0.201764 0.150921
C80   C     C_3   0.900603 0.114457 0.848444 -0.253172
C81   C     C_3   0.939529 0.069037 0.815513 -0.374232
C82   C     C_3   0.142891 0.069193 0.800409 -0.745900
H44   H     H_    0.236282 0.067047 0.830531 0.224540
H45   H     H_    0.174443 0.105478 0.780720 0.229125
H46   H     H_    0.171156 0.034386 0.778628 0.221603
H47   H     H_    0.909415 0.030786 0.832359 0.218161
H48   H     H_    0.848034 0.072571 0.785379 0.191740
H49   H     H_    0.945227 0.152189 0.833791 0.237203
H50   H     H_    0.996336 0.110117 0.877932 0.226223
C83   C     C_3   0.734985 0.076043 0.690473 -0.344224
C84   C     C_3   0.938795 0.061430 0.680817 -0.322830
C85   C     C_3   0.058480 0.109228 0.669728 -0.598455
H51   H     H_    0.056249 0.137361 0.698548 0.233528
H52   H     H_    0.203817 0.096165 0.664243 0.177711
H53   H     H_    0.008428 0.129067 0.638272 0.262308
H54   H     H_    0.996664 0.041674 0.711370 0.186304
H55   H     H_    0.949118 0.032684 0.652414 0.210626
H56   H     H_    0.728633 0.103529 0.719642 0.147512
H57   H     H_    0.660921 0.039934 0.701816 0.150847
C86   C     C_3   0.099316 0.885427 0.348522 -0.252825
C87   C     C_3   0.060315 0.930728 0.315479 -0.374290
C88   C     C_3   0.856888 0.930547 0.300432 -0.745773
H58   H     H_    0.763662 0.932899 0.330573 0.224502
H59   H     H_    0.825096 0.894157 0.280911 0.229240
H60   H     H_    0.828646 0.965232 0.278503 0.221498
H61   H     H_    0.090608 0.969035 0.332209 0.218086
H62   H     H_    0.151642 0.927058 0.285331 0.191811
H63   H     H_    0.054721 0.847629 0.333984 0.237387
H64   H     H_    0.003640 0.889869 0.378008 0.226101

loop_
_geom_bond_atom_site_label_1
_geom_bond_atom_site_label_2
_ccdc_geom_bond_type
C83   H57   S    
O17   V3    S    
C79   H37   S    
C44   C74   S    
O18   V4    S    
C84   C85   S    
C7    C50   S    
C19   Cl11  S    
C31   C64   S    
O19   V1    S    
C1    C56   S    
C40   C48   A    
C77   C78   S    
C66   H12   S    
C10   C18   A    
C15   C55   A    
C79   H39   S    
C3    C54   S    
C19   C27   A    
C44   C52   A    
C47   C55   A    
C76   H30   S    
O15   V4    S    
C78   H41   S    
C82   H44   S    
O16   V3    S    
C79   H38   S    
C68   H21   S    
C87   H61   S    
C14   C54   A    
O8    V1    S    
C23   C31   A    
C12   C52   A    
N7    C64   A    
C70   H17   S    
O12   V1    S    
C80   H49   S    
C78   C79   S    
N13   C61   A    
C71   H28   S    
O1    V3    S    
C25   C33   A    
C74   H36   S    
C38   H6    S    
O3    C2    A    
O2    V4    S    
C88   H58   S    
C73   H25   S    
C17   Cl9   S    
O13   V3    S    
C83   H56   S    
C28   C36   A    
C35   H3    S    
C29   C37   A    
C34   H2    S    
C29   C62   S    
C65   H15   S    
C28   C59   S    
C37   C45   A    
C27   C60   S    
C31   C39   A    
N1    C58   A    
C26   C57   S    
C73   H23   S    
C32   C40   A    
C11   Cl3   S    
C75   H34   S    
C11   C19   A    
C71   H29   S    
C32   C63   S    
C24   C32   A    
C84   H55   S    
N5    C62   A    
N9    C57   A    
C46   C54   A    
O15   C7    A    
C45   C53   A    
C86   C87   S    
O16   C8    A    
O7    V2    S    
C72   H27   S    
C88   H59   S    
O12   C4    A    
C83   C84   S    
C67   H11   S    
C42   C50   A    
C17   C25   A    
C76   H31   S    
C65   H14   S    
N7    N15   A    
O5    V1    S    
C78   H40   S    
C82   H45   S    
O10   C2    A    
N8    C63   A    
C41   C65   S    
C68   H22   S    
N12   C60   A    
C46   C80   S    
C26   C34   A    
C41   C49   A    
C69   C70   S    
O11   V2    S    
C70   H18   S    
N5    N13   A    
N16   C64   A    
N4    N12   A    
C11   C51   A    
C87   C88   S    
C39   C47   A    
C80   H50   S    
C30   C38   A    
C48   C86   S    
C20   Cl12  S    
C22   Cl14  S    
C85   H51   S    
C30   C61   S    
N1    N9    A    
C8    C49   S    
C85   H52   S    
C24   Cl16  S    
O10   V2    S    
N4    C59   A    
C74   C75   S    
C5    C52   S    
O11   C3    A    
C4    C53   S    
C22   C30   A    
C86   H63   S    
O8    C5    A    
O13   C5    A    
C18   Cl10  S    
C75   H33   S    
C36   H4    S    
C81   H48   S    
C84   H54   S    
C18   C26   A    
O4    C1    A    
O9    C1    A    
C16   Cl8   S    
C39   H7    S    
C36   C44   A    
C72   H26   S    
C77   H42   S    
C88   H60   S    
C12   C20   A    
C27   C35   A    
C69   H20   S    
C67   H9    S    
C12   Cl4   S    
C35   C43   A    
C77   H43   S    
C76   H32   S    
C81   C82   S    
C34   C42   A    
C15   C23   A    
C65   C66   S    
C82   H46   S    
C37   H5    S    
C16   C24   A    
O1    C4    A    
C87   H62   S    
O6    V2    S    
O2    C3    A    
C33   C41   A    
N3    C60   A    
C38   C46   A    
C66   H13   S    
N2    C57   A    
O14   V4    S    
C67   H10   S    
C69   H19   S    
C68   C69   S    
C23   Cl15  S    
C25   C58   S    
C20   C28   A    
N15   C63   A    
O9    V1    S    
C10   Cl2   S    
O7    C6    A    
N11   C59   A    
C42   C68   S    
N6    C61   A    
C9    Cl1   S    
C2    C55   S    
N10   C58   A    
C9    C17   A    
C6    C51   S    
O14   C6    A    
N8    N16   A    
C66   C67   S    
C13   C53   A    
C85   H53   S    
C48   C56   A    
C70   H16   S    
C75   C76   S    
C43   C51   A    
O5    C8    A    
C9    C49   A    
C43   C71   S    
C15   Cl7   S    
O6    C7    A    
O20   V2    S    
C86   H64   S    
C74   H35   S    
C73   H24   S    
O3    V4    S    
C14   C22   A    
O4    V3    S    
N14   C62   A    
C81   H47   S    
C21   C29   A    
C80   C81   S    
C14   Cl6   S    
C13   Cl5   S    
N6    N14   A    
C45   C77   S    
C47   C83   S    
C21   Cl13  S    
C72   C73   S    
C10   C50   A    
N3    N11   A    
C71   C72   S    
C13   C21   A    
N2    N10   A    
C16   C56   A    
C40   H8    S    
C33   H1    S    
