data_mof_unit_22601.cif
_audit_creation_date              2012-12-10T20:44:44-0500
_audit_creation_method            fapswitch 2.2
_symmetry_space_group_name_H-M    P1
_symmetry_Int_Tables_number       1
_space_group_crystal_system       triclinic
_cell_length_a                    9.853554
_cell_length_b                    10.689963
_cell_length_c                    16.917953
_cell_angle_alpha                 89.377054
_cell_angle_beta                  94.761534
_cell_angle_gamma                 89.592944
_cell_volume                      1775.72538581

loop_
_atom_site_label
_atom_site_type_symbol
_atom_type_description
_atom_site_fract_x
_atom_site_fract_y
_atom_site_fract_z
_atom_type_partial_charge
C1    C     C_R   0.499878 0.259838 0.497256 0.882143
C2    C     C_R   0.652322 0.550117 0.781572 0.451083
C3    C     C_R   0.573788 0.578897 0.142705 -0.162452
C4    C     C_R   0.584242 0.559204 0.223738 -0.233223
C5    C     C_R   0.448413 0.560005 0.098206 0.326150
C6    C     C_R   0.469762 0.522466 0.261588 -0.023898
C7    C     C_R   0.343322 0.509783 0.218016 -0.221876
C8    C     C_R   0.333044 0.528799 0.136474 -0.196183
C9    C     C_R   0.619141 0.062813 0.478808 0.142901
C10   C     C_R   0.497746 0.128664 0.483611 -0.107017
C11   C     C_R   0.372911 0.066017 0.472361 -0.226227
C12   C     C_R   0.518282 0.501261 0.653293 0.898462
C13   C     C_R   0.372319 0.936602 0.472254 -0.225143
C14   C     C_R   0.496545 0.871481 0.483427 -0.106719
C15   C     C_R   0.618397 0.935049 0.478928 0.138215
C16   C     C_3   0.747999 0.925167 0.531036 -0.482525
C17   C     C_3   0.749332 0.066653 0.530676 -0.502018
C18   C     C_R   0.081122 0.471280 0.567613 0.218069
C19   C     C_R   0.062514 0.540057 0.435438 -0.145726
C20   C     C_R   0.918521 0.540131 0.435448 -0.146821
C21   C     C_R   0.938620 0.471877 0.567685 0.256945
C22   C     C_3   0.939568 0.353033 0.614191 -0.494369
C23   C     C_R   0.499099 0.740101 0.497148 0.875088
C24   C     C_3   0.093406 0.350988 0.613160 -0.522510
C25   C     C_R   0.481856 0.504563 0.346894 0.866453
C26   C     C_R   0.529583 0.513344 0.739254 -0.140244
C27   C     C_R   0.412274 0.495287 0.779172 -0.309171
C28   C     C_R   0.415915 0.511461 0.859996 -0.162759
C29   C     C_R   0.538199 0.545388 0.902850 0.274979
C30   C     C_R   0.655928 0.561766 0.863887 -0.313696
H1    H     H_    0.682009 0.572888 0.256588 0.152925
H2    H     H_    0.275556 0.888686 0.469469 0.172970
H3    H     H_    0.732953 0.884120 0.590270 0.205071
H4    H     H_    0.832030 0.882906 0.500065 0.206904
H5    H     H_    0.736169 0.106949 0.589921 0.202074
H6    H     H_    0.833918 0.105815 0.498804 0.204070
H7    H     H_    0.109011 0.570448 0.382889 0.148789
H8    H     H_    0.856849 0.570779 0.382908 0.148585
H9    H     H_    0.904760 0.366787 0.674334 0.239622
H10   H     H_    0.889057 0.276509 0.580022 0.203900
H11   H     H_    0.146718 0.361873 0.673009 0.199473
H12   H     H_    0.664429 0.605849 0.114880 0.146205
H13   H     H_    0.131929 0.273006 0.577977 0.214887
H14   H     H_    0.750575 0.584287 0.897760 0.147841
H15   H     H_    0.253269 0.483338 0.246626 0.156370
H16   H     H_    0.323388 0.495379 0.888816 0.160577
H17   H     H_    0.236286 0.514753 0.102580 0.137899
H18   H     H_    0.316766 0.468907 0.747985 0.178918
H19   H     H_    0.276361 0.115653 0.469614 0.170499
N1    N     N_2   0.548809 0.556334 0.985875 -0.193205
N2    N     N_2   0.436832 0.561051 0.014764 -0.204760
N3    N     N_R   0.142860 0.499130 0.500540 -0.107406
N4    N     N_R   0.857210 0.499170 0.500530 -0.114326
O1    O     O_R   0.614690 0.316790 0.499990 -0.616167
O2    O     O_R   0.385350 0.316760 0.500000 -0.622600
O3    O     O_R   0.627460 0.498860 0.616130 -0.565659
O4    O     O_R   0.398120 0.498820 0.616130 -0.625669
O5    O     O_R   0.614650 0.683240 0.500000 -0.620264
O6    O     O_R   0.385310 0.683210 0.500010 -0.621740
O7    O     O_R   0.601880 0.501180 0.383870 -0.629016
O8    O     O_R   0.372540 0.501140 0.383870 -0.629176
Zn1   Zn    Zn3+2 0.653130 0.500020 0.499990 0.955991
Zn2   Zn    Zn3+2 0.346870 0.499980 0.500010 0.941148
O9    O     O_3   0.769384 0.568937 0.743107 -0.605908
C31   C     C_3   0.802744 0.697309 0.745398 0.110871
H20   H     H_    0.837095 0.725802 0.806834 0.136314
H21   H     H_    0.714219 0.756688 0.722526 0.123233
C32   C     C_3   0.918961 0.721168 0.693532 -0.830983
H22   H     H_    0.885296 0.701820 0.630691 0.252547
H23   H     H_    0.950515 0.820510 0.698217 0.206769
H24   H     H_    0.007545 0.660129 0.712821 0.254515

loop_
_geom_bond_atom_site_label_1
_geom_bond_atom_site_label_2
_ccdc_geom_bond_type
C27   H18   S    
C14   C23   S    
C23   O5    A    
C21   N4    A    
C1    O1    A    
C3    H12   S    
O5    Zn1   S    
C29   C30   A    
C11   H19   S    
C17   H6    S    
C16   H3    S    
C5    C8    A    
C18   C21   A    
C19   H7    S    
C9    C10   A    
C13   H2    S    
O6    Zn2   S    
C19   C20   A    
C31   H21   S    
C2    C30   A    
C31   C32   S    
C22   H10   S    
O9    C31   S    
N1    N2    D    
C9    C15   A    
C8    H17   S    
C18   N3    A    
C7    C8    A    
C2    C26   A    
C25   O8    A    
C21   C22   S    
C23   O6    A    
C24   H11   S    
C11   C13   A    
C28   H16   S    
C26   C27   A    
C12   O3    A    
C32   H24   S    
C18   C24   S    
C12   O4    A    
C7    H15   S    
C22   C24   S    
C4    C6    A    
C28   C29   A    
C25   O7    A    
C2    O9    S    
O4    Zn2   S    
C6    C7    A    
C30   H14   S    
C29   N1    S    
C1    O2    A    
O3    Zn1   S    
C6    C25   S    
C16   C17   S    
C10   C11   A    
C22   H9    S    
C3    C4    A    
C4    H1    S    
C20   H8    S    
O7    Zn1   S    
C31   H20   S    
N4    Zn1   S    
C9    C17   S    
C27   C28   A    
O8    Zn2   S    
C24   H13   S    
C14   C15   A    
C32   H22   S    
C17   H5    S    
C16   H4    S    
C13   C14   A    
C32   H23   S    
O1    Zn1   S    
C19   N3    A    
C5    N2    S    
C1    C10   S    
C15   C16   S    
C12   C26   S    
C20   N4    A    
C3    C5    A    
N3    Zn2   S    
O2    Zn2   S    
