data_mof_unit_7904.cif
_audit_creation_date              2013-03-05T16:21:39-0500
_audit_creation_method            fapswitch 2.2
_symmetry_space_group_name_H-M    P1
_symmetry_Int_Tables_number       1
_space_group_crystal_system       triclinic
_cell_length_a                    8.385084
_cell_length_b                    18.870924
_cell_length_c                    18.919988
_cell_angle_alpha                 103.729629
_cell_angle_beta                  91.780766
_cell_angle_gamma                 91.847093
_cell_volume                      2904.42362861

loop_
_atom_site_label
_atom_site_type_symbol
_atom_site_description
_atom_site_fract_x
_atom_site_fract_y
_atom_site_fract_z
_atom_type_partial_charge
P1    P     P_3+3 0.058010 0.429760 0.330690 0.486326
O1    O     O_2   0.885040 0.450540 0.321170 -0.393820
O2    O     O_3   0.133000 0.456200 0.410860 -0.304906
O3    O     O_3   0.639000 0.584840 0.375630 -0.325040
O4    O     O_2   0.744561 0.524102 0.248276 -0.405573
O5    O     O_3   0.075174 0.333391 0.311372 -0.618509
O6    O     O_3   0.696634 0.659941 0.262773 -0.480644
C1    C     C_3   0.614523 0.752280 0.203954 -1.016891
H1    H     H_    0.728583 0.784655 0.219891 0.276142
H2    H     H_    0.627441 0.714720 0.149826 0.255234
P2    P     P_3+3 0.631910 0.669560 0.569730 0.496735
P3    P     P_3+3 0.075896 0.718555 0.425550 0.496291
O7    O     O_2   0.804950 0.679010 0.548920 -0.402776
O8    O     O_3   0.051170 0.624120 0.414780 -0.344517
O9    O     O_2   0.937173 0.754308 0.471022 -0.335247
O10   O     O_3   0.627100 0.698567 0.665159 -0.640786
O11   O     O_3   0.037901 0.736366 0.340100 -0.494360
C2    C     C_3   0.106001 0.681538 0.287307 0.531658
H3    H     H_    0.032780 0.629718 0.278464 0.141277
H4    H     H_    0.230464 0.671898 0.303710 -0.029235
C3    C     C_3   0.109233 0.704986 0.215802 -1.007475
H5    H     H_    0.985470 0.711607 0.196250 0.286986
H6    H     H_    0.178764 0.757645 0.223511 0.253824
C4    C     C_3   0.235818 0.699698 0.657004 0.423720
H7    H     H_    0.328971 0.663914 0.629818 0.133342
C5    C     C_3   0.317640 0.767618 0.706827 -0.846063
H8    H     H_    0.393105 0.751900 0.749420 0.262620
H9    H     H_    0.393547 0.796798 0.674889 0.207323
H10   H     H_    0.227202 0.805365 0.734182 0.245390
Ba1   Ba    Ba6+2 0.844980 0.532260 0.467660 1.607056
C6    C     C_3   0.948468 0.289853 0.268692 0.386487
H11   H     H_    0.833177 0.317773 0.273483 0.082412
C7    C     C_3   0.993609 0.264842 0.188107 -0.979514
H12   H     H_    0.004784 0.309884 0.160085 0.226767
H13   H     H_    0.898332 0.225923 0.156743 0.259589
H14   H     H_    0.110540 0.237250 0.184081 0.255226
C8    C     C_3   0.748131 0.672652 0.703993 0.410027
H15   H     H_    0.822542 0.632381 0.668726 0.116622
C9    C     C_3   0.665427 0.637463 0.759131 -0.883448
H16   H     H_    0.606491 0.680041 0.800335 0.222849
H17   H     H_    0.752723 0.610287 0.788261 0.223207
H18   H     H_    0.571694 0.596331 0.730902 0.286371
P4    P     P_3+3 0.131690 0.570300 0.669320 0.477364
O12   O     O_2   0.304650 0.549490 0.678880 -0.374905
O13   O     O_3   0.056690 0.543860 0.589150 -0.356931
O14   O     O_3   0.550690 0.415220 0.624380 -0.346000
O15   O     O_3   0.140299 0.665601 0.699449 -0.570434
P5    P     P_3+3 0.122437 0.281690 0.576960 0.456571
O16   O     O_3   0.632900 0.410750 0.456460 -0.360029
O17   O     O_3   0.138520 0.375940 0.585230 -0.337152
O18   O     O_2   0.254916 0.247644 0.526761 -0.395625
O19   O     O_3   0.183297 0.268607 0.662037 -0.501580
Ba2   Ba    Ba6+2 0.344840 0.467800 0.532350 1.614267
P6    P     P_3+3 0.620259 0.578771 0.281457 0.465461
C10   C     C_3   0.574188 0.708897 0.260133 0.474890
H19   H     H_    0.456265 0.680991 0.243109 -0.015570
H20   H     H_    0.517710 0.789913 0.199107 0.227377
O20   O     O_3   0.556800 0.589310 0.543550 -0.302580
C11   C     C_3   0.497986 0.331751 0.294490 0.269697
H21   H     H_    0.379290 0.349183 0.314600 0.108613
H22   H     H_    0.583414 0.379022 0.299711 0.067719
C12   C     C_3   0.479666 0.292208 0.213832 -0.592821
H23   H     H_    0.405900 0.240952 0.207890 0.235801
H24   H     H_    0.598987 0.277100 0.192419 0.218460
P7    P     P_3+3 0.562770 0.318653 0.426655 0.437606
O21   O     O_2   0.384750 0.321010 0.451130 -0.348451
O22   O     O_3   0.560387 0.282986 0.332159 -0.580839
H25   H     H_    0.166312 0.663033 0.173988 0.230603
C13   C     C_3   0.069329 0.297978 0.712368 0.421409
H26   H     H_    0.033763 0.353064 0.707638 0.059839
H27   H     H_    0.963700 0.259883 0.703449 0.044315
C14   C     C_3   0.138046 0.305580 0.789379 -0.902006
H28   H     H_    0.240132 0.346166 0.800678 0.283665
H29   H     H_    0.045650 0.325068 0.829422 0.201407
H30   H     H_    0.178919 0.252031 0.796179 0.262028
P8    P     P_3+3 0.568856 0.422178 0.718252 0.472576
C15   C     C_3   0.618409 0.283894 0.709306 0.533738
H31   H     H_    0.718557 0.302790 0.679969 -0.130750
O23   O     O_2   0.435379 0.472520 0.751531 -0.375888
O24   O     O_3   0.504939 0.337226 0.732067 -0.522866
H32   H     H_    0.762719 0.213176 0.760340 0.243152
C16   C     C_3   0.687058 0.261163 0.776486 -0.956351
H33   H     H_    0.588990 0.246561 0.809347 0.269665
H34   H     H_    0.761640 0.306804 0.810825 0.222131
C17   C     C_R   0.997821 0.476447 0.050227 0.022765
C18   C     C_R   0.905791 0.444847 0.096343 0.126658
C19   C     C_R   0.752259 0.416488 0.073604 -0.164062
C20   C     C_R   0.689096 0.419640 0.005898 -0.199537
C21   C     C_R   0.780361 0.449038 0.957328 0.075171
C22   C     C_R   0.936068 0.477581 0.979634 0.004990
C23   C     C_R   0.718102 0.449410 0.887177 -0.043303
C24   C     C_R   0.816621 0.472466 0.835618 -0.015755
C25   C     C_R   0.971180 0.505313 0.859874 -0.019618
C26   C     C_R   0.028797 0.507990 0.932357 -0.017741
C27   C     C_R   0.769987 0.462407 0.760445 0.105653
C28   C     C_R   0.877276 0.485497 0.713213 -0.553423
C29   C     C_R   0.019664 0.526943 0.737315 0.202770
C30   C     C_R   0.068316 0.536181 0.812479 0.005853
C31   C     C_R   0.151166 0.506193 0.074680 -0.022209
C32   C     C_R   0.211178 0.505178 0.146005 0.011633
C33   C     C_R   0.115888 0.473457 0.192735 -0.045473
C34   C     C_R   0.966100 0.442203 0.165183 -0.178869
H35   H     H_    0.680145 0.391992 0.108549 0.130725
H36   H     H_    0.568550 0.397541 0.992324 0.127634
H37   H     H_    0.891477 0.415427 0.196749 0.169768
C35   C     C_R   0.213500 0.573436 0.841665 -0.108052
C36   C     C_R   0.272158 0.573403 0.912295 0.090567
C37   C     C_R   0.181074 0.539740 0.957529 0.011008
C38   C     C_R   0.242748 0.538070 0.028212 0.011941
C39   C     C_R   0.423789 0.604812 0.937776 -0.174408
C40   C     C_R   0.486359 0.600977 0.006303 -0.196589
C41   C     C_R   0.396817 0.567730 0.052045 0.125966
C42   C     C_R   0.365775 0.535687 0.169944 -0.012183
C43   C     C_R   0.458759 0.564304 0.121216 -0.253508
C44   C     C_R   0.421089 0.537584 0.242193 0.073377
C45   C     C_R   0.324452 0.506264 0.287724 -0.495746
C46   C     C_R   0.172661 0.473958 0.265077 0.163378
H38   H     H_    0.285697 0.600837 0.809148 0.168118
H39   H     H_    0.496335 0.630503 0.903764 0.140600
H40   H     H_    0.605216 0.624094 0.023490 0.139739
H41   H     H_    0.579706 0.584771 0.136704 0.177432
C47   C     C_R   0.683070 0.956481 0.546885 0.047797
C48   C     C_R   0.767831 0.909706 0.581358 -0.183773
C49   C     C_R   0.893186 0.057115 0.578845 -0.173021
C50   C     C_R   0.742895 0.028347 0.546549 0.075458
C51   C     C_R   0.951398 0.126526 0.576404 -0.172004
C52   C     C_R   0.863257 0.171282 0.541793 -0.017125
C53   C     C_R   0.712389 0.143671 0.508266 0.001568
C54   C     C_R   0.651794 0.072539 0.510798 0.070561
C55   C     C_R   0.924170 0.241230 0.536483 0.076281
C56   C     C_R   0.834307 0.280949 0.496024 -0.472431
C57   C     C_R   0.678347 0.257725 0.470764 0.144189
C58   C     C_R   0.621578 0.187025 0.471741 -0.036326
C59   C     C_R   0.532307 0.930252 0.512281 0.043929
C60   C     C_R   0.475491 0.857215 0.508990 0.039042
C61   C     C_R   0.570763 0.809797 0.538785 0.007372
C62   C     C_R   0.712205 0.838686 0.577859 -0.069993
H42   H     H_    0.068658 0.143658 0.600795 0.183726
H43   H     H_    0.783386 0.806934 0.606207 0.128332
C63   C     C_R   0.479485 0.157335 0.434063 -0.020841
C64   C     C_R   0.420208 0.088942 0.436652 -0.204811
C65   C     C_R   0.500815 0.046011 0.476729 0.050169
C66   C     C_R   0.437877 0.976229 0.480432 0.060155
C67   C     C_R   0.281831 0.950950 0.453641 -0.199982
C68   C     C_R   0.323649 0.831512 0.475483 -0.019285
C69   C     C_R   0.226883 0.880200 0.450713 -0.157890
C70   C     C_R   0.272513 0.758016 0.468353 0.113919
C71   C     C_R   0.372170 0.711866 0.495113 -0.445720
C72   C     C_R   0.520386 0.735352 0.529208 0.268283
H44   H     H_    0.411908 0.185908 0.400846 0.167450
H45   H     H_    0.107223 0.864435 0.428482 0.190778
H46   H     H_    0.325524 0.659006 0.496956 0.203124
H47   H     H_    0.971533 0.026912 0.605794 0.131644
H48   H     H_    0.878902 0.926017 0.611810 0.118760
H49   H     H_    0.312438 0.070339 0.404182 0.129025
H50   H     H_    0.197036 0.985053 0.435287 0.139157
C73   C     C_2   0.561679 0.761147 0.332743 0.535803
H51   H     H_    0.465361 0.798896 0.341118 -0.054570
O25   O     O_2   0.660345 0.762701 0.381904 -0.505933
C74   C     C_2   0.928917 0.221383 0.297429 0.530036
H52   H     H_    0.999131 0.216742 0.345577 -0.012164
O26   O     O_2   0.837964 0.169699 0.266984 -0.574327
C75   C     C_2   0.851610 0.737589 0.744283 0.550147
H53   H     H_    0.859366 0.786701 0.723912 -0.029555
O27   O     O_2   0.930148 0.735581 0.799273 -0.570309
N1    N     N_3   0.405078 0.337350 0.170355 -0.210520
H54   H     H_    0.288098 0.345911 0.186622 0.150565
H55   H     H_    0.465912 0.388163 0.181394 0.122400
C76   C     C_2   0.534592 0.220111 0.656572 0.583831
H56   H     H_    0.486724 0.228049 0.605340 0.052758
O28   O     O_2   0.518358 0.159977 0.670021 -0.599431
C77   C     C_2   0.839959 0.462177 0.636013 0.866216
H57   H     H_    0.849379 0.405003 0.610651 -0.062821
O29   O     O_2   0.773307 0.502695 0.604136 -0.510771
N2    N     N_3   0.554014 0.426921 0.869367 -0.152404
H58   H     H_    0.481918 0.459440 0.906725 0.126964
H59   H     H_    0.535847 0.372760 0.872407 0.135761
C78   C     C_2   0.383596 0.507102 0.361077 0.768260
H60   H     H_    0.466354 0.468279 0.371474 -0.014209
O30   O     O_2   0.344751 0.555067 0.411573 -0.574952
C79   C     C_2   0.909953 0.336072 0.462442 0.786070
H61   H     H_    0.901565 0.326680 0.404929 -0.082175
O31   O     O_2   0.950163 0.397217 0.496071 -0.498678
N3    N     N_3   0.135643 0.721894 0.602703 -0.229856
H62   H     H_    0.087860 0.674401 0.567385 0.172150
H63   H     H_    0.041558 0.751544 0.627977 0.106676

loop_
_geom_bond_atom_site_label_1
_geom_bond_atom_site_label_2
_geom_bond_distance
_ccdc_geom_bond_type
C10   H19   1.106761 S    
C67   H50   1.077274 S    
C73   H51   1.084564 S    
C45   C78   1.455543 S    
C4    N3    1.452534 S    
C2    C3    1.520674 S    
C56   C79   1.477950 S    
C76   H56   1.082456 S    
Ba1   O13   2.822283 S    
C70   C71   1.393908 A    
P8    O23   1.542733 D    
O6    C10   1.410676 S    
C19   C20   1.386020 A    
C53   C54   1.431925 A    
O14   P8    1.751015 S    
H32   C16   1.110679 S    
C60   C61   1.419242 A    
N2    H59   1.043812 S    
C15   H31   1.115364 S    
C37   C38   1.426524 A    
C62   H43   1.076411 S    
C26   C37   1.411942 A    
C5    H8    1.109809 S    
C51   C52   1.400381 A    
O2    Ba1   2.949609 S    
O16   P7    1.769904 S    
C32   C33   1.429250 A    
P3    C70   1.865487 S    
P1    Ba1   3.432048 S    
C75   O27   1.222818 D    
C4    C5    1.526985 S    
C2    H3    1.112866 S    
P8    C27   1.898418 S    
C68   C69   1.396776 A    
C1    H2    1.109140 S    
C71   H46   1.068379 S    
C35   C36   1.409695 A    
C66   C67   1.414336 A    
C31   C38   1.409870 A    
C29   C30   1.435580 A    
C7    H14   1.121146 S    
C45   C46   1.402608 A    
C34   H37   1.072199 S    
P1    O1    1.530927 D    
C13   H27   1.105369 S    
C39   C40   1.402213 A    
C47   C59   1.423431 A    
C12   H24   1.111400 S    
O19   C13   1.402647 S    
C11   O22   1.395596 S    
C59   C66   1.416198 A    
C43   H41   1.079860 S    
O12   Ba2   2.870327 S    
P4    Ba2   3.432613 S    
P5    O18   1.539714 D    
C75   H53   1.085802 S    
P2    Ba1   3.431071 S    
C77   O29   1.219101 D    
C1    H1    1.111685 S    
C60   C68   1.422069 A    
P3    O11   1.749590 S    
C36   C37   1.409505 A    
C6    C7    1.548040 S    
C21   C23   1.412729 A    
P2    O20   1.580644 S    
C6    C74   1.522283 S    
O10   C8    1.401829 S    
C8    C75   1.510810 S    
P5    O17   1.748477 S    
O5    C6    1.425250 S    
O13   Ba2   2.950530 S    
C11   H21   1.108502 S    
C73   O25   1.219885 D    
C49   H47   1.075955 S    
C35   H38   1.079956 S    
N1    H55   1.044071 S    
C76   O28   1.224849 D    
P5    C55   1.869428 S    
O8    Ba1   2.780767 S    
C14   H30   1.111960 S    
C1    C10   1.527067 S    
C41   C43   1.409529 A    
C20   H36   1.080468 S    
P2    C72   1.867049 S    
C22   C26   1.411408 A    
C9    H18   1.115010 S    
C79   O31   1.209554 D    
Ba1   Ba2   4.611053 S    
C11   H22   1.109607 S    
O17   Ba2   2.781434 S    
C68   C70   1.412415 A    
P1    O5    1.779356 S    
C33   C34   1.400960 A    
C78   H60   1.072222 S    
O7    Ba1   2.866430 S    
C63   C64   1.380344 A    
C14   H29   1.109984 S    
C38   C41   1.408172 A    
C23   C24   1.432374 A    
C18   C19   1.393095 A    
C64   H49   1.076995 S    
C54   C65   1.422691 A    
P7    O22   1.753744 S    
C17   C18   1.404120 A    
C24   C27   1.429792 A    
C40   H40   1.083418 S    
P1    O2    1.583135 S    
C74   O26   1.234008 D    
C79   H61   1.059851 S    
C13   C14   1.522774 S    
P4    O12   1.531139 D    
C28   C29   1.407767 A    
C8    H15   1.108065 S    
C17   C31   1.405587 A    
C1    H20   1.111397 S    
P2    O10   1.760106 S    
O4    P6    1.532101 D    
N3    H63   1.043550 S    
C31   C32   1.430144 A    
P3    O9    1.544561 D    
C10   C73   1.497704 S    
Ba2   O20   2.818657 S    
P6    C44   1.873547 S    
C12   H23   1.111888 S    
O11   C2    1.406147 S    
C23   N2    1.432617 S    
C25   C26   1.428639 A    
P1    C46   1.917004 S    
C4    H7    1.106697 S    
Ba2   O21   2.866665 S    
P4    O13   1.583166 S    
C5    H10   1.111107 S    
C19   H35   1.080900 S    
C67   C69   1.386197 A    
C12   N1    1.458928 S    
Ba1   O16   2.819261 S    
P3    O8    1.749703 S    
P7    O21   1.575457 D    
C16   H34   1.108796 S    
C3    H6    1.112314 S    
C3    H25   1.110129 S    
N1    H54   1.043241 S    
C36   C39   1.406401 A    
P8    O24   1.754344 S    
C52   C53   1.422997 A    
C18   C34   1.395042 A    
C63   H44   1.079447 S    
C9    H16   1.117941 S    
P7    C57   1.853272 S    
C77   H57   1.078283 S    
C49   C51   1.394630 A    
C42   C43   1.415390 A    
C15   O24   1.408930 S    
C61   C72   1.421619 A    
C51   H42   1.079226 S    
C11   C12   1.531917 S    
C40   C41   1.405022 A    
O3    P6    1.759833 S    
C4    O15   1.397296 S    
C6    H11   1.111754 S    
C32   C42   1.417265 A    
P4    C29   1.931832 S    
C14   H28   1.110712 S    
C56   C57   1.398365 A    
C39   H39   1.082860 S    
C78   O30   1.210779 D    
C17   C22   1.422589 A    
C59   C60   1.430235 A    
C48   C62   1.390608 A    
C5    H9    1.110285 S    
C3    H5    1.111691 S    
C30   C35   1.414202 A    
O1    Ba1   2.869688 S    
C33   C46   1.432883 A    
C74   H52   1.091795 S    
C47   C50   1.432236 A    
C55   C56   1.410127 A    
C47   C48   1.412298 A    
C52   C55   1.426895 A    
C8    C9    1.534362 S    
N2    H58   1.042213 S    
C53   C58   1.415106 A    
P2    O7    1.531093 D    
O2    Ba2   2.822938 S    
C15   C16   1.536292 S    
O16   Ba2   2.950301 S    
Ba1   O20   2.951150 S    
O14   Ba2   2.781972 S    
C24   C25   1.432006 A    
C7    H13   1.120546 S    
C7    H12   1.106438 S    
C57   C58   1.406507 A    
C2    H4    1.112431 S    
C71   C72   1.391426 A    
C13   H26   1.113569 S    
C69   H45   1.080401 S    
C50   C54   1.418876 A    
P5    O19   1.748737 S    
C20   C21   1.412852 A    
C9    H17   1.111686 S    
C58   C63   1.398671 A    
C15   C76   1.506647 S    
C16   H33   1.112268 S    
C28   C77   1.443129 S    
C27   C28   1.416781 A    
C65   C66   1.420845 A    
C61   C62   1.401015 A    
N3    H62   1.042214 S    
O6    P6    1.757621 S    
C21   C22   1.409031 A    
C64   C65   1.408254 A    
P4    O15   1.751257 S    
C25   C30   1.438594 A    
O3    Ba1   2.782638 S    
C44   C45   1.414986 A    
C49   C50   1.416612 A    
C42   C44   1.421726 A    
C48   H48   1.076129 S    
