data_mof_unit_37348.cif
_audit_creation_date              2012-12-10T17:57:22-0500
_audit_creation_method            fapswitch 2.2
_symmetry_space_group_name_H-M    P1
_symmetry_Int_Tables_number       1
_space_group_crystal_system       triclinic
_cell_length_a                    9.659803
_cell_length_b                    10.756608
_cell_length_c                    13.44826
_cell_angle_alpha                 91.703839
_cell_angle_beta                  73.780369
_cell_angle_gamma                 89.935782
_cell_volume                      1341.08875632

loop_
_atom_site_label
_atom_site_type_symbol
_atom_type_description
_atom_site_fract_x
_atom_site_fract_y
_atom_site_fract_z
_atom_type_partial_charge
C1    C     C_R   0.499795 0.737558 0.501157 0.786358
C2    C     C_R   0.389603 0.433864 0.804330 -0.245879
C3    C     C_R   0.620655 0.933254 0.440106 -0.171003
C4    C     C_R   0.425476 0.479098 0.696557 0.812979
C5    C     C_R   0.621120 0.062174 0.439660 -0.182241
C6    C     C_R   0.501511 0.129151 0.500485 -0.002527
C7    C     C_R   0.384061 0.068119 0.564258 -0.183871
C8    C     C_R   0.384542 0.939742 0.565655 -0.196945
C9    C     C_R   0.501018 0.871899 0.501885 -0.014169
C10   C     C_R   0.904409 0.593872 0.546345 -0.067134
C11   C     C_R   0.051953 0.598285 0.544550 0.238528
C12   C     C_R   0.451201 0.430624 0.969322 0.090124
C13   C     C_R   0.084022 0.398419 0.461501 0.225849
C14   C     C_R   0.941106 0.406291 0.453471 -0.062368
C15   C     C_R   0.500504 0.262775 0.499507 0.755745
C16   C     C_R   0.575966 0.503028 0.300376 0.832033
C17   C     C_R   0.806183 0.492115 0.024191 0.405117
C18   C     C_R   0.616899 0.499801 0.186201 -0.236711
C19   C     C_R   0.248893 0.393131 0.854487 0.376283
C20   C     C_R   0.212285 0.368751 0.959472 -0.174150
C21   C     C_R   0.310010 0.388418 0.018199 0.373656
C22   C     C_3   0.088316 0.716707 0.596058 -0.370968
C23   C     C_R   0.495745 0.430535 0.859856 -0.041628
C24   C     C_3   0.116139 0.697241 0.701161 -0.722626
C25   C     C_3   0.139008 0.264730 0.449502 -0.371985
C26   C     C_3   0.249447 0.233209 0.346134 -0.713766
C27   C     C_R   0.554246 0.461615 0.024283 0.039135
C28   C     C_R   0.703331 0.463653 0.970146 -0.033245
C29   C     C_R   0.746417 0.433288 0.864268 -0.224550
C30   C     C_R   0.644775 0.416990 0.810241 -0.135792
C31   C     C_R   0.512319 0.497667 0.130092 0.404483
C32   C     C_R   0.763204 0.498202 0.131692 -0.260319
Cu1   Cu    Cu3+1 0.359340 0.499980 0.500000 0.948925
Cu2   Cu    Cu3+1 0.640660 0.500020 0.500000 0.933779
H1    H     H_    0.845064 0.509356 0.172251 0.200059
H2    H     H_    0.712235 0.881505 0.391473 0.145409
H3    H     H_    0.075778 0.605676 0.732338 0.266101
H4    H     H_    0.232089 0.706161 0.695504 0.252953
H5    H     H_    0.059275 0.770213 0.758282 0.206117
H6    H     H_    0.167957 0.772335 0.541434 0.213998
H7    H     H_    0.995998 0.783515 0.613135 0.146970
H8    H     H_    0.193132 0.219528 0.285359 0.236553
H9    H     H_    0.330311 0.306659 0.322437 0.280843
H10   H     H_    0.305720 0.144819 0.351982 0.231531
H11   H     H_    0.168002 0.236313 0.519112 0.212091
H12   H     H_    0.713128 0.109476 0.390870 0.133595
H13   H     H_    0.049281 0.198487 0.453172 0.149085
H14   H     H_    0.953957 0.554963 0.908573 0.334842
H15   H     H_    0.322674 0.512716 0.227849 0.375094
H16   H     H_    0.198121 0.326426 0.734853 0.320787
H17   H     H_    0.172021 0.327745 0.141620 0.313108
H18   H     H_    0.294013 0.119719 0.614812 0.122430
H19   H     H_    0.295969 0.894699 0.618749 0.140399
H20   H     H_    0.829578 0.667060 0.584238 0.146208
H21   H     H_    0.895917 0.330766 0.417966 0.136204
H22   H     H_    0.858864 0.420567 0.822106 0.193604
H23   H     H_    0.107213 0.330155 0.995177 0.183404
H24   H     H_    0.685941 0.384614 0.730715 0.183208
N1    N     N_R   0.147940 0.499970 0.499970 -0.172572
N2    N     N_R   0.852060 0.500060 0.499990 -0.194578
O1    O     O_R   0.381250 0.680340 0.500010 -0.575868
O2    O     O_3   0.381423 0.558500 0.168520 -0.695264
O3    O     O_3   0.147564 0.366616 0.802522 -0.733303
O4    O     O_3   0.275675 0.349354 0.118787 -0.762290
O5    O     O_R   0.618820 0.680370 0.500010 -0.582917
O6    O     O_R   0.323240 0.499950 0.650980 -0.564283
O7    O     O_R   0.560810 0.499980 0.650980 -0.584036
O8    O     O_R   0.381180 0.319630 0.499990 -0.591378
O9    O     O_R   0.618750 0.319660 0.499990 -0.596606
O10   O     O_R   0.439190 0.500020 0.349020 -0.586709
O11   O     O_R   0.676760 0.500050 0.349020 -0.576806
O12   O     O_3   0.948392 0.516674 0.975527 -0.719099

loop_
_geom_bond_atom_site_label_1
_geom_bond_atom_site_label_2
_ccdc_geom_bond_type
C8    H19   S    
C26   H9    S    
C4    O7    A    
C2    C4    S    
C32   H1    S    
C6    C7    A    
C3    C9    A    
C29   H22   S    
C14   N2    A    
C5    H12   S    
C25   H13   S    
C11   C22   S    
C24   H4    S    
C19   C20   A    
C12   C23   A    
C7    H18   S    
C22   H6    S    
C13   N1    A    
C14   H21   S    
C20   H23   S    
C26   H10   S    
C7    C8    A    
Cu1   N1    S    
C13   C14   A    
Cu2   N2    S    
H16   O3    S    
Cu2   O9    S    
C13   C25   S    
C29   C30   A    
C16   O11   A    
Cu1   O10   S    
H14   O12   S    
C11   N1    A    
C15   O8    A    
C3    H2    S    
Cu2   O5    S    
Cu1   O1    S    
C28   C29   A    
C25   C26   S    
Cu1   Cu2   S    
Cu1   O6    S    
C24   H3    S    
C5    C6    A    
C15   O9    A    
C22   C24   S    
C1    O5    A    
C22   H7    S    
C18   C32   A    
C10   C11   A    
H17   O4    S    
C10   H20   S    
C27   C31   A    
Cu2   O7    S    
C12   C21   A    
C23   C30   A    
C25   H11   S    
C27   C28   A    
C24   H5    S    
C16   O10   A    
C20   C21   A    
C26   H8    S    
C17   O12   S    
C16   C18   S    
C4    O6    A    
C31   O2    S    
C2    C23   A    
C2    C19   A    
C17   C32   A    
C10   N2    A    
C8    C9    A    
C21   O4    S    
H15   O2    S    
C12   C27   A    
C6    C15   S    
C30   H24   S    
C17   C28   A    
Cu2   O11   S    
C1    C9    S    
C18   C31   A    
C19   O3    S    
Cu1   O8    S    
C3    C5    A    
C1    O1    A    
