data_mof_unit_45368.cif
_audit_creation_date              2012-12-10T20:55:43-0500
_audit_creation_method            fapswitch 2.2
_symmetry_space_group_name_H-M    P1
_symmetry_Int_Tables_number       1
_space_group_crystal_system       triclinic
_cell_length_a                    15.856415
_cell_length_b                    15.01827
_cell_length_c                    10.337199
_cell_angle_alpha                 89.126686
_cell_angle_beta                  89.973855
_cell_angle_gamma                 90.032719
_cell_volume                      2461.37179754

loop_
_atom_site_label
_atom_site_type_symbol
_atom_type_description
_atom_site_fract_x
_atom_site_fract_y
_atom_site_fract_z
_atom_type_partial_charge
C1    C     C_1   0.250365 0.499922 0.499852 -0.195425
C2    C     C_R   0.423540 0.046884 0.508880 -0.180855
C3    C     C_R   0.956215 0.570660 0.555588 -0.185009
C4    C     C_R   0.043608 0.429369 0.443139 -0.182910
C5    C     C_R   0.043673 0.570618 0.555646 -0.183981
C6    C     C_R   0.956141 0.429411 0.443059 -0.186090
C7    C     C_R   0.338765 0.499975 0.500041 0.956052
C8    C     C_R   0.661272 0.500018 0.499965 0.839783
C9    C     C_R   0.523376 0.500608 0.265004 0.896038
C10   C     C_R   0.522414 0.499416 0.735916 0.896298
C11   C     C_R   0.913096 0.500052 0.499314 0.176386
C12   C     C_1   0.749578 0.500047 0.499692 -0.172778
C13   C     C_R   0.086752 0.499965 0.499454 0.173875
C14   C     C_1   0.499709 0.807271 0.500157 0.050658
C15   C     C_1   0.499709 0.192749 0.498492 0.034475
C16   C     C_1   0.824365 0.500044 0.499470 -0.082576
C17   C     C_1   0.175535 0.499910 0.499653 -0.072091
C18   C     C_R   0.600375 0.660834 0.128647 -0.328264
C19   C     C_R   0.597126 0.337783 0.873991 -0.360461
C20   C     C_R   0.604118 0.656644 0.859275 -0.340357
C21   C     C_R   0.607615 0.345268 0.142544 -0.375599
C22   C     C_R   0.623414 0.737186 0.058019 0.423335
C23   C     C_R   0.557822 0.498711 0.867700 -0.163183
C24   C     C_R   0.621117 0.261949 0.945773 0.446808
C25   C     C_R   0.627757 0.734249 0.922938 0.412429
C26   C     C_R   0.630963 0.266856 0.079751 0.444915
C27   C     C_R   0.577718 0.579902 0.929230 0.030694
C28   C     C_R   0.578951 0.420645 0.072073 0.042623
C29   C     C_R   0.576791 0.581713 0.065485 0.020983
C30   C     C_R   0.576068 0.418195 0.936011 0.029750
C31   C     C_3   0.730673 0.216136 0.225754 0.106201
C32   C     C_3   0.784341 0.134035 0.252404 -0.820988
C33   C     C_3   0.738775 0.795025 0.813882 0.124141
C34   C     C_R   0.558929 0.501415 0.133491 -0.163784
C35   C     C_3   0.772941 0.881199 0.755133 -0.820715
C36   C     C_3   0.572728 0.135253 0.855896 0.084184
C37   C     C_3   0.599265 0.044438 0.807399 -0.749470
C38   C     C_3   0.590800 0.875174 0.129723 0.087465
C39   C     C_3   0.630586 0.962496 0.170271 -0.737066
C40   C     C_R   0.499424 0.905058 0.499989 0.092678
C41   C     C_R   0.499358 0.094984 0.496971 0.096027
C42   C     C_R   0.423530 0.952924 0.509707 -0.180745
C43   C     C_R   0.575057 0.047083 0.485824 -0.181323
C44   C     C_R   0.575169 0.953172 0.489343 -0.176707
H1    H     H_    0.077589 0.625202 0.599181 0.141042
H2    H     H_    0.601745 0.333648 0.770111 0.205236
H3    H     H_    0.613150 0.655818 0.755765 0.195787
H4    H     H_    0.617411 0.348427 0.245623 0.184211
H5    H     H_    0.707850 0.241292 0.320115 0.144292
H6    H     H_    0.772031 0.267304 0.178503 0.133903
H7    H     H_    0.805166 0.104548 0.159832 0.268286
H8    H     H_    0.840804 0.152685 0.309473 0.204456
H9    H     H_    0.747636 0.083932 0.308653 0.243805
H10   H     H_    0.742228 0.742514 0.739201 0.130167
H11   H     H_    0.779829 0.775983 0.897436 0.152517
H12   H     H_    0.922196 0.374815 0.399561 0.134737
H13   H     H_    0.772868 0.934300 0.828736 0.263994
H14   H     H_    0.838584 0.870909 0.721034 0.204531
H15   H     H_    0.733354 0.902581 0.671777 0.250195
H16   H     H_    0.534706 0.169173 0.779271 0.141769
H17   H     H_    0.532917 0.124527 0.943837 0.143559
H18   H     H_    0.630462 0.005853 0.885791 0.267517
H19   H     H_    0.543130 0.006852 0.774404 0.222622
H20   H     H_    0.644579 0.052419 0.726321 0.256651
H21   H     H_    0.543245 0.854621 0.203590 0.142146
H22   H     H_    0.558467 0.887042 0.035211 0.157702
H23   H     H_    0.922330 0.625266 0.599100 0.135162
H24   H     H_    0.676099 0.986135 0.095835 0.270572
H25   H     H_    0.581072 0.013823 0.183559 0.233218
H26   H     H_    0.665604 0.952448 0.261958 0.242823
H27   H     H_    0.077476 0.374740 0.399697 0.141418
H28   H     H_    0.364221 0.082001 0.517649 0.135726
H29   H     H_    0.634558 0.917976 0.483202 0.136559
H30   H     H_    0.634398 0.082362 0.477068 0.140027
H31   H     H_    0.364164 0.917630 0.518378 0.135949
H32   H     H_    0.607696 0.662961 0.232438 0.203878
N1    N     N_1   0.500000 0.270550 0.500000 -0.095988
N2    N     N_1   0.500000 0.729450 0.500000 -0.092330
O1    O     O_R   0.378020 0.573650 0.500040 -0.596270
O2    O     O_3   0.654533 0.808393 0.853389 -0.608654
O3    O     O_3   0.645535 0.185567 0.883382 -0.589089
O4    O     O_3   0.654622 0.810082 0.122074 -0.602667
O5    O     O_R   0.621980 0.426350 0.499960 -0.643037
O6    O     O_R   0.621980 0.573650 0.499960 -0.638279
O7    O     O_R   0.378020 0.426350 0.500040 -0.595649
O8    O     O_R   0.499990 0.573670 0.316780 -0.614588
O9    O     O_R   0.500010 0.426330 0.683220 -0.616303
O10   O     O_R   0.500010 0.573670 0.683220 -0.605943
O11   O     O_R   0.499990 0.426330 0.316780 -0.603435
O12   O     O_3   0.661340 0.192760 0.146938 -0.597589
Zn1   Zn    Zn3+2 0.500000 0.598370 0.500000 0.958142
Zn2   Zn    Zn3+2 0.500000 0.401630 0.500000 0.951798

loop_
_geom_bond_atom_site_label_1
_geom_bond_atom_site_label_2
_ccdc_geom_bond_type
C33   H11   S    
C21   C26   A    
N1    Zn2   S    
C27   C29   A    
C8    O5    A    
C39   H24   S    
C43   C44   A    
C37   H18   S    
C19   H2    S    
C7    O7    A    
O5    Zn2   S    
C10   O10   A    
C42   H31   S    
C35   H14   S    
C22   O4    S    
C36   C37   S    
C24   C26   A    
O8    Zn1   S    
C38   C39   S    
C20   C25   A    
C2    C41   A    
C25   O2    S    
C35   H15   S    
C4    C13   A    
C32   H8    S    
C12   C16   T    
C22   C25   A    
C38   H21   S    
O6    Zn1   S    
C23   C27   A    
O1    Zn1   S    
C21   H4    S    
C43   H30   S    
C40   C42   A    
C28   C34   A    
C1    C7    S    
O9    Zn2   S    
C38   O4    S    
C41   C43   A    
C31   H5    S    
C2    H28   S    
C37   H19   S    
O7    Zn2   S    
C10   O9    A    
C23   C30   A    
C38   H22   S    
C15   C41   S    
C4    C6    A    
C9    O11   A    
C6    C11   A    
C3    C5    A    
C5    H1    S    
C29   C34   A    
C24   O3    S    
C32   H7    S    
C9    O8    A    
C11   C16   S    
C31   C32   S    
O10   Zn1   S    
C36   O3    S    
C8    C12   S    
C31   O12   S    
C39   H25   S    
C18   C29   A    
O11   Zn2   S    
C21   C28   A    
C9    C34   S    
N2    Zn1   S    
C31   H6    S    
C36   H17   S    
C32   H9    S    
C37   H20   S    
C7    O1    A    
C33   H10   S    
C18   H32   S    
C8    O6    A    
C5    C13   A    
C3    H23   S    
C6    H12   S    
C36   H16   S    
C33   O2    S    
C20   C27   A    
C10   C23   S    
C26   O12   S    
C1    C17   T    
C13   C17   S    
C35   H13   S    
C18   C22   A    
C19   C24   A    
C15   N1    T    
C2    C42   A    
C28   C30   A    
C33   C35   S    
C39   H26   S    
C14   N2    T    
C44   H29   S    
C20   H3    S    
C3    C11   A    
C14   C40   S    
C40   C44   A    
C19   C30   A    
C4    H27   S    
