data_mof_unit_35144.cif
_audit_creation_date              2013-03-05T15:55:02-0500
_audit_creation_method            fapswitch 2.2
_symmetry_space_group_name_H-M    P1
_symmetry_Int_Tables_number       1
_space_group_crystal_system       triclinic
_cell_length_a                    6.932304
_cell_length_b                    14.548902
_cell_length_c                    16.19699
_cell_angle_alpha                 90.435593
_cell_angle_beta                  89.896674
_cell_angle_gamma                 89.980927
_cell_volume                      1633.53652239

loop_
_atom_site_label
_atom_site_type_symbol
_atom_site_description
_atom_site_fract_x
_atom_site_fract_y
_atom_site_fract_z
_atom_type_partial_charge
O1    O     O_R   0.505810 0.583360 0.413880 -0.600208
O2    O     O_R   0.175870 0.595480 0.585520 -0.601446
O3    O     O_R   0.005540 0.416640 0.586120 -0.599912
C1    C     C_R   0.343496 0.615520 0.616422 0.920310
O4    O     O_R   0.176100 0.594390 0.414490 -0.603910
O5    O     O_R   0.005770 0.415540 0.413870 -0.573129
C2    C     C_R   0.345250 0.616472 0.385732 0.922364
O6    O     O_R   0.505580 0.584460 0.586130 -0.603929
O7    O     O_3   0.339190 0.441320 0.500000 -0.232471
V1    V     V_3+5 0.064350 0.510890 0.500000 1.173388
O8    O     O_R   0.676050 0.404520 0.414480 -0.558709
C3    C     C_R   0.844731 0.381168 0.386393 0.961989
O9    O     O_R   0.675830 0.405610 0.585510 -0.595863
C4    C     C_R   0.845024 0.383560 0.613618 1.026979
V2    V     V_3+5 0.564340 0.489110 0.500000 1.204988
O10   O     O_3   0.839370 0.558680 0.500000 -0.296230
C5    C     C_2   0.720513 0.209240 0.786331 -0.073343
C6    C     C_2   0.885812 0.181996 0.822676 -0.456453
H1    H     H_    0.584486 0.180637 0.807360 0.136688
H2    H     H_    0.023501 0.210008 0.803828 0.156670
C7    C     C_2   0.708061 0.277708 0.718402 -0.071187
C8    C     C_2   0.861562 0.315321 0.680379 -0.446549
H3    H     H_    0.563956 0.297048 0.698849 0.136294
H4    H     H_    0.006818 0.296772 0.698135 0.160557
C9    C     C_R   0.023896 0.248576 0.198168 -0.122378
H5    H     H_    0.146009 0.251839 0.156485 0.127706
C10   C     C_R   0.010066 0.312957 0.262667 -0.074083
H6    H     H_    0.121406 0.364776 0.268500 0.153540
C11   C     C_R   0.853752 0.311628 0.318281 -0.309264
C12   C     C_R   0.709860 0.243288 0.307520 0.386922
C13   C     C_R   0.723440 0.180166 0.241783 -0.230724
H7    H     H_    0.612241 0.128345 0.234805 0.155979
C14   C     C_R   0.879508 0.182169 0.186482 -0.179435
C15   C     C_R   0.194844 0.692613 0.745472 0.244234
C16   C     C_R   0.211324 0.758294 0.809493 -0.207571
H8    H     H_    0.092885 0.767537 0.852543 0.129203
C17   C     C_R   0.380005 0.809949 0.820916 -0.143515
C18   C     C_R   0.535105 0.795697 0.766652 -0.141375
H9    H     H_    0.667283 0.834606 0.773846 0.126818
C19   C     C_R   0.519786 0.732992 0.700960 -0.182029
H10   H     H_    0.640922 0.725996 0.659102 0.132657
C20   C     C_R   0.350661 0.681019 0.688273 -0.162490
C21   C     C_R   0.188454 0.723101 0.283761 -0.138342
H11   H     H_    0.047612 0.704654 0.307399 0.120144
C22   C     C_R   0.199670 0.786222 0.219017 -0.125354
H12   H     H_    0.066911 0.814581 0.194978 0.123791
C23   C     C_R   0.379345 0.812414 0.185929 -0.125637
C24   C     C_R   0.547486 0.773686 0.219527 -0.134154
H13   H     H_    0.688322 0.792139 0.195887 0.119940
C25   C     C_R   0.536269 0.710561 0.284273 -0.130197
H14   H     H_    0.669021 0.682199 0.308316 0.121164
C26   C     C_R   0.356589 0.684369 0.317358 -0.127050
O11   O     O_R   0.230120 0.912300 0.917180 -0.595717
O12   O     O_R   0.559740 0.902430 0.088770 -0.600011
O13   O     O_R   0.729930 0.081310 0.089370 -0.596093
C27   C     C_R   0.390625 0.880315 0.117556 0.923512
O14   O     O_R   0.559840 0.901330 0.917750 -0.600316
O15   O     O_R   0.730030 0.080210 0.917120 -0.596306
C28   C     C_R   0.391107 0.879012 0.888961 0.933293
O16   O     O_R   0.230020 0.913400 0.089430 -0.596247
O17   O     O_3   0.396460 0.055470 0.003290 -0.272916
V3    V     V_3+5 0.671360 0.985960 0.003250 1.152085
O18   O     O_R   0.059740 0.091300 0.917690 -0.603546
C29   C     C_R   0.891059 0.113306 0.889512 1.012187
O19   O     O_R   0.059640 0.092400 0.088720 -0.596510
C30   C     C_R   0.890662 0.114482 0.117558 0.951067
V4    V     V_3+5 0.171350 0.007820 0.003190 1.155978
O20   O     O_3   0.896380 0.938200 0.003220 -0.281892
N1    N     N_R   0.553646 0.233876 0.364654 0.229477
O21   O     O_R   0.403288 0.286705 0.358064 -0.402145
O22   O     O_R   0.542100 0.160328 0.409536 -0.397307
C31   C     C_3   0.013012 0.634354 0.744281 -0.387060
C32   C     C_3   0.054300 0.535791 0.770823 -0.868741
H15   H     H_    0.156720 0.501423 0.727934 0.250477
H16   H     H_    0.116328 0.535464 0.834010 0.250742
H17   H     H_    0.917646 0.496039 0.771472 0.242528
H18   H     H_    0.903649 0.662708 0.787866 0.184186
H19   H     H_    0.941607 0.635907 0.683258 0.213884

loop_
_geom_bond_atom_site_label_1
_geom_bond_atom_site_label_2
_geom_bond_distance
_ccdc_geom_bond_type
O15   V3    2.004810 S    
C3    C11   1.492422 S    
C10   C11   1.408096 A    
C32   H15   1.108786 S    
C16   H8    1.083901 S    
C15   C20   1.430874 A    
C1    O6    1.304504 A    
O13   C30   1.296818 A    
O11   C28   1.297453 A    
O14   V3    2.002515 S    
C22   H12   1.082736 S    
C31   H18   1.112088 S    
C16   C17   1.402018 A    
C17   C18   1.401855 A    
C2    C26   1.491580 S    
O5    C3    1.301231 A    
C12   C13   1.403791 A    
C21   C26   1.406669 A    
O14   C28   1.300381 A    
V2    O10   2.158903 S    
O13   V3    2.001994 S    
C15   C16   1.409578 A    
N1    O22   1.300587 A    
C31   H19   1.106588 S    
O8    V2    2.000643 S    
C13   H7    1.083901 S    
O16   V4    2.008598 S    
O19   V4    2.000665 S    
C25   C26   1.408865 A    
C13   C14   1.403776 A    
O1    V2    2.005338 S    
O7    V1    2.157143 S    
C19   C20   1.409846 A    
O9    C4    1.299920 A    
C32   H16   1.110866 S    
O17   V3    2.157098 S    
C14   C30   1.484908 S    
C5    C6    1.349973 D    
O12   C27   1.302262 A    
C22   C23   1.408852 A    
O15   C29   1.296066 A    
O18   V4    2.005082 S    
V4    O20   2.158878 S    
O4    C2    1.302199 A    
O12   V3    2.004162 S    
C9    H5    1.083106 S    
C5    C7    1.492386 S    
C27   O16   1.297546 A    
O2    C1    1.298446 A    
C21   H11   1.082716 S    
C11   C12   1.418665 A    
O17   V4    1.707798 S    
C23   C24   1.406683 A    
C25   H14   1.082737 S    
C21   C22   1.401235 A    
C17   C28   1.487856 S    
O3    C4    1.292299 A    
C24   H13   1.082715 S    
O6    V2    2.001164 S    
O9    V2    2.005048 S    
C32   H17   1.110159 S    
C8    H4    1.082387 S    
O2    V1    2.002382 S    
C15   C31   1.519296 S    
C12   N1    1.430472 S    
C19   H10   1.082594 S    
O1    C2    1.297543 A    
C31   C32   1.527272 S    
O5    V1    2.002120 S    
O8    C3    1.298165 A    
C9    C10   1.400940 A    
V3    O20   1.707456 S    
C4    C8    1.478082 S    
C7    H3    1.086158 S    
O7    V2    1.708881 S    
O4    V1    2.004130 S    
O3    V1    2.004893 S    
V1    O10   1.707382 S    
C18   C19   1.400504 A    
C6    C29   1.479354 S    
C18   H9    1.083216 S    
C1    C20   1.499443 S    
C24   C25   1.401306 A    
C5    H1    1.086126 S    
C6    H2    1.082346 S    
N1    O21   1.299898 A    
O11   V4    2.001537 S    
O18   C29   1.296951 A    
O19   C30   1.299644 A    
C10   H6    1.082883 S    
C7    C8    1.346938 D    
C9    C14   1.403464 A    
C23   C27   1.491586 S    
