data_mof_unit_13339.cif
_audit_creation_date              2012-12-11T15:55:43-0500
_audit_creation_method            fapswitch 2.2
_symmetry_space_group_name_H-M    P1
_symmetry_Int_Tables_number       1
_space_group_crystal_system       triclinic
_cell_length_a                    11.06162
_cell_length_b                    11.006317
_cell_length_c                    18.644562
_cell_angle_alpha                 89.959166
_cell_angle_beta                  90.243842
_cell_angle_gamma                 59.998278
_cell_volume                      1965.75669477

loop_
_atom_site_label
_atom_site_type_symbol
_atom_type_description
_atom_site_fract_x
_atom_site_fract_y
_atom_site_fract_z
_atom_type_partial_charge
C1    C     C_R   0.358676 0.772560 0.398025 0.538601
C2    C     C_R   0.586432 0.030896 0.199419 0.039668
C3    C     C_R   0.320387 0.251823 0.178773 -0.009659
C4    C     C_R   0.467876 0.247143 0.271846 -0.146785
C5    C     C_R   0.455796 0.176634 0.212981 0.011788
C6    C     C_R   0.006663 0.558165 0.344741 -0.079185
C7    C     C_R   0.931132 0.629961 0.405602 -0.099134
C8    C     C_R   0.631954 0.953022 0.134557 -0.102646
C9    C     C_R   0.770045 0.847248 0.124682 -0.143077
C10   C     C_R   0.202346 0.339570 0.221877 -0.143876
C11   C     C_R   0.221270 0.357820 0.294935 -0.015262
C12   C     C_R   0.387894 0.354040 0.387817 0.548190
C13   C     C_R   0.955566 0.559012 0.470963 -0.034333
C14   C     C_R   0.049064 0.414754 0.474300 -0.058321
C15   C     C_R   0.124091 0.343501 0.413292 -0.091179
C16   C     C_R   0.107712 0.416759 0.348603 0.031697
C17   C     C_R   0.355235 0.323260 0.316914 0.007469
C18   C     C_R   0.863141 0.334442 0.183756 0.008636
C19   C     C_R   0.917393 0.216599 0.228131 0.000863
C20   C     C_R   0.903721 0.227489 0.301090 -0.011577
C21   C     C_R   0.790436 0.479071 0.288476 -0.155343
C22   C     C_R   0.807046 0.466738 0.215018 -0.180625
C23   C     C_R   0.776088 0.380971 0.403063 0.558782
C24   C     C_3   0.903068 0.089779 0.225729 -0.247529
C25   C     C_3   0.891640 0.099262 0.307163 -0.280352
C26   C     C_R   0.830101 0.358947 0.331747 0.028327
C27   C     C_R   0.317708 0.915655 0.185199 0.032921
C28   C     C_R   0.415581 0.777393 0.202734 0.031933
C29   C     C_R   0.430295 0.733297 0.273177 0.011186
C30   C     C_R   0.268190 0.969139 0.311599 -0.150951
C31   C     C_R   0.251776 0.012989 0.240236 -0.161295
C32   C     C_3   0.428479 0.644117 0.175107 -0.248068
C33   C     C_3   0.440049 0.597329 0.252638 -0.261272
C34   C     C_R   0.342302 0.773114 0.603122 0.528227
C35   C     C_R   0.350956 0.826717 0.327279 0.040271
C36   C     C_R   0.348221 0.338853 0.825616 -0.002552
C37   C     C_R   0.460045 0.233272 0.787042 0.032474
C38   C     C_R   0.480036 0.250221 0.716586 0.019072
C39   C     C_R   0.296884 0.489891 0.721752 -0.162390
C40   C     C_R   0.281749 0.474371 0.795802 -0.142218
C41   C     C_3   0.500488 0.083345 0.775178 -0.270367
C42   C     C_3   0.524546 0.102127 0.697665 -0.272853
C43   C     C_R   0.390759 0.373470 0.680805 0.000977
C44   C     C_R   0.786780 0.350282 0.841495 0.027283
C45   C     C_R   0.408363 0.379781 0.604132 0.550663
C46   C     C_R   0.738342 0.481779 0.807754 0.014273
C47   C     C_R   0.698822 0.503583 0.736253 0.009336
C48   C     C_R   0.742116 0.267524 0.728806 -0.144925
C49   C     C_R   0.770279 0.249668 0.803144 -0.154411
C50   C     C_3   0.798276 0.577656 0.801257 -0.052670
C51   C     C_3   0.756188 0.599083 0.723691 -0.249234
C52   C     C_R   0.714958 0.392682 0.693962 0.024320
C53   C     C_R   0.305715 0.835594 0.825911 0.017357
C54   C     C_R   0.202687 0.826927 0.786491 0.011338
C55   C     C_R   0.205804 0.824514 0.712444 0.020978
C56   C     C_R   0.699622 0.411966 0.615989 0.551459
C57   C     C_R   0.412213 0.842517 0.713407 -0.164188
C58   C     C_R   0.417072 0.832297 0.788212 -0.161051
C59   C     C_3   0.048635 0.922946 0.787015 -0.263019
C60   C     C_3   0.052075 0.919372 0.706072 -0.281823
C61   C     C_R   0.310342 0.832290 0.674750 0.021579
C62   C     C_R   0.909870 0.315695 0.111198 0.517922
C63   C     C_R   0.301040 0.249864 0.100823 0.540444
C64   C     C_R   0.274999 0.958428 0.112107 0.527415
C65   C     C_R   0.876605 0.313006 0.906179 0.552380
C66   C     C_R   0.303579 0.294532 0.890023 0.561028
C67   C     C_R   0.867301 0.810437 0.179823 0.065303
C68   C     C_R   0.275524 0.893745 0.897984 0.556643
C69   C     C_R   0.818597 0.865236 0.248022 -0.160647
C70   C     C_R   0.679189 0.966556 0.258232 -0.148388
Cr1   Cr    Cr6+3 0.601740 0.606840 0.505840 0.980541
Cr2   Cr    Cr6+3 0.291500 0.601560 0.495070 1.010178
Cr3   Cr    Cr6+3 0.606780 0.291630 0.499130 0.986569
Cr4   Cr    Cr6+3 0.062440 0.063060 0.008240 1.025978
Cr5   Cr    Cr6+3 0.062950 0.375000 0.998920 1.077040
Cr6   Cr    Cr6+3 0.374550 0.061770 0.992470 0.974680
H1    H     H_    0.569725 0.228000 0.288148 0.118955
H2    H     H_    0.898765 0.614745 0.518346 0.104894
H3    H     H_    0.066233 0.358986 0.524547 0.123648
H4    H     H_    0.203743 0.234191 0.418180 0.095538
H5    H     H_    0.736381 0.584324 0.310212 0.158520
H6    H     H_    0.774068 0.560364 0.182893 0.147652
H7    H     H_    0.999747 0.996147 0.206715 0.191929
H8    H     H_    0.805319 0.111499 0.197816 0.154676
H9    H     H_    0.789547 0.120692 0.328172 0.150431
H10   H     H_    0.983365 0.012391 0.334870 0.154933
H11   H     H_    0.209524 0.043643 0.353260 0.107192
H12   H     H_    0.801485 0.798158 0.072514 0.149475
H13   H     H_    0.179493 0.120434 0.227362 0.106774
H14   H     H_    0.526327 0.581482 0.144360 0.132885
H15   H     H_    0.332681 0.659881 0.147589 0.192491
H16   H     H_    0.348832 0.589599 0.271138 0.200151
H17   H     H_    0.542032 0.504288 0.266025 0.132934
H18   H     H_    0.229992 0.588368 0.695618 0.154492
H19   H     H_    0.212882 0.564597 0.827361 0.189244
H20   H     H_    0.408719 0.069757 0.782614 0.164427
H21   H     H_    0.597322 0.008850 0.804605 0.137832
H22   H     H_    0.636193 0.040860 0.682064 0.130227
H23   H     H_    0.855100 0.740672 0.402479 0.085657
H24   H     H_    0.450165 0.093396 0.660642 0.156595
H25   H     H_    0.749611 0.180660 0.698218 0.131285
H26   H     H_    0.793331 0.151863 0.828346 0.120780
H27   H     H_    0.742204 0.674341 0.834187 0.093032
H28   H     H_    0.681738 0.708588 0.712437 0.098539
H29   H     H_    0.844289 0.556255 0.684944 0.179455
H30   H     H_    0.485581 0.860680 0.684438 0.118279
H31   H     H_    0.499323 0.838369 0.816531 0.123347
H32   H     H_    0.022897 0.026638 0.808850 0.173295
H33   H     H_    0.991809 0.873289 0.810795 0.156377
H34   H     H_    0.999141 0.865284 0.682585 0.137256
H35   H     H_    0.023681 0.022127 0.681095 0.154920
H36   H     H_    0.889540 0.839384 0.292825 0.132410
H37   H     H_    0.648581 0.002809 0.312630 0.124081
H38   H     H_    0.991626 0.611686 0.294884 0.145590
H39   H     H_    0.570394 0.964241 0.089193 0.196028
H40   H     H_    0.097990 0.386427 0.199839 0.146206
O1    O     O_R   0.748670 0.497520 0.427970 -0.520401
O2    O     O_R   0.300170 0.471020 0.567120 -0.501512
O3    O     O_R   0.491630 0.259030 0.574940 -0.524915
O4    O     O_R   0.718640 0.304340 0.577850 -0.519004
O5    O     O_3   0.500010 0.500010 0.500020 -0.291550
O6    O     O_R   0.186620 0.923750 0.087000 -0.495064
O7    O     O_R   0.957350 0.194160 0.084660 -0.516956
O8    O     O_R   0.935120 0.407280 0.085350 -0.525175
O9    O     O_R   0.203800 0.365060 0.067090 -0.476192
O10   O     O_R   0.417470 0.174910 0.067830 -0.548862
O11   O     O_R   0.375160 0.946380 0.070880 -0.543419
O12   O     O_R   0.476470 0.723930 0.429450 -0.504361
O13   O     O_R   0.160500 0.919670 0.926690 -0.503691
O14   O     O_R   0.933140 0.190380 0.936050 -0.509003
O15   O     O_R   0.909010 0.403210 0.925030 -0.490564
O16   O     O_R   0.179590 0.361290 0.918480 -0.432625
O17   O     O_R   0.391360 0.170840 0.907510 -0.529407
O18   O     O_R   0.350950 0.942600 0.922260 -0.507373
O19   O     O_3   0.166650 0.166610 0.999880 -0.298021
O20   O     O_R   0.264730 0.744140 0.416740 -0.509375
O21   O     O_R   0.309440 0.472410 0.418220 -0.475894
O22   O     O_R   0.501630 0.260530 0.414310 -0.535395
O23   O     O_R   0.727920 0.305730 0.428950 -0.505434
O24   O     O_R   0.738670 0.496020 0.588600 -0.528302
O25   O     O_R   0.467190 0.722540 0.578350 -0.521793
O26   O     O_R   0.254720 0.742640 0.577370 -0.528303
C71   C     C_2   0.952149 0.508036 0.805072 0.612782
O27   O     O_2   0.004216 0.567884 0.836031 -0.544634
O28   O     O_R   0.032920 0.378302 0.771261 -0.708013
H41   H     H_    0.135713 0.344531 0.770390 0.329599
C72   C     C_2   0.018110 0.721051 0.164845 0.549349
O29   O     O_2   0.104487 0.698894 0.211626 -0.579270
O30   O     O_R   0.062194 0.666911 0.096045 -0.680478
H42   H     H_    0.167506 0.612952 0.091552 0.346238

loop_
_geom_bond_atom_site_label_1
_geom_bond_atom_site_label_2
_ccdc_geom_bond_type
C45   O2    A    
C44   C49   A    
C7    C13   A    
C21   C26   A    
C34   O25   A    
Cr3   O3    S    
Cr2   O5    S    
Cr6   O10   S    
C41   C42   S    
Cr1   O24   S    
C72   O29   D    
C1    O12   A    
C62   O8    A    
O28   H41   S    
C53   C54   A    
Cr5   O16   S    
Cr2   O26   S    
C7    H23   S    
C30   C35   A    
C64   O6    A    
C22   H6    S    
C23   O23   A    
C36   C37   A    
C72   O30   S    
C24   H7    S    
C38   C42   S    
C42   H22   S    
C9    H12   S    
C30   C31   A    
C56   O24   A    
C69   H36   S    
Cr5   O19   S    
Cr2   O20   S    
C32   H15   S    
C20   C25   S    
C71   O27   D    
C29   C33   S    
C18   C19   A    
C23   C26   S    
C4    H1    S    
C53   C68   S    
C6    H38   S    
C36   C40   A    
C8    H39   S    
C21   C22   A    
C54   C55   A    
C32   H14   S    
C19   C20   A    
Cr5   O15   S    
C8    C9    A    
C31   H13   S    
C12   C17   S    
C1    O20   A    
Cr1   O25   S    
C45   O3    A    
Cr4   O7    S    
C50   H27   S    
Cr3   O4    S    
C13   C14   A    
C41   H20   S    
C56   O4    A    
C44   C65   S    
C68   O13   A    
C62   O7    A    
C65   O15   A    
Cr6   O19   S    
C44   C46   A    
C65   O14   A    
C66   O16   A    
C54   C59   S    
C70   H37   S    
Cr1   O1    S    
C27   C31   A    
Cr5   O8    S    
C28   C32   S    
C24   C25   S    
C27   C64   S    
C33   H16   S    
C49   H26   S    
Cr6   O18   S    
C18   C62   S    
C12   O22   A    
C39   C43   A    
Cr3   O23   S    
C51   H28   S    
C34   C61   S    
C33   H17   S    
Cr5   O9    S    
C47   C52   A    
C9    C67   A    
C39   H18   S    
C37   C38   A    
C42   H24   S    
C66   O17   A    
C34   O26   A    
C11   C16   S    
C15   H4    S    
C14   C15   A    
C48   C52   A    
C51   H29   S    
C64   O11   A    
Cr4   O19   S    
C25   H9    S    
C50   C51   S    
C14   H3    S    
C43   C45   S    
C63   O9    A    
C4    C17   A    
Cr2   O21   S    
Cr4   O6    S    
C21   H5    S    
Cr3   O5    S    
Cr4   O14   S    
C67   C72   S    
Cr6   O17   S    
C41   H21   S    
Cr1   O12   S    
C2    C5    S    
C40   H19   S    
C58   H31   S    
C10   H40   S    
C50   C71   S    
C1    C35   S    
C71   O28   S    
C46   C50   S    
C46   C47   A    
C28   C29   A    
C18   C22   A    
Cr1   O5    S    
C2    C8    A    
C4    C5    A    
C3    C5    A    
C11   C17   A    
C23   O1    A    
C47   C51   S    
C53   C58   A    
C57   C61   A    
C6    C7    A    
C3    C63   S    
C29   C35   A    
C59   H32   S    
C32   C33   S    
C68   O18   A    
C19   C24   S    
C24   H8    S    
C38   C43   A    
C60   H35   S    
C2    C70   A    
O30   H42   S    
C57   C58   A    
C20   C26   A    
C48   C49   A    
C48   H25   S    
C55   C61   A    
C25   H10   S    
C59   H33   S    
C57   H30   S    
C36   C66   S    
C37   C41   S    
C69   C70   A    
C63   O10   A    
C60   H34   S    
C10   C11   A    
C13   H2    S    
C6    C16   A    
C39   C40   A    
C52   C56   S    
C59   C60   S    
Cr3   O22   S    
Cr4   O13   S    
Cr2   O2    S    
C27   C28   A    
C3    C10   A    
Cr6   O11   S    
C12   O21   A    
C67   C69   A    
C30   H11   S    
C55   C60   S    
C15   C16   A    
