data_mof_unit_14289.cif
_audit_creation_date              2012-12-10T17:13:39-0500
_audit_creation_method            fapswitch 2.2
_symmetry_space_group_name_H-M    P1
_symmetry_Int_Tables_number       1
_space_group_crystal_system       triclinic
_cell_length_a                    10.750345
_cell_length_b                    12.995659
_cell_length_c                    11.785792
_cell_angle_alpha                 98.985281
_cell_angle_beta                  93.55582
_cell_angle_gamma                 93.036965
_cell_volume                      1619.94749936

loop_
_atom_site_label
_atom_site_type_symbol
_atom_type_description
_atom_site_fract_x
_atom_site_fract_y
_atom_site_fract_z
_atom_type_partial_charge
C1    C     C_R   0.505075 0.299870 0.479180 0.842961
C2    C     C_3   0.878166 0.502869 0.499727 0.119375
C3    C     C_3   0.938720 0.598588 0.584157 -0.428138
C4    C     C_3   0.921457 0.510818 0.378084 -0.350083
C5    C     C_R   0.489427 0.813509 0.533620 -0.062047
C6    C     C_R   0.514590 0.186838 0.467974 -0.130602
C7    C     C_R   0.533521 0.017361 0.353291 -0.230037
C8    C     C_R   0.548242 0.125946 0.364803 -0.019352
C9    C     C_R   0.486351 0.138257 0.562503 -0.270071
C10   C     C_R   0.485762 0.030393 0.554043 0.162215
C11   C     C_R   0.503549 0.969778 0.447127 0.133630
C12   C     C_R   0.260117 0.500756 0.500311 0.781479
C13   C     C_R   0.498237 0.861962 0.436891 -0.249781
C14   C     C_R   0.474378 0.873888 0.641129 -0.115916
C15   C     C_R   0.469060 0.981863 0.650648 -0.189696
C16   C     C_R   0.394464 0.392085 0.020009 -0.345904
C17   C     C_R   0.405924 0.398971 0.140852 0.166316
C18   C     C_R   0.542538 0.552023 0.154774 0.112009
C19   C     C_R   0.540909 0.539621 0.031710 0.021656
C20   C     C_R   0.461145 0.461792 0.964943 0.034326
C21   C     C_R   0.452140 0.453750 0.843491 0.055316
C22   C     C_R   0.607250 0.591221 0.852614 0.084415
C23   C     C_R   0.497320 0.700417 0.521127 0.833365
C24   C     C_R   0.618487 0.602074 0.972721 -0.256629
C25   C     C_R   0.740053 0.501475 0.499779 0.813794
C26   C     C_3   0.068104 0.401079 0.537501 -0.414153
C27   C     C_3   0.924408 0.401385 0.537413 -0.378600
C28   C     C_3   0.083119 0.597168 0.588322 -0.135914
C29   C     C_3   0.063155 0.507206 0.377600 -0.355495
C30   C     C_3   0.122103 0.502930 0.500694 0.067197
Cu1   Cu    Cu3+1 0.509350 0.507730 0.615930 0.954217
Cu2   Cu    Cu3+1 0.490650 0.492270 0.384070 1.014644
H1    H     H_    0.107946 0.393509 0.625051 0.170238
H2    H     H_    0.895018 0.585565 0.352090 0.235306
H3    H     H_    0.905952 0.671557 0.557126 0.188184
H4    H     H_    0.554469 0.969603 0.273667 0.182869
H5    H     H_    0.455856 0.027435 0.733713 0.157113
H6    H     H_    0.465367 0.184295 0.643191 0.160923
H7    H     H_    0.388875 0.394790 0.791387 0.110752
H8    H     H_    0.666059 0.640326 0.809032 0.123929
H9    H     H_    0.335794 0.329291 0.968242 0.159975
H10   H     H_    0.115103 0.583615 0.676340 0.143007
H11   H     H_    0.907717 0.597125 0.672321 0.162731
H12   H     H_    0.103083 0.575296 0.342576 0.216812
H13   H     H_    0.083871 0.436696 0.317389 0.218215
H14   H     H_    0.876467 0.445950 0.313179 0.185488
N1    N     N_R   0.523430 0.519360 0.790130 -0.185370
N2    N     N_R   0.476570 0.480640 0.209880 -0.251121
O1    O     O_R   0.506640 0.354460 0.582000 -0.599285
O2    O     O_R   0.490840 0.341410 0.386200 -0.554746
O3    O     O_R   0.325590 0.506510 0.597900 -0.593857
O4    O     O_R   0.309790 0.493450 0.402100 -0.545044
O5    O     O_R   0.509160 0.658590 0.613800 -0.586575
O6    O     O_R   0.493360 0.645540 0.418000 -0.575716
O7    O     O_R   0.690210 0.506550 0.597900 -0.608860
O8    O     O_R   0.674410 0.493490 0.402100 -0.530844
C31   C     C_2   0.142959 0.701765 0.572642 0.817014
O9    O     O_2   0.215611 0.749958 0.648843 -0.602206
O10   O     O_R   0.113850 0.744373 0.473194 -0.771783
H15   H     H_    0.160652 0.814267 0.473602 0.340554
H16   H     H_    0.504086 0.815882 0.353934 0.199902
H17   H     H_    0.465591 0.837765 0.717305 0.189235
C32   C     C_2   0.610357 0.171181 0.272809 0.888841
O11   O     O_2   0.595850 0.127139 0.172855 -0.556920
O12   O     O_R   0.691910 0.260248 0.301052 -0.787990
H18   H     H_    0.729134 0.282579 0.231084 0.325194
H19   H     H_    0.094077 0.331869 0.477505 0.179927
H20   H     H_    0.689802 0.658152 0.017453 0.169234
C33   C     C_2   0.344724 0.309886 0.184995 0.879013
O13   O     O_2   0.364394 0.220975 0.141706 -0.581567
O14   O     O_R   0.257686 0.324822 0.267592 -0.774909
H21   H     H_    0.221964 0.256836 0.288056 0.313721
C34   C     C_2   0.610990 0.647931 0.218257 0.834174
O15   O     O_2   0.692531 0.643641 0.293288 -0.610349
O16   O     O_R   0.590823 0.743636 0.182096 -0.795527
H22   H     H_    0.654017 0.801323 0.220252 0.321746
H23   H     H_    0.881245 0.332056 0.477800 0.196660
H24   H     H_    0.895547 0.394817 0.625207 0.177408

loop_
_geom_bond_atom_site_label_1
_geom_bond_atom_site_label_2
_ccdc_geom_bond_type
C32   O12   S    
C17   C33   S    
Cu2   N2    S    
C34   O15   D    
C19   C20   A    
C17   N2    A    
C27   H24   S    
C6    C9    A    
C7    C8    A    
C4    H14   S    
C28   C31   S    
C7    C11   A    
C3    H11   S    
C26   C27   S    
C26   H19   S    
C3    C28   S    
C10   C15   A    
C31   O10   S    
C14   H17   S    
C18   C19   A    
C7    H4    S    
C33   O14   S    
Cu2   O4    S    
C15   H5    S    
C16   C17   A    
C5    C23   S    
C25   O8    A    
C2    C27   S    
C1    O2    A    
C5    C13   A    
C4    C29   S    
C22   N1    A    
O10   H15   S    
Cu1   N1    S    
C34   O16   S    
Cu1   O1    S    
Cu2   O6    S    
C12   O4    A    
C23   O5    A    
C4    H2    S    
C1    C6    S    
C6    C8    A    
C29   H13   S    
C2    C4    S    
O16   H22   S    
C29   C30   S    
C26   H1    S    
Cu1   Cu2   S    
C21   H7    S    
C3    H3    S    
C16   C20   A    
C22   H8    S    
Cu1   O5    S    
Cu2   O2    S    
C5    C14   A    
C26   C30   S    
C18   C34   S    
C29   H12   S    
C22   C24   A    
C12   O3    A    
C23   O6    A    
C9    C10   A    
C12   C30   S    
C25   O7    A    
Cu1   O3    S    
C27   H23   S    
C18   N2    A    
C28   C30   S    
C2    C3    S    
O14   H21   S    
C11   C13   A    
C31   O9    D    
C28   H10   S    
C9    H6    S    
C19   C24   A    
C2    C25   S    
C33   O13   D    
C10   C11   A    
C24   H20   S    
C8    C32   S    
C32   O11   D    
C13   H16   S    
C20   C21   A    
O12   H18   S    
C14   C15   A    
Cu1   O7    S    
C1    O1    A    
C16   H9    S    
Cu2   O8    S    
C21   N1    A    
