data_mof_unit_9149.cif
_audit_creation_date              2012-12-10T17:44:31-0500
_audit_creation_method            fapswitch 2.2
_symmetry_space_group_name_H-M    P1
_symmetry_Int_Tables_number       1
_space_group_crystal_system       triclinic
_cell_length_a                    10.031608
_cell_length_b                    10.656379
_cell_length_c                    15.372495
_cell_angle_alpha                 93.265311
_cell_angle_beta                  71.564978
_cell_angle_gamma                 91.167932
_cell_volume                      1556.46236712

loop_
_atom_site_label
_atom_site_type_symbol
_atom_type_description
_atom_site_fract_x
_atom_site_fract_y
_atom_site_fract_z
_atom_type_partial_charge
Br1   Br    Br    0.706452 0.870179 0.606624 -0.387859
Br2   Br    Br    0.116754 0.838482 0.331324 -0.411767
Br3   Br    Br    0.967482 0.085497 0.474084 -0.340373
Br4   Br    Br    0.133804 0.209846 0.615911 -0.453325
Br5   Br    Br    0.914053 0.337581 0.338121 -0.400193
Br6   Br    Br    0.158514 0.793933 0.632869 -0.462973
Br7   Br    Br    0.231870 0.317278 0.353061 -0.475335
C1    C     C_R   0.503338 0.739967 0.497349 0.908068
C2    C     C_R   0.722548 0.414966 0.036489 0.169662
C3    C     C_R   0.577530 0.407800 0.087562 0.094452
C4    C     C_R   0.412617 0.493118 0.674638 0.873808
C5    C     C_R   0.820921 0.452610 0.080363 -0.200570
C6    C     C_R   0.777128 0.483003 0.174247 -0.128206
C7    C     C_R   0.535675 0.443813 0.180900 -0.221116
C8    C     C_R   0.339545 0.879029 0.408209 -0.218270
C9    C     C_R   0.213597 0.928294 0.405027 0.263607
C10   C     C_R   0.154713 0.033434 0.462521 0.312625
C11   C     C_R   0.232659 0.098120 0.512979 0.270412
C12   C     C_R   0.421916 0.389965 0.901335 0.105972
C13   C     C_R   0.371551 0.058220 0.502289 -0.002898
C14   C     C_R   0.409985 0.937106 0.466106 -0.016127
C15   C     C_R   0.507848 0.874755 0.497333 -0.136116
C16   C     C_R   0.492547 0.261771 0.509816 0.922019
C17   C     C_R   0.587897 0.942867 0.545411 0.315742
C18   C     C_R   0.578076 0.071795 0.553174 -0.174442
C19   C     C_R   0.474629 0.130337 0.527638 -0.142943
C20   C     C_R   0.806203 0.524152 0.664401 -0.076385
C21   C     C_R   0.838270 0.572958 0.741352 -0.241063
C22   C     C_R   0.965077 0.632958 0.730582 -0.176296
C23   C     C_R   0.280175 0.360853 0.946218 0.157452
C24   C     C_R   0.064651 0.635721 0.643772 0.357012
C25   C     C_R   0.038878 0.567508 0.568237 0.049011
C26   C     C_R   0.895476 0.541492 0.576057 0.115877
C27   C     C_R   0.960859 0.439071 0.431675 0.297931
C28   C     C_R   0.586408 0.497970 0.324960 0.880649
C29   C     C_R   0.101903 0.433134 0.434939 0.295241
C30   C     C_R   0.361622 0.454742 0.769987 -0.049755
C31   C     C_R   0.634198 0.477871 0.225011 -0.060900
C32   C     C_R   0.182730 0.365353 0.898276 -0.193905
C33   C     C_R   0.223207 0.411696 0.810220 -0.145255
C34   C     C_R   0.522859 0.377117 0.945768 0.070936
C35   C     C_R   0.457526 0.445171 0.817184 -0.264512
C36   C     C_R   0.477914 0.376191 0.041944 0.058131
C37   C     C_R   0.335034 0.348054 0.087640 -0.178632
C38   C     C_R   0.238654 0.333921 0.038954 -0.196853
C39   C     C_R   0.667063 0.369338 0.896840 -0.222689
C40   C     C_R   0.766255 0.388267 0.941862 -0.216240
H1    H     H_    0.425853 0.450320 0.219334 0.195217
H2    H     H_    0.876171 0.389890 0.901578 0.151268
H3    H     H_    0.076329 0.333275 0.928927 0.137116
H4    H     H_    0.146623 0.413762 0.774048 0.184437
H5    H     H_    0.557805 0.488702 0.791277 0.147846
H6    H     H_    0.296797 0.333518 0.160046 0.207055
H7    H     H_    0.703496 0.351523 0.823118 0.165343
H8    H     H_    0.854930 0.511480 0.206802 0.195578
H9    H     H_    0.130163 0.311205 0.075208 0.178053
H10   H     H_    0.931168 0.461152 0.042152 0.139014
H11   H     H_    0.378696 0.792778 0.368370 0.187413
H12   H     H_    0.649239 0.126360 0.580789 0.207988
H13   H     H_    0.729819 0.451071 0.673492 0.163124
H14   H     H_    0.764032 0.568554 0.809212 0.173455
H15   H     H_    0.982185 0.683784 0.789243 0.184061
N1    N     N_R   0.856800 0.501200 0.500850 -0.149800
N2    N     N_R   0.142390 0.501280 0.500880 -0.145989
O1    O     O_R   0.385310 0.683220 0.500000 -0.587279
O2    O     O_R   0.614640 0.683250 0.500010 -0.565009
O3    O     O_R   0.319840 0.499980 0.632240 -0.605447
O4    O     O_R   0.549160 0.500000 0.632250 -0.637285
O5    O     O_R   0.385360 0.316750 0.499990 -0.564347
O6    O     O_R   0.614690 0.316780 0.500000 -0.586361
O7    O     O_R   0.450840 0.500000 0.367750 -0.597156
O8    O     O_R   0.680160 0.500020 0.367760 -0.578884
Zn1   Zn    Zn3+2 0.346880 0.499980 0.499990 1.033115
Zn2   Zn    Zn3+2 0.653120 0.500020 0.500010 1.043864

loop_
_geom_bond_atom_site_label_1
_geom_bond_atom_site_label_2
_ccdc_geom_bond_type
C1    O2    A    
Br7   C29   S    
C16   O5    A    
C23   C38   A    
C40   H2    S    
C20   C26   A    
C21   C22   A    
C30   C33   A    
C20   H13   S    
O4    Zn2   S    
C8    C9    A    
O2    Zn2   S    
O1    Zn1   S    
C16   C19   S    
C30   C35   A    
C4    C30   S    
C39   C40   A    
C37   H6    S    
C38   H9    S    
C9    C10   A    
O6    Zn2   S    
C1    C15   S    
C34   C39   A    
O5    Zn1   S    
O3    Zn1   S    
Br2   C9    S    
C2    C3    A    
C11   C13   A    
C12   C35   A    
Br4   C11   S    
C21   H14   S    
Br6   C24   S    
C28   O7    A    
C1    O1    A    
C14   C15   A    
C34   C36   A    
C16   O6    A    
C4    O3    A    
C28   C31   S    
C17   C18   A    
C25   N2    A    
O8    Zn2   S    
C3    C7    A    
C32   C33   A    
O7    Zn1   S    
C7    H1    S    
C18   C19   A    
C36   C37   A    
C7    C31   A    
C24   C25   A    
C26   N1    A    
Br5   C27   S    
C39   H7    S    
C10   C11   A    
C13   C14   A    
C6    C31   A    
C5    H10   S    
N2    Zn1   S    
C28   O8    A    
C2    C40   A    
C8    H11   S    
C15   C17   A    
C4    O4    A    
C22   H15   S    
C3    C36   A    
C37   C38   A    
N1    Zn2   S    
C33   H4    S    
C25   C26   A    
C22   C24   A    
C13   C19   A    
C27   N1    A    
C23   C32   A    
Br3   C10   S    
C27   C29   A    
C2    C5    A    
C8    C14   A    
C32   H3    S    
C5    C6    A    
Br1   C17   S    
C20   C21   A    
C18   H12   S    
C29   N2    A    
C12   C23   A    
C12   C34   A    
C35   H5    S    
C6    H8    S    
