data_mof_unit_19543.cif
_audit_creation_date              2012-12-10T17:54:21-0500
_audit_creation_method            fapswitch 2.2
_symmetry_space_group_name_H-M    P1
_symmetry_Int_Tables_number       1
_space_group_crystal_system       triclinic
_cell_length_a                    27.731005
_cell_length_b                    10.620202
_cell_length_c                    9.912258
_cell_angle_alpha                 89.879116
_cell_angle_beta                  89.933771
_cell_angle_gamma                 91.646064
_cell_volume                      2918.03464873

loop_
_atom_site_label
_atom_site_type_symbol
_atom_type_description
_atom_site_fract_x
_atom_site_fract_y
_atom_site_fract_z
_atom_type_partial_charge
C1    C     C_R   0.501265 0.260734 0.500146 0.855460
C2    C     C_R   0.277495 0.486427 0.623816 0.518308
C3    C     C_R   0.252890 0.488925 0.500524 0.293483
C4    C     C_R   0.101728 0.490572 0.498103 -0.050394
C5    C     C_R   0.125840 0.375605 0.499172 -0.030614
C6    C     C_R   0.099271 0.262097 0.500669 -0.130197
C7    C     C_R   0.128816 0.604823 0.497081 -0.030439
C8    C     C_R   0.353376 0.495449 0.500378 -0.078211
C9    C     C_R   0.646542 0.499315 0.500044 -0.038811
C10   C     C_R   0.972880 0.376572 0.487312 0.046321
C11   C     C_R   0.975974 0.608390 0.510411 0.047127
C12   C     C_R   0.406091 0.499020 0.500081 0.883762
C13   C     C_R   0.949201 0.492877 0.499151 0.070993
C14   C     C_R   0.944504 0.265224 0.467870 -0.214172
C15   C     C_R   0.894549 0.267463 0.466283 -0.135415
C16   C     C_R   0.870994 0.380612 0.483449 -0.021535
C17   C     C_R   0.898128 0.493696 0.499753 -0.051750
C18   C     C_R   0.874064 0.607616 0.516643 -0.020523
C19   C     C_R   0.823625 0.606267 0.517047 0.503741
C20   C     C_R   0.820604 0.383660 0.483921 0.503175
C21   C     C_R   0.722046 0.509501 0.622070 -0.106619
C22   C     C_R   0.671979 0.510777 0.622066 -0.237583
C23   C     C_R   0.501405 0.739432 0.499830 0.877621
C24   C     C_R   0.671836 0.486486 0.378251 -0.207639
C25   C     C_R   0.721900 0.484836 0.378701 -0.104942
C26   C     C_R   0.746921 0.496401 0.500497 0.326439
C27   C     C_R   0.023894 0.375329 0.494234 0.046790
C28   C     C_R   0.050656 0.491315 0.498202 0.074646
C29   C     C_R   0.026967 0.608059 0.502402 0.046614
C30   C     C_R   0.049278 0.261668 0.498545 -0.210273
C31   C     C_R   0.105246 0.719051 0.495111 -0.128025
C32   C     C_R   0.950630 0.720574 0.530656 -0.214158
C33   C     C_R   0.900654 0.719944 0.533369 -0.137521
C34   C     C_R   0.593893 0.500166 0.499968 0.841203
C35   C     C_R   0.055302 0.720928 0.497352 -0.210338
C36   C     C_R   0.582299 0.137096 0.623417 -0.174311
C37   C     C_R   0.620256 0.074058 0.682973 -0.112679
C38   C     C_R   0.620320 0.943029 0.682623 -0.119837
C39   C     C_R   0.582440 0.874586 0.622649 -0.190222
C40   C     C_R   0.543369 0.937096 0.563105 0.093918
C41   C     C_R   0.543287 0.069069 0.563510 0.096664
C42   C     C_R   0.504540 0.128680 0.500014 -0.087517
C43   C     C_R   0.467981 0.062014 0.432994 -0.208821
C44   C     C_R   0.468069 0.933419 0.432608 -0.189605
C45   C     C_R   0.176296 0.377135 0.499871 0.555080
C46   C     C_R   0.504710 0.871969 0.499257 -0.101216
C47   C     C_R   0.436534 0.335476 0.140594 -0.162226
C48   C     C_R   0.405192 0.254655 0.070654 -0.192222
C49   C     C_R   0.405194 0.254642 0.931008 -0.184178
C50   C     C_R   0.436563 0.335395 0.860487 -0.159066
C51   C     C_R   0.468726 0.418908 0.927962 0.168251
C52   C     C_R   0.468723 0.418960 0.072565 0.171954
C53   C     C_R   0.529956 0.577457 0.071211 -0.111675
C54   C     C_R   0.529943 0.577432 0.928081 -0.111456
C55   C     C_R   0.179186 0.601942 0.497323 0.549111
C56   C     C_R   0.277982 0.493713 0.378330 -0.200832
C57   C     C_R   0.328026 0.496802 0.378002 -0.215836
C58   C     C_R   0.328022 0.489676 0.623101 -0.338015
H1    H     H_    0.347335 0.487871 0.718001 0.165136
H2    H     H_    0.258539 0.495672 0.283690 0.161854
H3    H     H_    0.125340 0.808042 0.491823 0.192163
H4    H     H_    0.968290 0.810705 0.547904 0.139494
H5    H     H_    0.882926 0.808391 0.548777 0.189586
H6    H     H_    0.741336 0.474921 0.284674 0.137396
H7    H     H_    0.040067 0.812921 0.492041 0.138144
H8    H     H_    0.438818 0.109808 0.383378 0.143241
H9    H     H_    0.584299 0.238850 0.623132 0.154832
H10   H     H_    0.649935 0.127092 0.728327 0.151248
H11   H     H_    0.584546 0.773090 0.621673 0.143246
H12   H     H_    0.438952 0.881415 0.382830 0.159563
H13   H     H_    0.554438 0.640757 0.124716 0.149559
H14   H     H_    0.434452 0.329597 0.247560 0.199765
H15   H     H_    0.380797 0.191529 0.125344 0.159357
H16   H     H_    0.380788 0.191532 0.876788 0.164386
H17   H     H_    0.434543 0.329480 0.753518 0.205124
H18   H     H_    0.554407 0.640736 0.874031 0.143799
H19   H     H_    0.117029 0.172566 0.503729 0.189337
H20   H     H_    0.653295 0.521047 0.717251 0.160279
H21   H     H_    0.874433 0.179616 0.451385 0.192038
H22   H     H_    0.959715 0.174533 0.450485 0.139993
H23   H     H_    0.031640 0.170126 0.503498 0.137450
H24   H     H_    0.346774 0.500681 0.282093 0.178191
N1    N     N_R   0.201586 0.489236 0.499077 -0.338145
N2    N     N_R   0.798229 0.495381 0.500619 -0.358503
N3    N     N_R   0.499540 0.498800 0.142780 -0.122539
N4    N     N_R   0.499520 0.498720 0.857170 -0.121803
O1    O     O_R   0.500000 0.316780 0.614690 -0.640276
O2    O     O_2   0.794074 0.276065 0.468614 -0.553486
O3    O     O_2   0.205695 0.710577 0.496266 -0.543418
O4    O     O_2   0.800032 0.714718 0.532794 -0.555044
O5    O     O_R   0.500000 0.316750 0.385360 -0.628426
O6    O     O_R   0.428760 0.500030 0.614650 -0.633945
O7    O     O_R   0.428750 0.500010 0.385320 -0.643010
O8    O     O_R   0.500000 0.683250 0.614640 -0.613039
O9    O     O_R   0.500000 0.683220 0.385310 -0.610312
O10   O     O_R   0.571250 0.499990 0.614680 -0.635554
O11   O     O_R   0.571240 0.499970 0.385350 -0.615064
O12   O     O_2   0.200006 0.267890 0.501318 -0.545322
Zn1   Zn    Zn3+2 0.500000 0.500020 0.653130 0.936020
Zn2   Zn    Zn3+2 0.500000 0.499980 0.346870 0.943828
H25   H     H_    0.653034 0.477281 0.282920 0.163137
O13   O     O_3   0.251334 0.481568 0.742394 -0.751165
H26   H     H_    0.274027 0.480284 0.819610 0.331587
H27   H     H_    0.650043 0.894252 0.727718 0.150139
H28   H     H_    0.741588 0.518451 0.716247 0.137376

loop_
_geom_bond_atom_site_label_1
_geom_bond_atom_site_label_2
_ccdc_geom_bond_type
C10   C27   A    
C1    O1    A    
C21   C26   A    
C37   H10   S    
C40   C41   A    
C41   C42   A    
C31   H3    S    
C7    C55   A    
C36   H9    S    
C53   C54   A    
C40   C46   A    
C28   C29   A    
C34   O10   A    
C24   H25   S    
C45   O12   S    
C5    C6    A    
C9    C22   A    
C2    O13   S    
C15   C16   A    
O10   Zn1   S    
C34   O11   A    
C56   C57   A    
C18   C19   A    
C38   H27   S    
C8    C58   A    
C15   H21   S    
C16   C17   A    
C44   H12   S    
C14   H22   S    
O5    Zn2   S    
C16   C20   A    
C1    O5    A    
C23   C46   S    
C21   C22   A    
C27   C30   A    
C36   C41   A    
C45   N1    A    
C4    C7    A    
C51   N4    A    
C4    C28   A    
C44   C46   A    
C17   C18   A    
O1    Zn1   S    
C33   H5    S    
C7    C31   A    
C51   C52   A    
C24   C25   A    
C22   H20   S    
C10   C14   A    
C39   C40   A    
C54   N4    A    
O9    Zn2   S    
C6    H19   S    
C58   H1    S    
C5    C45   A    
C56   H2    S    
C25   H6    S    
C43   C44   A    
C37   C38   A    
C8    C57   A    
C3    C56   A    
C47   C48   A    
C8    C12   S    
C50   C51   A    
C39   H11   S    
C49   H16   S    
N4    Zn1   S    
O7    Zn2   S    
C54   H18   S    
C48   C49   A    
C6    C30   A    
C11   C32   A    
C20   N2    A    
C3    N1    S    
C9    C34   S    
C31   C35   A    
C12   O7    A    
C42   C43   A    
C55   N1    A    
C19   N2    A    
C53   H13   S    
O11   Zn2   S    
C52   N3    A    
C26   N2    S    
C57   H24   S    
C48   H15   S    
C12   O6    A    
C4    C5    A    
C10   C13   A    
C2    C58   A    
C9    C24   A    
C47   C52   A    
C29   C35   A    
C23   O8    A    
C13   C17   A    
C32   C33   A    
C30   H23   S    
C2    C3    A    
C25   C26   A    
C32   H4    S    
C55   O3    S    
C19   O4    S    
C50   H17   S    
C11   C13   A    
C38   C39   A    
O8    Zn1   S    
C43   H8    S    
C20   O2    S    
C23   O9    A    
O13   H26   S    
C18   C33   A    
C47   H14   S    
C1    C42   S    
C11   C29   A    
C36   C37   A    
C49   C50   A    
C27   C28   A    
N3    Zn2   S    
C35   H7    S    
C14   C15   A    
C53   N3    A    
C21   H28   S    
O6    Zn1   S    
