data_mof_unit_61199.cif
_audit_creation_date              2013-03-05T16:15:19-0500
_audit_creation_method            fapswitch 2.2
_symmetry_space_group_name_H-M    P1
_symmetry_Int_Tables_number       1
_space_group_crystal_system       triclinic
_cell_length_a                    23.623548
_cell_length_b                    14.25472
_cell_length_c                    13.354945
_cell_angle_alpha                 89.99714
_cell_angle_beta                  89.998084
_cell_angle_gamma                 89.99102
_cell_volume                      4497.23843053

loop_
_atom_site_label
_atom_site_type_symbol
_atom_site_description
_atom_site_fract_x
_atom_site_fract_y
_atom_site_fract_z
_atom_type_partial_charge
O1    O     O_R   0.500000 0.373710 0.576470 -0.599824
O2    O     O_R   0.500000 0.626290 0.423530 -0.588878
O3    O     O_R   0.500000 0.626290 0.576470 -0.599954
O4    O     O_R   0.500000 0.373710 0.423530 -0.589058
C1    C     C_R   0.499999 0.326531 0.500007 0.978222
C2    C     C_R   0.499996 0.673468 0.500003 0.978293
O5    O     O_R   0.416150 0.500000 0.576470 -0.605263
O6    O     O_R   0.583850 0.500000 0.423530 -0.602820
O7    O     O_R   0.583850 0.500000 0.576470 -0.605381
O8    O     O_R   0.416150 0.500000 0.423530 -0.602860
C3    C     C_R   0.387682 0.499484 0.500072 0.968950
C4    C     C_R   0.612303 0.500495 0.500067 0.970616
Zn1   Zn    Zn3+2 0.500000 0.500000 0.602090 1.028819
Zn2   Zn    Zn3+2 0.500000 0.500000 0.397910 1.047085
C5    C     C_R   0.882285 0.584423 0.495384 0.597494
C6    C     C_R   0.117653 0.415527 0.496703 0.597473
C7    C     C_R   0.880170 0.420335 0.528223 0.562442
C8    C     C_R   0.119773 0.580066 0.526833 0.562554
N1    N     N_R   0.853381 0.502976 0.509314 -0.337744
N2    N     N_R   0.146559 0.497162 0.509282 -0.337699
C9    C     C_R   0.939635 0.414886 0.521962 -0.065604
C10   C     C_R   0.060308 0.585425 0.520516 -0.065732
C11   C     C_R   0.941026 0.587379 0.511993 -0.049332
C12   C     C_R   0.058914 0.412810 0.513390 -0.049235
C13   C     C_R   0.970208 0.500616 0.517690 0.001336
C14   C     C_R   0.029734 0.499644 0.517678 0.001327
C15   C     C_R   0.969039 0.327859 0.523253 -0.090411
C16   C     C_R   0.030904 0.672461 0.520397 -0.090109
C17   C     C_R   0.971206 0.673272 0.518951 -0.094068
C18   C     C_R   0.028736 0.327027 0.521778 -0.094420
O9    O     O_2   0.853881 0.661045 0.463825 -0.506399
O10   O     O_2   0.146053 0.338461 0.466391 -0.506335
O11   O     O_2   0.848793 0.344900 0.553507 -0.525137
O12   O     O_2   0.151154 0.655856 0.550850 -0.525153
C19   C     C_R   0.235126 0.537951 0.423876 -0.039901
C20   C     C_R   0.764829 0.460983 0.424544 -0.039693
C21   C     C_R   0.237468 0.452822 0.583821 -0.062072
C22   C     C_R   0.762461 0.548331 0.583120 -0.061889
C23   C     C_R   0.294595 0.541170 0.422821 -0.126437
C24   C     C_R   0.705359 0.457792 0.423489 -0.126679
C25   C     C_R   0.296887 0.450907 0.580167 -0.128075
C26   C     C_R   0.703041 0.550143 0.579442 -0.128393
C27   C     C_R   0.325498 0.497031 0.500764 -0.222663
C28   C     C_R   0.674462 0.502969 0.500739 -0.222398
C29   C     C_R   0.207108 0.495630 0.505370 0.154329
C30   C     C_R   0.792834 0.504441 0.505365 0.154110
C31   C     C_1   0.499979 0.225903 0.500038 -0.155619
C32   C     C_1   0.500029 0.774096 0.500026 -0.156018
C33   C     C_1   0.499979 0.141337 0.500073 0.036669
C34   C     C_1   0.500039 0.858663 0.500064 0.036538
C35   C     C_1   0.500001 0.042283 0.500096 0.051981
C36   C     C_1   0.500023 0.957717 0.500093 0.051990
N3    N     N_1   0.500000 0.500000 0.261870 -0.055493
N4    N     N_1   0.500000 0.500000 0.738130 -0.060864
C37   C     C_1   0.499999 0.500000 0.169392 0.124034
C38   C     C_1   0.499999 0.500000 0.830607 0.134089
C39   C     C_1   0.499998 0.500000 0.049528 -0.010939
C40   C     C_1   0.499998 0.500000 0.950472 0.000607
C41   C     C_2   0.937903 0.237100 0.520107 0.486298
H1    H     H_    0.905873 0.225411 0.463192 0.113129
O13   O     O_2   0.946944 0.175937 0.582107 -0.501313
C42   C     C_2   0.062038 0.763165 0.515739 0.485972
H2    H     H_    0.094058 0.774036 0.458618 0.113148
O14   O     O_2   0.053006 0.825210 0.576731 -0.501969
C43   C     C_2   0.941317 0.764676 0.529331 0.645201
H3    H     H_    0.953141 0.823730 0.482504 0.058540
O15   O     O_2   0.905124 0.775562 0.593599 -0.478948
C44   C     C_2   0.058625 0.235782 0.533639 0.645418
H4    H     H_    0.046795 0.176065 0.487792 0.059243
O16   O     O_2   0.094827 0.225815 0.598057 -0.478788
C45   C     C_2   0.201448 0.581183 0.341652 0.968795
O17   O     O_2   0.162309 0.537735 0.303683 -0.594414
O18   O     O_R   0.214014 0.671943 0.308726 -0.759792
H5    H     H_    0.187946 0.693594 0.253026 0.361941
C46   C     C_2   0.798518 0.416515 0.343097 0.969237
O19   O     O_2   0.837653 0.459390 0.304372 -0.594402
O20   O     O_R   0.785967 0.325252 0.311786 -0.759791
H6    H     H_    0.812048 0.302747 0.256491 0.361843
C47   C     C_2   0.206340 0.408469 0.668434 1.003284
O21   O     O_2   0.169183 0.452040 0.712077 -0.574950
O22   O     O_R   0.219109 0.316557 0.697222 -0.727668
H7    H     H_    0.194853 0.294132 0.755090 0.380785
C48   C     C_2   0.793573 0.593927 0.666982 1.003611
O23   O     O_2   0.830738 0.551020 0.711348 -0.574863
O24   O     O_R   0.780781 0.686241 0.694222 -0.727686
H8    H     H_    0.805034 0.709528 0.751700 0.380788
C49   C     C_2   0.324055 0.591138 0.340206 1.001599
O25   O     O_2   0.355771 0.656613 0.359059 -0.604389
O26   O     O_R   0.314913 0.563692 0.241024 -0.764333
H9    H     H_    0.337194 0.603022 0.191558 0.356079
C50   C     C_2   0.675876 0.406748 0.341644 1.000963
O27   O     O_2   0.643889 0.341903 0.361534 -0.605474
O28   O     O_R   0.685295 0.432466 0.242011 -0.764142
H10   H     H_    0.662983 0.392516 0.193164 0.356171
C51   C     C_2   0.328954 0.399813 0.659009 1.003242
O29   O     O_2   0.322773 0.420674 0.747165 -0.591851
O30   O     O_R   0.366258 0.328028 0.631828 -0.784881
H11   H     H_    0.385999 0.299049 0.691718 0.349278
C52   C     C_2   0.670919 0.602230 0.657479 1.002753
O31   O     O_2   0.677243 0.582794 0.745976 -0.591450
O32   O     O_R   0.633394 0.673309 0.629152 -0.785870
H12   H     H_    0.613642 0.703081 0.688584 0.349249

loop_
_geom_bond_atom_site_label_1
_geom_bond_atom_site_label_2
_geom_bond_distance
_ccdc_geom_bond_type
C49   O25   1.223152 D    
O28   H10   1.013826 S    
C22   C48   1.489035 S    
O18   H5    1.013791 S    
C19   C23   1.405700 A    
C51   O29   1.223039 D    
C23   C49   1.486278 S    
O3    C2    1.222742 A    
O30   H11   1.013784 S    
N1    C30   1.431469 S    
C31   C33   1.205469 T    
O20   H6    1.013792 S    
C5    N1    1.359773 A    
C21   C47   1.489097 S    
O32   H12   1.013789 S    
C7    O11   1.349047 S    
O1    C1    1.222744 A    
C11   C17   1.419978 A    
C16   C17   1.410448 A    
C12   C14   1.417871 A    
C22   C26   1.404803 A    
O7    Zn1   2.010157 S    
C42   O14   1.221164 D    
C7    N1    1.360785 A    
C48   O23   1.223038 D    
C44   H4    1.085242 S    
C43   O15   1.221361 D    
C34   C36   1.411989 S    
C20   C30   1.409510 A    
N2    C29   1.431497 S    
O3    Zn1   1.832437 S    
C6    N2    1.359771 A    
C32   C34   1.205468 T    
C9    C15   1.421797 A    
C19   C45   1.489435 S    
C41   H1    1.085413 S    
C6    C12   1.405928 A    
C10   C16   1.421802 A    
C15   C18   1.410442 A    
O4    Zn2   1.832439 S    
C25   C27   1.419032 A    
O2    C2    1.222855 A    
C26   C28   1.418818 A    
O22   H7    1.013796 S    
N3    C37   1.235032 T    
N4    C38   1.235023 T    
C41   O13   1.221160 D    
C35   C36   1.205468 T    
C20   C24   1.405702 A    
O8    Zn2   2.010159 S    
C50   O27   1.223170 D    
C45   O18   1.398336 S    
C23   C27   1.418525 A    
C33   C35   1.411988 S    
C13   C14   1.406284 A    
O24   H8    1.013795 S    
C7    C9    1.409379 A    
O5    C3    1.222034 A    
C46   O19   1.223042 D    
C42   H2    1.085417 S    
C20   C46   1.489350 S    
C50   O28   1.397980 S    
C8    O12   1.349047 S    
C52   O31   1.223060 D    
C24   C28   1.418338 A    
O6    C4    1.223387 A    
C3    C27   1.469445 S    
C46   O20   1.398342 S    
C2    C32   1.434423 S    
C17   C43   1.488333 S    
C48   O24   1.398287 S    
C37   C39   1.600780 S    
O1    Zn1   1.832472 S    
C21   C29   1.408636 A    
C19   C29   1.409449 A    
C47   O22   1.398286 S    
Zn1   N4    1.816807 S    
C9    C13   1.420766 A    
O6    Zn2   2.010179 S    
C52   O32   1.398302 S    
C8    C10   1.409381 A    
O4    C1    1.222852 A    
C51   O30   1.398297 S    
C5    O9    1.349294 S    
C6    O10   1.349294 S    
C49   O26   1.397955 S    
C45   O17   1.223044 D    
C4    C28   1.468882 S    
C15   C41   1.488913 S    
C26   C52   1.487643 S    
C39   C40   1.322891 T    
C25   C51   1.487547 S    
C5    C11   1.405935 A    
C1    C31   1.434426 S    
C38   C40   1.600792 S    
C8    N2    1.360785 A    
C11   C13   1.417876 A    
C24   C50   1.486459 S    
C21   C25   1.404798 A    
O2    Zn2   1.832471 S    
O7    C4    1.221849 A    
C12   C18   1.419977 A    
C22   C30   1.408699 A    
O8    C3    1.223608 A    
C47   O21   1.223032 D    
O5    Zn1   2.010182 S    
Zn2   N3    1.816807 S    
C44   O16   1.221357 D    
C43   H3    1.085243 S    
C10   C14   1.420761 A    
O26   H9    1.013824 S    
C18   C44   1.488325 S    
C16   C42   1.488910 S    
