data_mof_unit_19277.cif
_audit_creation_date              2012-12-10T17:22:42-0500
_audit_creation_method            fapswitch 2.2
_symmetry_space_group_name_H-M    P1
_symmetry_Int_Tables_number       1
_space_group_crystal_system       triclinic
_cell_length_a                    10.664957
_cell_length_b                    10.768625
_cell_length_c                    9.670103
_cell_angle_alpha                 89.366987
_cell_angle_beta                  91.107979
_cell_angle_gamma                 93.7548
_cell_volume                      1107.93718429

loop_
_atom_site_label
_atom_site_type_symbol
_atom_type_description
_atom_site_fract_x
_atom_site_fract_y
_atom_site_fract_z
_atom_type_partial_charge
C1    C     C_R   0.492891 0.262630 0.500640 0.843583
C2    C     C_3   0.972823 0.613095 0.530774 0.042652
C3    C     C_3   0.048503 0.580575 0.403715 -0.165372
C4    C     C_3   0.123637 0.495097 0.497112 -0.031687
C5    C     C_R   0.306778 0.115616 0.667768 -0.144391
C6    C     C_R   0.222975 0.044579 0.750073 -0.118714
C7    C     C_R   0.222931 0.915482 0.750356 -0.133144
C8    C     C_R   0.305529 0.856447 0.666973 -0.195677
C9    C     C_R   0.393501 0.926537 0.585008 0.121444
C10   C     C_R   0.394710 0.058231 0.586040 0.126499
C11   C     C_R   0.481366 0.127956 0.501415 -0.062684
C12   C     C_R   0.259950 0.496784 0.498933 0.829142
C13   C     C_R   0.558898 0.068425 0.412663 -0.145625
C14   C     C_R   0.556611 0.940685 0.411389 -0.139207
C15   C     C_R   0.478386 0.869370 0.498753 -0.056849
C16   C     C_R   0.641820 0.688096 0.144750 -0.220273
C17   C     C_R   0.682968 0.798788 0.077700 -0.106202
C18   C     C_R   0.646569 0.814572 0.939151 -0.092682
C19   C     C_R   0.622525 0.705260 0.863144 0.008744
C20   C     C_R   0.561531 0.598636 0.927257 0.152882
C21   C     C_R   0.565171 0.595328 0.075732 0.203063
C22   C     C_R   0.437534 0.408977 0.073289 -0.049110
C23   C     C_R   0.491498 0.736279 0.499496 0.758800
C24   C     C_R   0.438896 0.408169 0.925980 -0.046647
C25   C     C_R   0.740537 0.502686 0.500687 0.819097
C26   C     C_3   0.030385 0.384246 0.465886 -0.004391
C27   C     C_3   0.952702 0.468947 0.372655 -0.216597
C28   C     C_3   0.877828 0.502862 0.500771 -0.028940
C29   C     C_3   0.954621 0.417396 0.592207 -0.027059
C30   C     C_3   0.049437 0.528554 0.625012 -0.304212
Cu1   Cu    Cu3+1 0.499990 0.499990 0.640660 0.965357
Cu2   Cu    Cu3+1 0.500010 0.500010 0.359340 0.960487
H1    H     H_    0.912120 0.444472 0.269131 0.168709
H2    H     H_    0.157107 0.860705 0.813785 0.145853
H3    H     H_    0.297503 0.755980 0.665876 0.153229
H4    H     H_    0.619457 0.896588 0.345359 0.133217
H5    H     H_    0.385774 0.334236 0.127399 0.157494
H6    H     H_    0.673935 0.675975 0.248984 0.200014
H7    H     H_    0.388462 0.332720 0.871541 0.128229
H8    H     H_    0.089751 0.553225 0.728636 0.165647
H9    H     H_    0.089106 0.647789 0.326173 0.162757
H10   H     H_    0.624163 0.121199 0.346362 0.159149
H11   H     H_    0.299311 0.215131 0.666831 0.147856
H12   H     H_    0.156580 0.089908 0.812478 0.150977
N1    N     N_R   0.501210 0.501210 0.147910 -0.195405
N2    N     N_R   0.501250 0.501290 0.852040 -0.196576
O1    O     O_R   0.499990 0.319640 0.618810 -0.575669
O2    O     O_R   0.500000 0.319660 0.381240 -0.577285
O3    O     O_R   0.316850 0.499960 0.618770 -0.613544
O4    O     O_R   0.316860 0.499980 0.381190 -0.560932
O5    O     O_R   0.500000 0.680340 0.618760 -0.609639
O6    O     O_R   0.500010 0.680360 0.381190 -0.601129
O7    O     O_R   0.683140 0.500020 0.618810 -0.554157
O8    O     O_R   0.683150 0.500040 0.381230 -0.605378
C31   C     C_2   0.778289 0.884536 0.148223 0.329004
H13   H     H_    0.805816 0.866139 0.254140 0.147361
O9    O     O_2   0.832493 0.972085 0.088216 -0.551647
C32   C     C_2   0.657074 0.938639 0.869300 0.441672
H14   H     H_    0.661529 0.022981 0.929892 0.129377
O10   O     O_2   0.656934 0.948466 0.743505 -0.548726
C33   C     C_2   0.728648 0.688125 0.774576 0.481353
H15   H     H_    0.733783 0.735325 0.675446 0.106764
O11   O     O_2   0.814558 0.626676 0.815645 -0.598502
C34   C     C_2   0.060301 0.255478 0.426521 0.354184
H16   H     H_    0.984908 0.183553 0.414791 0.130523
O12   O     O_2   0.168465 0.231033 0.406416 -0.570925
C35   C     C_2   0.902643 0.326587 0.698159 0.398582
H17   H     H_    0.931637 0.336359 0.805804 0.088871
O13   O     O_2   0.827559 0.241612 0.663879 -0.527756
C36   C     C_2   0.951620 0.744997 0.564032 0.337858
H18   H     H_    0.982214 0.782762 0.663377 0.107063
O14   O     O_2   0.899315 0.810513 0.480416 -0.580763

loop_
_geom_bond_atom_site_label_1
_geom_bond_atom_site_label_2
_ccdc_geom_bond_type
C8    C9    A    
C31   H13   S    
C16   C21   A    
C2    C28   S    
Cu2   N1    S    
C19   C20   A    
C1    C11   S    
C12   O3    A    
C7    C8    A    
C27   H1    S    
C25   C28   S    
C26   C27   S    
C28   C29   S    
C25   O7    A    
C14   H4    S    
C5    C6    A    
C32   O10   D    
C24   H7    S    
C18   C19   A    
C33   O11   D    
C26   C34   S    
Cu2   O6    S    
C29   C35   S    
C18   C32   S    
C16   C17   A    
Cu1   N2    S    
C36   H18   S    
C4    C12   S    
C9    C10   A    
C17   C31   S    
C15   C23   S    
C5    H11   S    
Cu1   O1    S    
C13   C14   A    
Cu2   O2    S    
Cu1   O3    S    
Cu2   O8    S    
C13   H10   S    
C21   N1    A    
C36   O14   D    
C35   H17   S    
C25   O8    A    
C1    O1    A    
C32   H14   S    
C22   H5    S    
C35   O13   D    
C8    H3    S    
C34   O12   D    
C29   C30   S    
C23   O5    A    
Cu1   Cu2   S    
C17   C18   A    
C30   H8    S    
Cu1   O7    S    
Cu2   O4    S    
C31   O9    D    
C7    H2    S    
C22   C24   A    
C3    C4    S    
C3    H9    S    
Cu1   O5    S    
C4    C26   S    
C1    O2    A    
C6    C7    A    
C2    C30   S    
C24   N2    A    
C34   H16   S    
C3    C27   S    
C2    C3    S    
C9    C15   A    
C5    C10   A    
C11   C13   A    
C23   O6    A    
C19   C33   S    
C33   H15   S    
C20   N2    A    
C10   C11   A    
C22   N1    A    
C20   C21   A    
C26   C29   S    
C27   C28   S    
C14   C15   A    
C6    H12   S    
C2    C36   S    
C12   O4    A    
C4    C30   S    
C16   H6    S    
