data_mof_unit_55060.cif
_audit_creation_date              2012-12-10T16:44:16-0500
_audit_creation_method            fapswitch 2.2
_symmetry_space_group_name_H-M    P1
_symmetry_Int_Tables_number       1
_space_group_crystal_system       triclinic
_cell_length_a                    7.455331
_cell_length_b                    8.765545
_cell_length_c                    13.395045
_cell_angle_alpha                 94.683212
_cell_angle_beta                  77.65444
_cell_angle_gamma                 103.0054
_cell_volume                      832.672540965

loop_
_atom_site_label
_atom_site_type_symbol
_atom_type_description
_atom_site_fract_x
_atom_site_fract_y
_atom_site_fract_z
_atom_type_partial_charge
C1    C     C_R   0.543220 0.799301 0.504948 0.830121
C2    C     C_R   0.416974 0.509337 0.975830 0.079668
C3    C     C_R   0.465254 0.554844 0.872644 0.078542
C4    C     C_R   0.557480 0.546275 0.036446 0.073383
C5    C     C_R   0.736031 0.641044 0.996800 0.148556
C6    C     C_R   0.771984 0.700335 0.899576 -0.227658
C7    C     C_R   0.638103 0.659601 0.838840 -0.192131
C8    C     C_R   0.526413 0.491352 0.135358 -0.238700
C9    C     C_R   0.837658 0.628345 0.155743 -0.200451
C10   C     C_R   0.337995 0.495798 0.806419 -0.100462
C11   C     C_2   0.556247 0.964702 0.519724 -0.249789
C12   C     C_R   0.400018 0.498081 0.694357 0.785759
C13   C     C_2   0.443302 0.035204 0.480791 -0.251751
C14   C     C_R   0.456642 0.200681 0.495280 0.834359
C15   C     C_R   0.601054 0.511333 0.306102 0.791111
C16   C     C_R   0.875418 0.678926 0.055990 -0.179331
C17   C     C_R   0.660888 0.537927 0.196454 -0.054333
C18   C     C_R   0.154183 0.417489 0.847337 -0.174493
C19   C     C_R   0.099808 0.388473 0.950893 -0.137386
C20   C     C_R   0.229630 0.430454 0.014361 -0.186574
Cu1   Cu    Cu3+1 0.321300 0.483160 0.488710 0.979515
Cu2   Cu    Cu3+1 0.678700 0.516840 0.511290 0.966544
H1    H     H_    0.943115 0.665607 0.202238 0.172221
H2    H     H_    0.989774 0.382918 0.419866 0.221254
H3    H     H_    0.904460 0.778745 0.870290 0.168022
H4    H     H_    0.011954 0.751123 0.025970 0.148662
H5    H     H_    0.396643 0.413926 0.167986 0.145787
H6    H     H_    0.053350 0.374442 0.798694 0.172983
H7    H     H_    0.177205 0.403049 0.093648 0.132806
H8    H     H_    0.957116 0.328898 0.981810 0.154874
H9    H     H_    0.670470 0.714836 0.766049 0.170050
N1    N     N_2   0.947230 0.542220 0.528320 -0.189568
N2    N     N_2   0.052770 0.457780 0.471680 -0.224936
O1    O     O_R   0.383920 0.714220 0.492660 -0.578559
O2    O     O_R   0.685730 0.742660 0.511730 -0.591846
O3    O     O_R   0.275440 0.478800 0.636790 -0.584414
O4    O     O_R   0.577250 0.507240 0.655860 -0.594242
O5    O     O_R   0.314270 0.257340 0.488270 -0.572948
O6    O     O_R   0.616080 0.285780 0.507340 -0.582872
O7    O     O_R   0.422750 0.492760 0.344140 -0.582550
O8    O     O_R   0.724560 0.521200 0.363210 -0.594013
C21   C     C_1   0.318264 0.955456 0.413884 0.298433
N3    N     N_1   0.218744 0.892517 0.360686 -0.284891
C22   C     C_1   0.019587 0.645250 0.601119 0.580827
N4    N     N_1   0.077800 0.732165 0.662242 -0.382143
C23   C     C_1   0.680911 0.044302 0.586854 0.298689
N5    N     N_1   0.780127 0.107024 0.640265 -0.276124

loop_
_geom_bond_atom_site_label_1
_geom_bond_atom_site_label_2
_ccdc_geom_bond_type
C2    C4    A    
C6    C7    A    
Cu2   O4    S    
H2    N2    S    
C14   O5    A    
Cu2   N1    S    
C8    C17   A    
C1    C11   S    
C4    C8    A    
N1    N2    D    
C12   O3    A    
C2    C3    A    
N1    C22   S    
C18   H6    S    
Cu1   O3    S    
C13   C14   S    
Cu2   O2    S    
C11   C13   D    
C15   O8    A    
Cu1   O7    S    
C10   C12   S    
C10   C18   A    
Cu2   O6    S    
C9    C17   A    
C13   C21   S    
C9    C16   A    
C1    O1    A    
C3    C7    A    
C20   H7    S    
C16   H4    S    
C5    C6    A    
C15   O7    A    
C6    H3    S    
Cu1   N2    S    
C21   N3    T    
C2    C20   A    
Cu2   O8    S    
C7    H9    S    
C22   N4    T    
C1    O2    A    
C15   C17   S    
C18   C19   A    
C12   O4    A    
C3    C10   A    
C8    H5    S    
C23   N5    T    
C9    H1    S    
C11   C23   S    
Cu1   O1    S    
C14   O6    A    
Cu1   Cu2   S    
C19   H8    S    
Cu1   O5    S    
C19   C20   A    
C4    C5    A    
C5    C16   A    
