data_mof_unit_46691.cif
_audit_creation_date              2012-12-10T16:50:11-0500
_audit_creation_method            fapswitch 2.2
_symmetry_space_group_name_H-M    P1
_symmetry_Int_Tables_number       1
_space_group_crystal_system       triclinic
_cell_length_a                    7.765743
_cell_length_b                    8.595127
_cell_length_c                    10.636744
_cell_angle_alpha                 90.135107
_cell_angle_beta                  86.52538
_cell_angle_gamma                 93.399323
_cell_volume                      707.424023059

loop_
_atom_site_label
_atom_site_type_symbol
_atom_type_description
_atom_site_fract_x
_atom_site_fract_y
_atom_site_fract_z
_atom_type_partial_charge
C1    C     C_R   0.545732 0.794367 0.492151 0.857205
C2    C     C_R   0.454858 0.205441 0.500689 0.961475
C3    C     C_R   0.498197 0.510410 0.260647 0.957599
C4    C     C_R   0.431597 0.786790 0.863605 -0.161396
C5    C     C_R   0.377675 0.919500 0.924528 -0.177101
C6    C     C_R   0.353604 0.920526 0.054418 -0.165166
C7    C     C_R   0.387462 0.789401 0.126203 0.458791
C8    C     C_R   0.446105 0.651962 0.064596 0.001275
C9    C     C_R   0.462815 0.651487 0.932204 0.033786
C10   C     C_R   0.512712 0.515339 0.870323 -0.154943
C11   C     C_R   0.556346 0.384254 0.933298 -0.205023
C12   C     C_R   0.543328 0.380655 0.061879 0.411606
C13   C     C_R   0.490458 0.514411 0.127858 -0.225166
C14   C     C_2   0.569311 0.956777 0.470926 0.300161
C15   C     C_2   0.434629 0.042033 0.505028 -0.468922
C16   C     C_R   0.503535 0.501338 0.739083 0.873645
H1    H     H_    0.593312 0.280974 0.881840 0.166498
H2    H     H_    0.797061 0.937798 0.382896 0.345746
H3    H     H_    0.986224 0.616754 0.593719 0.194392
H4    H     H_    0.450155 0.791884 0.762144 0.137851
H5    H     H_    0.353546 0.021877 0.870646 0.153178
H6    H     H_    0.308559 0.024841 0.099663 0.149431
H7    H     H_    0.311249 0.991964 0.544619 0.148231
H8    H     H_    0.013784 0.383295 0.406240 0.211425
H9    H     H_    0.310005 0.894755 0.280153 0.324959
H10   H     H_    0.523605 0.235645 0.204207 0.327275
N1    N     N_2   0.950330 0.457950 0.466250 -0.155480
N2    N     N_2   0.049670 0.542050 0.533750 -0.166841
O1    O     O_R   0.389250 0.738570 0.508280 -0.609672
O2    O     O_3   0.582454 0.243803 0.119141 -0.745776
O3    O     O_3   0.720614 0.021227 0.410438 -0.725093
O4    O     O_R   0.678390 0.711630 0.486650 -0.646363
O5    O     O_R   0.355400 0.513470 0.694050 -0.614240
O6    O     O_R   0.644540 0.486530 0.672420 -0.628149
O7    O     O_R   0.321610 0.288370 0.513350 -0.643687
O8    O     O_R   0.610750 0.261430 0.491720 -0.532933
O9    O     O_R   0.355460 0.513470 0.327580 -0.582937
O10   O     O_R   0.644600 0.486530 0.305950 -0.602275
O11   O     O_3   0.360166 0.795006 0.255019 -0.770776
Zn1   Zn    Zn3+2 0.306930 0.517990 0.514440 0.971394
Zn2   Zn    Zn3+2 0.693070 0.482010 0.485560 0.996019

loop_
_geom_bond_atom_site_label_1
_geom_bond_atom_site_label_2
_ccdc_geom_bond_type
C2    O7    A    
C8    C9    A    
O4    Zn2   S    
C6    C7    A    
H3    N2    S    
C16   O5    A    
C9    C10   A    
N1    Zn2   S    
C3    C13   S    
H8    N1    S    
C14   O3    S    
C11   C12   A    
C16   O6    A    
C15   H7    S    
O7    Zn1   S    
C7    C8    A    
C10   C16   S    
H9    O11   S    
C2    C15   S    
O8    Zn2   S    
C8    C13   A    
O6    Zn2   S    
O1    Zn1   S    
C1    O1    A    
H2    O3    S    
H10   O2    S    
O9    Zn1   S    
C5    C6    A    
O5    Zn1   S    
C10   C11   A    
N2    Zn1   S    
C4    H4    S    
C5    H5    S    
C12   C13   A    
C3    O9    A    
O10   Zn2   S    
C2    O8    A    
N1    N2    D    
C7    O11   S    
C14   C15   D    
C11   H1    S    
C1    C14   S    
C12   O2    S    
C4    C9    A    
C1    O4    A    
C3    O10   A    
C4    C5    A    
C6    H6    S    
