data_mof_unit_6264.cif
_audit_creation_date              2012-10-26T20:42:32-0400
_audit_creation_method            fapswitch 2.2
_symmetry_space_group_name_H-M    P1
_symmetry_Int_Tables_number       1
_space_group_crystal_system       triclinic
_cell_length_a                    10.910192
_cell_length_b                    9.537062
_cell_length_c                    10.931107
_cell_angle_alpha                 89.871664
_cell_angle_beta                  91.377834
_cell_angle_gamma                 89.471363
_cell_volume                      1137.0138519

loop_
_atom_site_label
_atom_site_type_symbol
_atom_type_description
_atom_site_fract_x
_atom_site_fract_y
_atom_site_fract_z
_atom_type_partial_charge
C1    C     C_R   0.262168 0.500942 0.505998 0.588628
C2    C     C_R   0.939019 0.374034 0.492304 0.218140
C3    C     C_R   0.871624 0.500348 0.481959 -0.020675
C4    C     C_R   0.127617 0.504116 0.509475 -0.019982
C5    C     C_R   0.934189 0.629514 0.473988 0.083036
C6    C     C_R   0.062123 0.631662 0.489234 0.082763
C7    C     C_R   0.425876 0.074799 0.419123 0.243121
C8    C     C_R   0.574083 0.072330 0.581241 0.254078
C9    C     C_R   0.427920 0.925629 0.418942 0.008953
C10   C     C_R   0.571890 0.923227 0.581064 0.023078
C11   C     C_3   0.840048 0.780828 0.319615 -0.257860
C12   C     C_R   0.737465 0.499602 0.491273 0.582119
C13   C     C_3   0.145210 0.827761 0.603108 -0.248180
C14   C     C_3   0.229428 0.097589 0.306173 -0.284133
C15   C     C_3   0.763237 0.079792 0.709477 -0.278425
C16   C     C_R   0.498360 0.500222 0.265219 0.543240
C17   C     C_R   0.501655 0.499962 0.734768 0.549527
C18   C     C_2   0.494411 0.385704 0.933368 -0.153551
C19   C     C_2   0.504011 0.385695 0.067080 -0.155115
C20   C     C_2   0.509418 0.502065 0.866919 -0.112534
C21   C     C_2   0.490774 0.502773 0.133037 -0.116058
C22   C     C_R   0.063229 0.377733 0.521545 0.214382
Cl1   Cl    Cl    0.130887 0.225213 0.588147 -0.618945
Cl2   Cl    Cl    0.875928 0.209266 0.453357 -0.610676
Cu1   Cu    Cu3+1 0.500000 0.640660 0.500000 0.945087
Cu2   Cu    Cu3+1 0.500000 0.359340 0.500000 1.065862
H1    H     H_    0.476672 0.285909 0.889234 0.140481
H2    H     H_    0.789369 0.690463 0.279986 0.156801
H3    H     H_    0.094032 0.831134 0.418071 0.253383
H4    H     H_    0.057234 0.864904 0.641072 0.148046
H5    H     H_    0.206830 0.918697 0.592800 0.188493
H6    H     H_    0.189828 0.752874 0.668630 0.159987
H7    H     H_    0.397837 0.167249 0.251533 0.238785
H8    H     H_    0.231821 0.010357 0.239050 0.094002
H9    H     H_    0.171874 0.183843 0.266790 0.182214
H10   H     H_    0.186752 0.060401 0.391068 0.211091
H11   H     H_    0.597701 0.172961 0.744917 0.243029
H12   H     H_    0.520149 0.285254 0.111677 0.138935
H13   H     H_    0.748444 0.003195 0.784318 0.088482
H14   H     H_    0.825668 0.162526 0.744480 0.195538
H15   H     H_    0.807966 0.025190 0.632719 0.199391
H16   H     H_    0.531252 0.601989 0.908567 0.096731
H17   H     H_    0.470350 0.603520 0.091009 0.098275
H18   H     H_    0.372035 0.868140 0.353670 0.131817
H19   H     H_    0.627009 0.863476 0.646419 0.126740
H20   H     H_    0.899723 0.845033 0.492636 0.271375
H21   H     H_    0.925530 0.796791 0.268357 0.127302
H22   H     H_    0.781165 0.875968 0.309410 0.171012
N1    N     N_R   0.500000 0.852070 0.500000 -0.267814
N2    N     N_R   0.500000 0.147940 0.500000 -0.180432
N3    N     N_2   0.868598 0.756890 0.447949 -0.484019
N4    N     N_2   0.124650 0.762282 0.485050 -0.498907
N5    N     N_2   0.351997 0.148966 0.331080 -0.459784
N6    N     N_2   0.647574 0.143665 0.670487 -0.452205
O1    O     O_R   0.319640 0.618740 0.499990 -0.484580
O2    O     O_R   0.680360 0.618740 0.500010 -0.482798
O3    O     O_R   0.319620 0.381170 0.499990 -0.423158
O4    O     O_R   0.680380 0.381170 0.500010 -0.422871
O5    O     O_R   0.500000 0.618750 0.321940 -0.519755
O6    O     O_R   0.500000 0.618750 0.678060 -0.520902
O7    O     O_R   0.499970 0.381180 0.321940 -0.494458
O8    O     O_R   0.500030 0.381180 0.678060 -0.496105

loop_
_geom_bond_atom_site_label_1
_geom_bond_atom_site_label_2
_ccdc_geom_bond_type
C14   H8    S    
C20   H16   S    
C2    C22   A    
C16   C21   S    
C19   H12   S    
C1    O3    A    
C17   O8    A    
C13   N4    S    
C4    C22   A    
C13   H6    S    
C11   H21   S    
Cu1   O2    S    
C3    C5    A    
C1    C4    S    
C12   O4    A    
C17   C20   S    
C10   H19   S    
C2    C3    A    
Cu2   O8    S    
C2    Cl2   S    
Cu2   O4    S    
C15   H13   S    
C11   H22   S    
C12   O2    A    
C11   H2    S    
H11   N6    S    
C8    C10   A    
C19   C21   D    
Cu2   O7    S    
C1    O1    A    
C18   C20   D    
Cu2   N2    S    
H7    N5    S    
C5    C6    A    
H3    N4    S    
Cu2   O3    S    
Cu1   N1    S    
C15   H14   S    
C11   N3    S    
C16   O7    A    
C7    N5    S    
C17   O6    A    
C15   N6    S    
C8    N2    A    
C13   H4    S    
C14   N5    S    
C9    N1    A    
C15   H15   S    
C4    C6    A    
C18   C19   S    
C8    N6    S    
C14   H9    S    
C7    C9    A    
C22   Cl1   S    
C5    N3    S    
C14   H10   S    
C3    C12   S    
Cu1   O5    S    
C6    N4    S    
Cu1   Cu2   S    
C21   H17   S    
C10   N1    A    
H20   N3    S    
C13   H5    S    
Cu1   O6    S    
C18   H1    S    
Cu1   O1    S    
C7    N2    A    
C9    H18   S    
C16   O5    A    
