data_mof_unit_58363.cif
_audit_creation_date              2012-12-10T18:47:05-0500
_audit_creation_method            fapswitch 2.2
_symmetry_space_group_name_H-M    P1
_symmetry_Int_Tables_number       1
_space_group_crystal_system       triclinic
_cell_length_a                    10.767471
_cell_length_b                    9.838199
_cell_length_c                    14.907272
_cell_angle_alpha                 90.538522
_cell_angle_beta                  89.361605
_cell_angle_gamma                 89.528728
_cell_volume                      1578.94236177

loop_
_atom_site_label
_atom_site_type_symbol
_atom_type_description
_atom_site_fract_x
_atom_site_fract_y
_atom_site_fract_z
_atom_type_partial_charge
C1    C     C_R   0.259786 0.501028 0.497163 1.065266
C2    C     C_R   0.127715 0.503490 0.486055 -0.377360
C3    C     C_R   0.516663 0.072728 0.577709 -0.024573
C4    C     C_R   0.483443 0.927226 0.422257 0.028216
C5    C     C_R   0.483923 0.070902 0.422209 0.070542
C6    C     C_R   0.516864 0.929045 0.577688 -0.024746
C7    C     C_R   0.501160 0.499614 0.327093 1.073001
C8    C     C_R   0.500172 0.500556 0.673075 1.046559
C9    C     C_R   0.608942 0.458685 0.811861 0.591533
C10   C     C_R   0.401119 0.559266 0.188957 0.616033
C11   C     C_R   0.502784 0.503082 0.768631 -0.372836
C12   C     C_R   0.740371 0.498888 0.495416 1.047079
C13   C     C_R   0.501703 0.500803 0.231815 -0.384983
C14   C     C_R   0.401263 0.556408 0.814914 0.606537
C15   C     C_R   0.606600 0.455158 0.185933 0.609401
C16   C     C_R   0.403656 0.566375 0.907821 -0.179298
C17   C     C_R   0.612102 0.466183 0.093064 -0.172110
C18   C     C_R   0.510406 0.520850 0.953589 -0.134572
C19   C     C_R   0.508593 0.520879 0.047342 -0.140880
C20   C     C_R   0.617175 0.471597 0.905360 -0.169680
C21   C     C_R   0.402350 0.572050 0.095496 -0.189190
C22   C     C_R   0.301560 0.622054 0.954933 0.633838
C23   C     C_R   0.301552 0.631383 0.048366 0.304257
C24   C     C_R   0.719930 0.426014 0.045822 0.613303
C25   C     C_R   0.726298 0.435205 0.952518 0.249440
C26   C     C_R   0.067624 0.382661 0.460330 0.299808
C27   C     C_R   0.934992 0.621677 0.472835 0.303024
C28   C     C_R   0.942543 0.373203 0.481359 0.309762
C29   C     C_R   0.057881 0.625097 0.498159 0.305417
C30   C     C_R   0.873065 0.496763 0.482926 -0.373942
F1    F     F_    0.699314 0.397794 0.761273 -0.578801
F2    F     F_    0.301553 0.595711 0.240555 -0.562622
F3    F     F_    0.298666 0.592679 0.768524 -0.553941
F4    F     F_    0.703390 0.403428 0.233089 -0.555339
F5    F     F_    0.201174 0.667593 0.909375 -0.521167
F6    F     F_    0.819703 0.377625 0.090887 -0.521721
H1    H     H_    0.530305 0.127258 0.640031 0.162328
H2    H     H_    0.246572 0.824261 0.654269 0.388216
H3    H     H_    0.469633 0.872675 0.359957 0.153387
H4    H     H_    0.470506 0.124087 0.359911 0.140555
H5    H     H_    0.530636 0.875836 0.639934 0.150096
H6    H     H_    0.020602 0.848699 0.064492 0.397517
H7    H     H_    0.996012 0.516966 0.988257 0.400003
H8    H     H_    0.274925 0.262746 0.279662 0.374779
H9    H     H_    0.730168 0.787685 0.312610 0.372825
H10   H     H_    0.782119 0.132150 0.627558 0.386775
N1    N     N_R   0.500000 0.857200 0.500000 -0.089127
N2    N     N_R   0.500000 0.142800 0.500000 -0.087130
O1    O     O_R   0.316770 0.614620 0.499990 -0.561967
O2    O     O_2   0.227013 0.821168 0.169307 -0.208803
O3    O     O_3   0.090231 0.809482 0.028490 -0.453180
O4    O     O_2   0.877327 0.269249 0.856751 -0.145423
O5    O     O_2   0.894606 0.513064 0.827682 -0.184289
O6    O     O_3   0.991121 0.419148 0.972504 -0.413864
O7    O     O_2   0.207046 0.154932 0.439288 -0.238730
O8    O     O_2   0.039612 0.190227 0.331917 -0.146801
O9    O     O_3   0.236896 0.337059 0.316177 -0.517352
O10   O     O_2   0.802237 0.855646 0.477546 -0.238879
O11   O     O_2   0.972862 0.840362 0.367788 -0.139067
O12   O     O_R   0.683230 0.385380 0.500010 -0.551336
O13   O     O_3   0.772812 0.705317 0.334985 -0.526090
O14   O     O_2   0.802577 0.155371 0.441706 -0.215315
O15   O     O_2   0.989461 0.113289 0.529503 -0.152036
O16   O     O_3   0.802911 0.226469 0.610664 -0.474352
O17   O     O_2   0.177948 0.862951 0.486261 -0.207431
O18   O     O_2   0.003559 0.852456 0.593306 -0.185997
O19   O     O_3   0.208716 0.736673 0.636662 -0.453710
O20   O     O_R   0.683230 0.614620 0.500010 -0.584375
O21   O     O_R   0.316770 0.385380 0.499990 -0.587322
O22   O     O_R   0.499980 0.614680 0.367850 -0.623989
O23   O     O_R   0.500020 0.385320 0.632150 -0.613295
O24   O     O_R   0.500020 0.614680 0.632150 -0.629710
O25   O     O_R   0.499980 0.385320 0.367850 -0.619112
O26   O     O_2   0.093412 0.622292 0.149373 -0.168949
S1    S     S_3+6 0.176135 0.721803 0.102112 0.154173
S2    S     S_3+6 0.873911 0.408457 0.899139 0.195074
S3    S     S_3+6 0.137625 0.259623 0.386408 0.153201
S4    S     S_3+6 0.871130 0.762434 0.413498 0.157977
S5    S     S_3+6 0.884442 0.211122 0.514092 0.162200
S6    S     S_3+6 0.111706 0.775134 0.553110 0.157736
Zn1   Zn    Zn3+2 0.500000 0.653120 0.500000 1.079954
Zn2   Zn    Zn3+2 0.500000 0.346880 0.500000 1.095584

loop_
_geom_bond_atom_site_label_1
_geom_bond_atom_site_label_2
_ccdc_geom_bond_type
C27   C29   A    
C3    C6    A    
C14   F3    S    
C7    O25   A    
O15   S5    D    
C22   F5    S    
C12   O20   A    
C24   F6    S    
C2    C29   A    
O20   Zn1   S    
C19   C21   A    
O3    S1    S    
C18   C19   A    
O7    S3    D    
C11   C14   A    
C20   C25   A    
C3    N2    A    
C1    C2    S    
O1    Zn1   S    
O22   Zn1   S    
C28   S5    S    
O21   Zn2   S    
H7    O6    S    
O12   Zn2   S    
C6    H5    S    
O13   S4    S    
C15   F4    S    
O24   Zn1   S    
H6    O3    S    
O23   Zn2   S    
C27   S4    S    
C10   C21   A    
O17   S6    D    
C27   C30   A    
C7    O22   A    
O11   S4    D    
C21   C23   A    
C5    N2    A    
C8    O24   A    
C26   S3    S    
C6    N1    A    
C17   C24   A    
O9    S3    S    
O14   S5    D    
C24   C25   A    
O26   S1    D    
C9    F1    S    
C1    O21   A    
O8    S3    D    
H10   O16   S    
C9    C20   A    
C4    H3    S    
H8    O9    S    
C2    C26   A    
C9    C11   A    
O6    S2    S    
C13   C15   A    
O16   S5    S    
C14   C16   A    
O5    S2    D    
O25   Zn2   S    
C15   C17   A    
C8    O23   A    
C16   C22   A    
C12   C30   S    
O19   S6    S    
C23   S1    S    
C4    C5    A    
O4    S2    D    
C10   C13   A    
O18   S6    D    
C26   C28   A    
C25   S2    S    
C28   C30   A    
O2    S1    D    
C29   S6    S    
C8    C11   S    
H9    O13   S    
C17   C19   A    
N2    Zn2   S    
C18   C20   A    
N1    Zn1   S    
O10   S4    D    
C12   O12   A    
C10   F2    S    
C7    C13   S    
H2    O19   S    
C3    H1    S    
C16   C18   A    
C5    H4    S    
C22   C23   A    
C1    O1    A    
C4    N1    A    
