data_mof_unit_51765.cif
_audit_creation_date              2012-12-10T19:04:11-0500
_audit_creation_method            fapswitch 2.2
_symmetry_space_group_name_H-M    P1
_symmetry_Int_Tables_number       1
_space_group_crystal_system       triclinic
_cell_length_a                    10.625691
_cell_length_b                    10.816909
_cell_length_c                    9.5598
_cell_angle_alpha                 90.190005
_cell_angle_beta                  89.631746
_cell_angle_gamma                 90.221739
_cell_volume                      1098.73912556

loop_
_atom_site_label
_atom_site_type_symbol
_atom_type_description
_atom_site_fract_x
_atom_site_fract_y
_atom_site_fract_z
_atom_type_partial_charge
C1    C     C_R   0.498295 0.262447 0.499628 0.793783
C2    C     C_3   0.960751 0.489694 0.367551 -0.176593
C3    C     C_3   0.043222 0.393202 0.442794 -0.179054
C4    C     C_3   0.122712 0.499709 0.501746 -0.002066
C5    C     C_R   0.444322 0.064092 0.613077 0.072555
C6    C     C_R   0.487853 0.129365 0.496748 -0.085920
C7    C     C_R   0.514124 0.064002 0.372734 -0.222211
C8    C     C_R   0.514706 0.935333 0.373362 -0.208272
C9    C     C_R   0.488010 0.870794 0.497578 -0.110995
C10   C     C_R   0.443567 0.936851 0.613402 0.052116
C11   C     C_3   0.476946 0.931226 0.765083 -0.043620
C12   C     C_R   0.259417 0.500151 0.500505 0.791277
C13   C     C_3   0.478049 0.072540 0.764159 -0.458663
C14   C     C_R   0.609522 0.515445 0.072851 0.261137
C15   C     C_R   0.393918 0.472793 0.074764 -0.083635
C16   C     C_R   0.393914 0.472805 0.926342 -0.096965
C17   C     C_R   0.609510 0.515301 0.925650 0.261997
C18   C     C_3   0.696411 0.623597 0.919258 -0.512297
C19   C     C_3   0.696281 0.624033 0.078132 -0.505466
C20   C     C_R   0.498233 0.737621 0.500004 0.794516
C21   C     C_R   0.740625 0.499190 0.499627 0.782101
C22   C     C_3   0.040069 0.508296 0.633899 -0.153467
C23   C     C_3   0.958654 0.402936 0.573847 0.202949
C24   C     C_3   0.877538 0.498230 0.499166 -0.028266
C25   C     C_3   0.957547 0.604462 0.558044 -0.209570
C26   C     C_3   0.042691 0.596096 0.426366 -0.156061
Cu1   Cu    Cu3+1 0.499990 0.499980 0.640670 0.922770
Cu2   Cu    Cu3+1 0.500010 0.500020 0.359330 0.932521
H1    H     H_    0.401987 0.116489 0.827163 0.198061
H2    H     H_    0.573393 0.112617 0.780532 0.180893
H3    H     H_    0.307358 0.451785 0.129657 0.144999
H4    H     H_    0.789287 0.598955 0.872971 0.193541
H5    H     H_    0.651563 0.706358 0.873332 0.207913
H6    H     H_    0.789276 0.600226 0.122449 0.189275
H7    H     H_    0.651739 0.707107 0.125339 0.203586
H8    H     H_    0.074814 0.515613 0.742914 0.125054
H9    H     H_    0.919473 0.690769 0.604777 0.131439
H10   H     H_    0.927075 0.480693 0.258473 0.132906
H11   H     H_    0.081241 0.306829 0.396161 0.124544
H12   H     H_    0.541492 0.111586 0.277689 0.162388
H13   H     H_    0.543170 0.887118 0.279044 0.161196
N1    N     N_R   0.500800 0.500930 0.147930 -0.183733
N2    N     N_R   0.500800 0.500890 0.852020 -0.183921
O1    O     O_R   0.500000 0.319640 0.618810 -0.578233
O2    O     O_R   0.500010 0.319680 0.381230 -0.585014
O3    O     O_R   0.316850 0.499950 0.618770 -0.596756
O4    O     O_R   0.316860 0.499990 0.381190 -0.590565
O5    O     O_R   0.499990 0.680320 0.618770 -0.588690
O6    O     O_R   0.500000 0.680360 0.381190 -0.578238
O7    O     O_R   0.683140 0.500010 0.618810 -0.588933
O8    O     O_R   0.683150 0.500050 0.381230 -0.582066
C27   C     C_3   0.907406 0.293459 0.657535 -0.414457
C28   C     C_3   0.013804 0.215438 0.716574 -0.858320
H14   H     H_    0.073075 0.177631 0.630520 0.250253
H15   H     H_    0.073492 0.271957 0.787381 0.245611
H16   H     H_    0.973538 0.137075 0.777002 0.240850
H17   H     H_    0.848117 0.328566 0.745060 0.208235
H18   H     H_    0.847833 0.235162 0.588434 0.193818
H19   H     H_    0.571359 0.890384 0.782350 0.155299
H20   H     H_    0.307425 0.451896 0.872282 0.138956
H21   H     H_    0.080520 0.675538 0.365834 0.130711
C29   C     C_3   0.370837 0.873394 0.853764 -0.350685
C30   C     C_3   0.400696 0.880342 0.009340 -0.844405
H22   H     H_    0.490129 0.831680 0.030623 0.244973
H23   H     H_    0.409112 0.978123 0.043962 0.252427
H24   H     H_    0.324182 0.835156 0.070411 0.244917
H25   H     H_    0.279755 0.920518 0.834226 0.201574
H26   H     H_    0.359585 0.774597 0.824085 0.225995

loop_
_geom_bond_atom_site_label_1
_geom_bond_atom_site_label_2
_ccdc_geom_bond_type
Cu1   O5    S    
C4    C26   S    
C23   C24   S    
C17   N2    A    
Cu2   O4    S    
C15   H3    S    
C29   C30   S    
C4    C12   S    
C4    C22   S    
Cu2   O6    S    
C2    H10   S    
C9    C20   S    
C5    C13   S    
C24   C25   S    
C14   C17   A    
Cu1   O7    S    
C29   H26   S    
C7    H12   S    
C11   C29   S    
C30   H23   S    
C17   C18   S    
C30   H24   S    
C3    H11   S    
C5    C10   A    
C2    C26   S    
C20   O5    A    
C28   H14   S    
C8    H13   S    
C11   C13   S    
C16   N2    A    
C1    O2    A    
C23   C27   S    
C20   O6    A    
C27   H18   S    
C29   H25   S    
C12   O4    A    
C11   H19   S    
C14   N1    A    
Cu1   O1    S    
Cu1   O3    S    
Cu2   N1    S    
C21   O7    A    
Cu2   O8    S    
C26   H21   S    
C2    C3    S    
C6    C7    A    
C10   C11   S    
C28   H15   S    
C2    C24   S    
C5    C6    A    
C18   H5    S    
Cu2   O2    S    
C21   C24   S    
C18   H4    S    
C27   H17   S    
C15   C16   A    
Cu1   N2    S    
C13   H2    S    
C21   O8    A    
C22   H8    S    
C27   C28   S    
C12   O3    A    
C18   C19   S    
C9    C10   A    
C28   H16   S    
C13   H1    S    
Cu1   Cu2   S    
C7    C8    A    
C22   C23   S    
C19   H7    S    
C1    O1    A    
C25   H9    S    
C25   C26   S    
C16   H20   S    
C3    C23   S    
C14   C19   S    
C22   C25   S    
C3    C4    S    
C30   H22   S    
C15   N1    A    
C8    C9    A    
C19   H6    S    
C1    C6    S    
