data_mof_unit_51552.cif
_audit_creation_date              2012-12-10T20:26:30-0500
_audit_creation_method            fapswitch 2.2
_symmetry_space_group_name_H-M    P1
_symmetry_Int_Tables_number       1
_space_group_crystal_system       triclinic
_cell_length_a                    10.751452
_cell_length_b                    10.734976
_cell_length_c                    9.889924
_cell_angle_alpha                 88.163715
_cell_angle_beta                  88.676709
_cell_angle_gamma                 91.847838
_cell_volume                      1139.94912746

loop_
_atom_site_label
_atom_site_type_symbol
_atom_type_description
_atom_site_fract_x
_atom_site_fract_y
_atom_site_fract_z
_atom_type_partial_charge
C1    C     C_R   0.496344 0.259384 0.502216 0.927349
C2    C     C_R   0.590075 0.563076 0.067386 -0.086332
C3    C     C_R   0.589838 0.563473 0.923621 -0.108038
C4    C     C_R   0.261913 0.498169 0.501414 0.912325
C5    C     C_R   0.403070 0.444749 0.932915 0.148960
C6    C     C_3   0.368897 0.308062 0.940051 -0.322131
C7    C     C_3   0.358022 0.315622 0.094002 -0.420316
C8    C     C_R   0.508143 0.739562 0.497571 0.873610
C9    C     C_R   0.736650 0.510088 0.497970 0.946822
C10   C     C_2   0.934729 0.513915 0.384394 -0.107594
C11   C     C_2   0.866004 0.541181 0.492289 -0.327230
C12   C     C_R   0.497515 0.125962 0.504301 -0.045686
C13   C     C_2   0.068566 0.521205 0.391822 -0.186710
C14   C     C_2   0.128596 0.485076 0.503748 -0.171812
C15   C     C_R   0.561173 0.060418 0.603932 0.066991
C16   C     C_2   0.255951 0.269834 0.861466 0.988505
C17   C     C_2   0.230121 0.306146 0.162384 1.119022
C18   C     C_2   0.066465 0.422874 0.624850 0.981979
C19   C     C_2   0.407437 0.031934 0.803349 0.952401
C20   C     C_R   0.458732 0.063874 0.389331 -0.136684
C21   C     C_R   0.471094 0.936735 0.382228 -0.183744
C22   C     C_R   0.524780 0.871396 0.489514 -0.068375
C23   C     C_R   0.585024 0.936344 0.590616 0.095539
C24   C     C_3   0.588294 0.911497 0.739985 -0.519209
C25   C     C_3   0.541914 0.042432 0.755066 -0.233854
C26   C     C_R   0.402222 0.447357 0.075877 0.076441
H1    H     H_    0.893839 0.480609 0.292231 0.203322
H2    H     H_    0.523250 0.836201 0.780684 0.232355
H3    H     H_    0.085636 0.185197 0.858199 0.354269
H4    H     H_    0.451223 0.255146 0.908943 0.153221
H5    H     H_    0.157393 0.445603 0.048420 0.301779
H6    H     H_    0.029163 0.427566 0.825300 0.345145
H7    H     H_    0.685326 0.901528 0.774348 0.198768
H8    H     H_    0.226668 0.008834 0.755991 0.358362
H9    H     H_    0.603478 0.103883 0.814684 0.147452
H10   H     H_    0.664276 0.611997 0.117907 0.142081
H11   H     H_    0.663633 0.613108 0.866048 0.145164
H12   H     H_    0.427855 0.257750 0.144556 0.185935
H13   H     H_    0.906287 0.582853 0.580557 0.157063
H14   H     H_    0.118909 0.557947 0.301973 0.198854
H15   H     H_    0.413182 0.111855 0.308106 0.188482
H16   H     H_    0.429964 0.889046 0.298386 0.187711
N1    N     N_R   0.499170 0.499140 0.142800 -0.100891
N2    N     N_R   0.499170 0.499180 0.857150 -0.107204
O1    O     O_R   0.500020 0.316790 0.614690 -0.598899
O2    O     O_R   0.151954 0.209488 0.924566 -0.771548
O3    O     O_2   0.210627 0.229283 0.254562 -0.566555
O4    O     O_R   0.133497 0.383338 0.124279 -0.775231
O5    O     O_2   0.002843 0.327467 0.613120 -0.593519
O6    O     O_R   0.079323 0.475422 0.751497 -0.813334
O7    O     O_2   0.383723 0.019964 0.924680 -0.635421
O8    O     O_R   0.311518 0.023638 0.710476 -0.754858
O9    O     O_R   0.500000 0.316760 0.385350 -0.634476
O10   O     O_R   0.319080 0.500020 0.614640 -0.556283
O11   O     O_R   0.319070 0.499980 0.385300 -0.628872
O12   O     O_R   0.500000 0.683240 0.614650 -0.627150
O13   O     O_R   0.499980 0.683210 0.385310 -0.630551
O14   O     O_R   0.680930 0.500020 0.614700 -0.622456
O15   O     O_R   0.680920 0.499980 0.385360 -0.626681
O16   O     O_2   0.261503 0.280317 0.738409 -0.589225
Zn1   Zn    Zn3+2 0.500010 0.500020 0.653130 0.995556
Zn2   Zn    Zn3+2 0.499990 0.499980 0.346870 0.965407

loop_
_geom_bond_atom_site_label_1
_geom_bond_atom_site_label_2
_ccdc_geom_bond_type
C10   H1    S    
N1    Zn2   S    
C8    C22   S    
C23   C24   S    
C12   C15   A    
C6    C7    S    
O10   Zn1   S    
C8    O13   A    
C2    N1    A    
C24   H2    S    
O9    Zn2   S    
C14   C18   S    
H8    O8    S    
C24   H7    S    
C17   O4    S    
H3    O2    S    
H6    O6    S    
C21   C22   A    
C12   C20   A    
O14   Zn1   S    
C15   C23   A    
C2    C3    A    
C3    H11   S    
O13   Zn2   S    
C13   C14   D    
C20   C21   A    
C11   H13   S    
C8    O12   A    
C9    C11   S    
C1    O1    A    
C1    C12   S    
C7    C26   S    
C25   H9    S    
O1    Zn1   S    
C6    H4    S    
C7    H12   S    
C26   N1    A    
C20   H15   S    
H5    O4    S    
C4    O11   A    
C4    C14   S    
C5    C6    S    
C19   C25   S    
N2    Zn1   S    
C3    N2    A    
C15   C25   S    
C10   C11   D    
C6    C16   S    
C5    C26   A    
O11   Zn2   S    
C19   O7    D    
C24   C25   S    
C18   O6    S    
C9    O14   A    
C16   O16   D    
C2    H10   S    
C1    O9    A    
O12   Zn1   S    
C16   O2    S    
C13   H14   S    
C21   H16   S    
C4    O10   A    
C22   C23   A    
C9    O15   A    
C19   O8    S    
C5    N2    A    
C17   O3    D    
C18   O5    D    
O15   Zn2   S    
C10   C13   S    
C7    C17   S    
