data_mof_unit_7275.cif
_audit_creation_date              2013-03-05T16:36:13-0500
_audit_creation_method            fapswitch 2.2
_symmetry_space_group_name_H-M    P1
_symmetry_Int_Tables_number       1
_space_group_crystal_system       triclinic
_cell_length_a                    12.878497
_cell_length_b                    19.13814
_cell_length_c                    18.399088
_cell_angle_alpha                 90.141034
_cell_angle_beta                  98.727855
_cell_angle_gamma                 89.657315
_cell_volume                      4482.23401529

loop_
_atom_site_label
_atom_site_type_symbol
_atom_site_description
_atom_site_fract_x
_atom_site_fract_y
_atom_site_fract_z
_atom_type_partial_charge
O1    O     O_R   0.500000 0.398180 0.560840 -0.617264
O2    O     O_R   0.500000 0.601820 0.439160 -0.610360
O3    O     O_R   0.499960 0.398180 0.439210 -0.628057
O4    O     O_R   0.500040 0.601820 0.560790 -0.630063
C1    C     C_R   0.497834 0.365723 0.499776 0.866814
C2    C     C_R   0.504551 0.635104 0.500859 0.859288
O5    O     O_R   0.346380 0.499990 0.550760 -0.625881
O6    O     O_R   0.653620 0.500010 0.449240 -0.632125
O7    O     O_R   0.346330 0.499980 0.429130 -0.609523
O8    O     O_R   0.653670 0.500020 0.570870 -0.604979
C3    C     C_R   0.297135 0.499618 0.484362 0.902816
C4    C     C_R   0.702857 0.497517 0.515399 0.890867
Zn1   Zn    Zn3+2 0.500030 0.500000 0.581210 0.952294
Zn2   Zn    Zn3+2 0.499970 0.500000 0.418790 0.953536
C5    C     C_R   0.816172 0.488258 0.525365 -0.141735
C6    C     C_R   0.183762 0.493476 0.472038 -0.134120
C7    C     C_R   0.011420 0.504089 0.398092 0.055906
C8    C     C_R   0.984647 0.448874 0.591159 0.060761
C9    C     C_R   0.121247 0.509553 0.404034 -0.064995
C10   C     C_R   0.876082 0.461039 0.589936 -0.058618
C11   C     C_R   0.138468 0.468534 0.530882 -0.271893
C12   C     C_R   0.862373 0.501424 0.463465 -0.298561
C13   C     C_R   0.030640 0.468192 0.528513 0.097627
C14   C     C_R   0.967679 0.490337 0.462781 0.095365
H1    H     H_    0.814957 0.523242 0.415559 0.179015
H2    H     H_    0.189242 0.452746 0.580264 0.179893
C15   C     C_R   0.539063 0.754617 0.447852 -0.012156
C16   C     C_R   0.427532 0.245253 0.500080 -0.019310
C17   C     C_R   0.557757 0.825663 0.460886 -0.224913
C18   C     C_R   0.448825 0.174315 0.511601 -0.220098
H3    H     H_    0.562736 0.860048 0.414756 0.144862
H4    H     H_    0.384003 0.137878 0.507155 0.141551
C19   C     C_R   0.568014 0.853151 0.532052 0.096482
C20   C     C_R   0.552782 0.149981 0.528406 0.094686
C21   C     C_R   0.562545 0.809099 0.591388 -0.158224
C22   C     C_R   0.636290 0.196917 0.532995 -0.155077
H5    H     H_    0.573288 0.829175 0.647104 0.139852
H6    H     H_    0.716814 0.179389 0.547647 0.139994
C23   C     C_R   0.538189 0.739391 0.579099 -0.199629
C24   C     C_R   0.616188 0.266895 0.517710 -0.203302
H7    H     H_    0.531116 0.707858 0.626851 0.160619
H8    H     H_    0.681314 0.302694 0.519763 0.126499
C25   C     C_R   0.524565 0.710789 0.507417 -0.100032
C26   C     C_R   0.512706 0.291255 0.502302 -0.054740
C27   C     C_R   0.507403 0.966065 0.581843 0.018972
C28   C     C_R   0.642779 0.037878 0.500812 0.019602
C29   C     C_R   0.510027 0.038658 0.582240 -0.254474
C30   C     C_R   0.647039 0.965291 0.505851 -0.253560
H9    H     H_    0.456470 0.067265 0.611727 0.143771
H10   H     H_    0.699981 0.936605 0.475943 0.145821
C31   C     C_R   0.572132 0.074853 0.538815 0.042550
C32   C     C_R   0.576393 0.928932 0.542602 0.041892
C33   C     C_R   0.544678 0.554271 0.730615 0.032903
C34   C     C_R   0.447084 0.449479 0.267977 0.033620
H11   H     H_    0.580977 0.596161 0.704405 0.113886
H12   H     H_    0.402397 0.411030 0.292908 0.112951
C35   C     C_R   0.545514 0.555830 0.806904 -0.265508
C36   C     C_R   0.449763 0.447107 0.192045 -0.263689
H13   H     H_    0.582936 0.598944 0.838692 0.139881
H14   H     H_    0.406246 0.407141 0.158774 0.135048
C37   C     C_R   0.499445 0.501224 0.841528 0.120633
C38   C     C_R   0.507166 0.497314 0.159609 0.117109
C39   C     C_R   0.454666 0.445630 0.797775 -0.309530
C40   C     C_R   0.562604 0.547798 0.204995 -0.298758
H15   H     H_    0.418688 0.402427 0.822320 0.139000
H16   H     H_    0.609525 0.586200 0.181925 0.145807
C41   C     C_R   0.455128 0.446232 0.721588 0.036277
C42   C     C_R   0.558967 0.547734 0.280731 0.062609
H17   H     H_    0.419463 0.403680 0.688110 0.124456
H18   H     H_    0.604126 0.585267 0.316047 0.144107
N1    N     N_R   0.500010 0.499980 0.689440 -0.084386
N2    N     N_R   0.499990 0.500020 0.310560 -0.092549
C43   C     C_R   0.538041 0.442153 0.963878 -0.256433
C44   C     C_R   0.470611 0.557117 0.038078 -0.255289
H19   H     H_    0.567174 0.398103 0.935591 0.140439
H20   H     H_    0.442124 0.601189 0.066727 0.143376
C45   C     C_R   0.544273 0.439941 0.040983 0.020530
C46   C     C_R   0.464989 0.559664 0.961035 0.020345
C47   C     C_R   0.508620 0.497821 0.078609 0.046535
C48   C     C_R   0.499408 0.501321 0.923006 0.049503
C49   C     C_R   0.593718 0.378102 0.080947 0.116223
C50   C     C_R   0.679534 0.386149 0.137467 -0.128385
C51   C     C_R   0.727782 0.327638 0.173692 -0.138688
C52   C     C_R   0.691420 0.260685 0.153455 -0.118904
C53   C     C_R   0.606326 0.252151 0.097299 -0.136783
C54   C     C_R   0.557713 0.310545 0.060986 -0.178645
H21   H     H_    0.709932 0.437582 0.152843 0.123026
H22   H     H_    0.793928 0.334186 0.217033 0.121257
H23   H     H_    0.729624 0.215400 0.180931 0.113910
H24   H     H_    0.578291 0.200238 0.081672 0.124119
H25   H     H_    0.491945 0.303144 0.017483 0.122827
C55   C     C_R   0.419006 0.623045 0.922107 0.110195
C56   C     C_R   0.458137 0.689507 0.943944 -0.183313
C57   C     C_R   0.414056 0.749404 0.908049 -0.139512
C58   C     C_R   0.330381 0.743503 0.850447 -0.108303
C59   C     C_R   0.290707 0.677735 0.828496 -0.139539
C60   C     C_R   0.334436 0.617733 0.864309 -0.131067
H26   H     H_    0.523107 0.694881 0.988431 0.121394
H27   H     H_    0.444634 0.800424 0.924989 0.122890
H28   H     H_    0.295926 0.789898 0.823121 0.117217
H29   H     H_    0.225697 0.673256 0.783976 0.123770
H30   H     H_    0.302123 0.567273 0.847227 0.127546
C61   C     C_R   0.826490 0.445368 0.655672 0.164337
C62   C     C_R   0.784560 0.378993 0.664690 -0.154698
C63   C     C_R   0.738859 0.364163 0.727107 -0.129876
C64   C     C_R   0.736229 0.415161 0.781315 -0.094340
C65   C     C_R   0.778649 0.481189 0.772895 -0.141189
C66   C     C_R   0.822682 0.496596 0.709916 -0.138522
H31   H     H_    0.789103 0.338628 0.624120 0.107304
H32   H     H_    0.706382 0.312957 0.733767 0.126126
H33   H     H_    0.701355 0.403549 0.829822 0.125990
H34   H     H_    0.776688 0.520614 0.814938 0.126367
H35   H     H_    0.854496 0.548104 0.703601 0.109032
C67   C     C_R   0.167335 0.537865 0.341053 0.190924
C68   C     C_R   0.188169 0.493930 0.283646 -0.152825
C69   C     C_R   0.217114 0.522430 0.219838 -0.137726
C70   C     C_R   0.226890 0.594655 0.213333 -0.089802
C71   C     C_R   0.208020 0.638491 0.270808 -0.148333
C72   C     C_R   0.180471 0.610216 0.335105 -0.158549
H36   H     H_    0.178416 0.438078 0.287062 0.097653
H37   H     H_    0.230438 0.488562 0.174955 0.127063
H38   H     H_    0.248053 0.616623 0.163487 0.115976
H39   H     H_    0.212596 0.694545 0.265022 0.113381
H40   H     H_    0.164145 0.644845 0.378688 0.106022
C73   C     C_3   0.942660 0.508429 0.322579 -0.424713
C74   C     C_3   0.907702 0.583460 0.300649 -0.323232
C75   C     C_3   0.862300 0.587229 0.219184 -0.902839
H41   H     H_    0.923567 0.573386 0.185035 0.269042
H42   H     H_    0.795463 0.550644 0.206495 0.257050
H43   H     H_    0.834159 0.641088 0.204928 0.239501
H44   H     H_    0.847140 0.602003 0.333205 0.203782
H45   H     H_    0.974589 0.619971 0.311309 0.229580
H46   H     H_    0.985004 0.485282 0.280137 0.206980
H47   H     H_    0.872661 0.474391 0.320465 0.188263
C76   C     C_3   0.048756 0.412452 0.657158 -0.433709
C77   C     C_3   0.101333 0.464732 0.714384 -0.328330
C78   C     C_3   0.164405 0.426508 0.779401 -0.894069
H48   H     H_    0.112106 0.392479 0.806454 0.263251
H49   H     H_    0.226900 0.393989 0.760540 0.255129
H50   H     H_    0.201578 0.464881 0.820373 0.245872
H51   H     H_    0.154677 0.499834 0.689627 0.220164
H52   H     H_    0.040795 0.497702 0.734894 0.222773
H53   H     H_    0.998773 0.376677 0.683981 0.207071
H54   H     H_    0.108282 0.376966 0.638970 0.194332
C79   C     C_R   0.538362 0.730866 0.371561 0.142130
C80   C     C_R   0.633347 0.729069 0.342750 -0.183262
C81   C     C_R   0.632726 0.722920 0.266983 -0.172866
C82   C     C_R   0.537420 0.718742 0.219519 -0.125155
C83   C     C_R   0.442791 0.719709 0.247878 -0.128616
C84   C     C_R   0.443046 0.725952 0.323738 -0.116173
H55   H     H_    0.707532 0.735133 0.378732 0.127818
H56   H     H_    0.705979 0.722621 0.245002 0.132522
H57   H     H_    0.536871 0.714749 0.160761 0.117407
H58   H     H_    0.369420 0.717737 0.210644 0.117254
H59   H     H_    0.369478 0.730489 0.345062 0.113012
C85   C     C_R   0.316575 0.269276 0.487677 0.095535
C86   C     C_R   0.250398 0.253493 0.539491 -0.160973
C87   C     C_R   0.144050 0.272024 0.526248 -0.161779
C88   C     C_R   0.102712 0.305889 0.461036 -0.091709
C89   C     C_R   0.167858 0.321796 0.409266 -0.133857
C90   C     C_R   0.274628 0.304047 0.422539 -0.159082
H60   H     H_    0.281139 0.226531 0.589951 0.124414
H61   H     H_    0.093491 0.259644 0.566299 0.123408
H62   H     H_    0.020219 0.319859 0.450618 0.127340
H63   H     H_    0.135042 0.347256 0.358576 0.116055
H64   H     H_    0.323752 0.315751 0.381359 0.125130
C91   C     C_R   0.423590 0.931861 0.615744 0.106245
C92   C     C_R   0.344639 0.893304 0.572292 -0.128055
C93   C     C_R   0.265073 0.861820 0.604354 -0.136864
C94   C     C_R   0.262944 0.869312 0.679673 -0.115288
C95   C     C_R   0.340406 0.908320 0.723074 -0.140695
C96   C     C_R   0.420366 0.939688 0.691284 -0.179196
H65   H     H_    0.344779 0.887687 0.513716 0.127159
H66   H     H_    0.204805 0.831861 0.570746 0.122248
H67   H     H_    0.201010 0.845121 0.704313 0.113130
H68   H     H_    0.338450 0.914347 0.781354 0.118572
H69   H     H_    0.480008 0.969727 0.725478 0.125623
C97   C     C_R   0.705053 0.072299 0.449824 0.102838
C98   C     C_R   0.654494 0.108624 0.387994 -0.123662
C99   C     C_R   0.713488 0.142861 0.341273 -0.140722
C100  C     C_R   0.823184 0.140380 0.355326 -0.118447
C101  C     C_R   0.874043 0.103322 0.416000 -0.133849
C102  C     C_R   0.815287 0.069102 0.463012 -0.185284
H70   H     H_    0.569535 0.110975 0.376473 0.129390
H71   H     H_    0.673988 0.171442 0.294335 0.127485
H72   H     H_    0.868740 0.167089 0.319163 0.118142
H73   H     H_    0.959004 0.101360 0.426783 0.131712
H74   H     H_    0.855530 0.041088 0.510228 0.128990

loop_
_geom_bond_atom_site_label_1
_geom_bond_atom_site_label_2
_geom_bond_distance
_ccdc_geom_bond_type
C73   H47   1.111210 S    
C36   C38   1.403968 A    
O5    Zn1   1.973073 S    
C63   H32   1.082300 S    
C39   H15   1.082673 S    
C6    C11   1.392061 A    
C15   C17   1.396069 A    
C65   H34   1.082199 S    
C28   C97   1.481544 S    
C63   C64   1.397702 A    
C58   C59   1.396789 A    
C70   H38   1.082263 S    
C84   H59   1.082022 S    
C11   H2    1.078458 S    
C97   C98   1.405385 A    
C76   C77   1.534518 S    
C29   H9    1.085080 S    
C10   C61   1.482968 S    
C100  C101  1.398083 A    
C19   C32   1.465200 S    
O5    C3    1.288252 A    
C78   H49   1.110508 S    
C71   H39   1.081145 S    
C20   C31   1.465817 S    
C74   C75   1.525713 S    
C44   H20   1.084741 S    
O1    C1    1.279133 A    
C40   C42   1.401352 A    
C85   C86   1.406234 A    
C21   H5    1.083194 S    
C80   C81   1.397542 A    
C54   H25   1.083165 S    
C88   C89   1.396746 A    
C79   C80   1.405263 A    
C62   H31   1.080386 S    
C46   C48   1.420268 A    
C35   H13   1.082586 S    
C94   C95   1.398000 A    
C37   C48   1.499176 S    
C36   H14   1.082847 S    
C50   H21   1.082521 S    
C17   C19   1.397732 A    
C69   C70   1.395799 A    
C93   C94   1.397230 A    
C27   C29   1.389888 A    
O4    Zn1   1.985447 S    
C37   C39   1.405307 A    
C101  C102  1.398940 A    
C77   H52   1.109330 S    
C19   C21   1.391476 A    
C71   C72   1.396777 A    
C79   C84   1.401104 A    
C49   C54   1.405237 A    
C5    C12   1.386880 A    
C81   C82   1.396800 A    
C12   H1    1.076838 S    
C38   C40   1.401375 A    
C65   C66   1.397981 A    
C61   C66   1.403274 A    
C45   C49   1.483219 S    
C24   C26   1.397262 A    
C41   N1    1.362323 A    
C60   H30   1.080827 S    
C15   C79   1.473112 S    
C94   H67   1.082255 S    
C76   H53   1.109069 S    
C51   H22   1.082549 S    
C78   H48   1.110904 S    
C59   H29   1.082431 S    
C86   C87   1.397966 A    
C43   H19   1.084275 S    
O2    C2    1.294063 A    
C62   C63   1.398048 A    
C55   C60   1.405966 A    
C67   C68   1.404828 A    
C28   C30   1.392710 A    
C64   H33   1.082334 S    
C33   H11   1.081033 S    
C92   H65   1.083117 S    
C78   H50   1.108482 S    
C39   C41   1.402773 A    
C7    C14   1.417753 A    
C69   H37   1.081924 S    
C18   C20   1.404465 A    
C8    C13   1.424074 A    
C38   C47   1.493354 S    
C22   C24   1.383946 A    
C52   C53   1.397452 A    
C42   N2    1.359864 A    
C23   H7    1.082574 S    
C91   C92   1.406003 A    
O7    Zn2   2.016309 S    
C33   C35   1.402303 A    
C58   H28   1.080679 S    
C29   C31   1.400424 A    
Zn1   N1    1.991371 S    
C9    C67   1.484696 S    
C46   C55   1.483908 S    
C72   H40   1.083198 S    
C28   C31   1.414340 A    
C16   C26   1.406320 A    
C49   C50   1.406772 A    
C98   C99   1.397288 A    
C5    C10   1.413567 A    
C41   H17   1.081536 S    
C40   H16   1.081730 S    
C66   H35   1.083018 S    
C93   H66   1.082338 S    
C21   C23   1.382484 A    
C83   H58   1.080481 S    
C75   H42   1.109538 S    
C102  H74   1.083088 S    
C77   H51   1.110279 S    
C27   C91   1.482360 S    
C3    C6    1.448622 S    
C51   C52   1.397036 A    
C4    C5    1.452773 S    
C74   H45   1.106337 S    
O6    C4    1.285206 A    
C59   C60   1.397614 A    
C45   C47   1.415535 A    
C8    C76   1.528112 S    
C56   C57   1.398090 A    
C89   H63   1.079825 S    
C82   C83   1.396571 A    
C30   H10   1.084881 S    
O7    C3    1.276571 A    
C95   C96   1.398148 A    
C53   C54   1.398427 A    
O3    Zn2   1.985446 S    
O8    C4    1.280944 A    
C87   H61   1.082329 S    
O4    C2    1.283884 A    
C92   C93   1.397726 A    
C1    C26   1.436784 S    
C85   C90   1.405040 A    
C68   H36   1.080096 S    
C44   C47   1.403646 A    
C11   C13   1.382773 A    
C44   C46   1.409315 A    
C73   C74   1.538636 S    
C12   C14   1.373370 A    
C53   H24   1.082358 S    
O1    Zn1   1.983448 S    
C52   H23   1.081813 S    
C75   H41   1.111150 S    
C33   N1    1.362144 A    
C99   C100  1.397605 A    
C98   H70   1.083142 S    
C34   C36   1.403355 A    
C73   H46   1.108186 S    
C76   H54   1.109689 S    
O6    Zn2   1.973072 S    
C13   C14   1.414415 A    
Zn2   N2    1.991375 S    
C97   C102  1.404463 A    
C77   C78   1.525864 S    
O3    C1    1.281123 A    
O8    Zn1   2.016311 S    
C23   C25   1.413243 A    
C100  H72   1.082556 S    
C34   H12   1.081626 S    
C35   C37   1.405487 A    
C91   C96   1.404400 A    
C95   H68   1.082274 S    
C27   C32   1.414342 A    
C2    C25   1.474179 S    
C57   H27   1.082367 S    
C89   C90   1.399520 A    
C22   H6    1.082624 S    
C81   H56   1.081334 S    
C75   H43   1.109338 S    
C16   C18   1.393772 A    
C17   H3    1.085045 S    
C70   C71   1.397266 A    
C18   H4    1.084371 S    
C7    C73   1.532223 S    
C87   C88   1.396042 A    
C67   C72   1.402526 A    
C74   H44   1.109275 S    
C6    C9    1.414778 A    
C56   H26   1.083244 S    
C24   H8    1.082312 S    
C55   C56   1.406046 A    
C7    C9    1.406497 A    
C43   C48   1.406852 A    
C8    C10   1.412838 A    
C101  H73   1.082423 S    
C96   H69   1.083110 S    
C57   C58   1.396949 A    
O2    Zn2   1.983445 S    
C99   H71   1.081415 S    
C90   H64   1.082818 S    
C80   H55   1.083296 S    
C15   C25   1.417055 A    
C30   C32   1.402060 A    
C34   N2    1.362276 A    
C20   C22   1.397949 A    
C42   H18   1.079098 S    
C50   C51   1.397817 A    
C64   C65   1.397920 A    
C61   C62   1.403292 A    
C16   C85   1.482922 S    
C43   C45   1.409449 A    
C88   H62   1.082563 S    
C82   H57   1.082572 S    
C83   C84   1.400079 A    
C86   H60   1.083193 S    
C68   C69   1.397551 A    
