data_mof_unit_29626.cif
_audit_creation_date              2012-12-10T18:12:04-0500
_audit_creation_method            fapswitch 2.2
_symmetry_space_group_name_H-M    P1
_symmetry_Int_Tables_number       1
_space_group_crystal_system       triclinic
_cell_length_a                    18.630426
_cell_length_b                    18.990674
_cell_length_c                    19.067692
_cell_angle_alpha                 110.38719
_cell_angle_beta                  109.550156
_cell_angle_gamma                 109.379474
_cell_volume                      5134.21095619

loop_
_atom_site_label
_atom_site_type_symbol
_atom_type_description
_atom_site_fract_x
_atom_site_fract_y
_atom_site_fract_z
_atom_type_partial_charge
C1    C     C_R   0.620038 0.620164 0.500166 0.974772
C2    C     C_R   0.209353 0.187528 0.252233 -0.245741
C3    C     C_R   0.179867 0.416076 0.170271 0.390166
C4    C     C_R   0.189379 0.496973 0.180627 -0.142128
C5    C     C_R   0.263374 0.577667 0.253022 0.063139
C6    C     C_R   0.327870 0.578731 0.317900 -0.019637
C7    C     C_R   0.314978 0.498678 0.311347 -0.128623
C8    C     C_R   0.241601 0.417143 0.238077 -0.061430
C9    C     C_R   0.311196 0.699692 0.222633 0.358051
C10   C     C_R   0.314108 0.776949 0.228247 -0.244707
C11   C     C_R   0.279514 0.816994 0.274057 0.423420
C12   C     C_R   0.379998 0.499591 0.379558 0.950516
C13   C     C_R   0.254291 0.787347 0.325180 -0.227937
C14   C     C_R   0.247671 0.708344 0.317754 -0.210935
C15   C     C_R   0.272495 0.662378 0.262969 -0.077429
C16   C     C_R   0.764471 0.754815 0.576549 -0.006042
C17   C     C_R   0.824796 0.816622 0.572110 -0.312183
C18   C     C_R   0.810161 0.809401 0.492679 -0.115015
C19   C     C_R   0.731674 0.740174 0.413867 0.448225
C20   C     C_R   0.665924 0.681316 0.418050 -0.202580
C21   C     C_R   0.684748 0.686185 0.498610 -0.146448
C22   C     C_R   0.681445 0.505807 0.754874 -0.307478
C23   C     C_R   0.378467 0.380213 0.498802 0.969739
C24   C     C_R   0.740455 0.502077 0.818555 0.472646
C25   C     C_R   0.810782 0.494694 0.810899 -0.275720
C26   C     C_R   0.816794 0.483505 0.736041 -0.228681
C27   C     C_R   0.759791 0.493113 0.674730 0.445517
C28   C     C_R   0.691142 0.502927 0.684823 -0.217414
C29   C     C_R   0.238779 0.323226 0.500373 0.295772
C30   C     C_R   0.180726 0.264458 0.511537 0.182143
C31   C     C_R   0.188824 0.191237 0.506837 -0.317408
C32   C     C_R   0.261000 0.183483 0.504487 0.248189
C33   C     C_R   0.327111 0.250874 0.510212 -0.228285
C34   C     C_R   0.623307 0.502783 0.619825 0.986505
C35   C     C_R   0.312184 0.315637 0.500355 -0.318208
C36   C     C_R   0.999969 0.620187 0.119923 0.896293
C37   C     C_R   0.120933 0.498301 0.117540 0.952440
C38   C     C_R   0.997255 0.379621 0.877229 1.005550
C39   C     C_R   0.878888 0.499602 0.880410 0.993317
C40   C     C_R   0.998493 0.878293 0.380080 0.991790
C41   C     C_R   0.878764 0.877103 0.496172 0.974297
C42   C     C_R   0.998726 0.118087 0.620054 0.996850
C43   C     C_R   0.120956 0.121784 0.502390 1.057577
C44   C     C_R   0.996564 0.756777 0.179939 -0.000493
C45   C     C_R   0.267061 0.220574 0.223975 0.269518
C46   C     C_R   0.994908 0.817562 0.244380 -0.202528
C47   C     C_R   0.996081 0.809423 0.314368 -0.060783
C48   C     C_R   0.998233 0.738870 0.322222 -0.060783
C49   C     C_R   0.999842 0.676046 0.257486 -0.179106
C50   C     C_R   0.999918 0.685958 0.186958 -0.122234
C51   C     C_R   0.079532 0.325319 0.817847 -0.158224
C52   C     C_R   0.080853 0.260444 0.755604 -0.077492
C53   C     C_R   0.999617 0.183675 0.687237 -0.102403
C54   C     C_R   0.919647 0.166688 0.686359 -0.163246
C55   C     C_R   0.916919 0.233716 0.744474 0.344487
C56   C     C_R   0.272753 0.292016 0.211907 0.418763
C57   C     C_R   0.997475 0.312563 0.811201 -0.194651
C58   C     C_R   0.225807 0.332931 0.235279 -0.108875
C59   C     C_R   0.158290 0.290627 0.249856 -0.076448
C60   C     C_R   0.149127 0.216316 0.256216 -0.082656
H1    H     H_    0.885260 0.870910 0.631672 0.163950
H2    H     H_    0.626011 0.509560 0.758812 0.212309
H3    H     H_    0.993673 0.872957 0.240639 0.175549
O1    O     O_R   0.591640 0.539900 0.448310 -0.628028
O2    O     O_R   0.051750 0.643320 0.091550 -0.592313
O3    O     O_R   0.039910 0.448280 0.091610 -0.584312
O4    O     O_R   0.143370 0.551700 0.091590 -0.601688
O5    O     O_R   0.948300 0.356650 0.908390 -0.536656
O6    O     O_R   0.051750 0.460070 0.908380 -0.626235
O7    O     O_R   0.856690 0.448280 0.908350 -0.545522
O8    O     O_R   0.960140 0.551690 0.908340 -0.628511
O9    O     O_R   0.051710 0.908290 0.460000 -0.593110
O10   O     O_R   0.948270 0.908330 0.356580 -0.621106
O11   O     O_R   0.960090 0.908280 0.551610 -0.627225
O12   O     O_R   0.591610 0.643330 0.551710 -0.562542
O13   O     O_R   0.856650 0.908310 0.448190 -0.548124
O14   O     O_R   0.051730 0.091500 0.643240 -0.639802
O15   O     O_R   0.948290 0.091530 0.539820 -0.525283
O16   O     O_R   0.143350 0.091510 0.551630 -0.536169
O17   O     O_R   0.039910 0.091550 0.448210 -0.643827
O18   O     O_R   0.408400 0.448280 0.356670 -0.625194
O19   O     O_R   0.408370 0.551710 0.460080 -0.587708
O20   O     O_R   0.408390 0.356670 0.448290 -0.603813
O21   O     O_R   0.408360 0.460100 0.551690 -0.562672
O22   O     O_R   0.591630 0.448290 0.539920 -0.544088
O23   O     O_R   0.591600 0.551720 0.643330 -0.612453
O24   O     O_R   0.948300 0.539910 0.091570 -0.615663
Zn1   Zn    Zn3+2 0.500020 0.430940 0.430950 1.198716
Zn2   Zn    Zn3+2 0.499980 0.569060 0.569050 1.135160
Zn3   Zn    Zn3+2 0.930950 0.430940 0.999980 1.206683
Zn4   Zn    Zn3+2 0.069100 0.569040 0.999960 1.094926
Zn5   Zn    Zn3+2 0.069070 0.999890 0.568970 1.129375
Zn6   Zn    Zn3+2 0.930930 0.999930 0.430860 1.178884
C61   C     C_2   0.213961 0.124705 0.280710 0.571998
H4    H     H_    0.277797 0.137041 0.324194 0.169674
O25   O     O_2   0.147387 0.058312 0.254874 -0.522383
S1    S     S_3+6 0.258607 0.897159 0.258230 0.107184
O26   O     O_2   0.192414 0.907584 0.282389 -0.233869
O27   O     O_2   0.343558 0.983418 0.312981 -0.171757
O28   O     O_3   0.217399 0.866241 0.152512 -0.558215
H5    H     H_    0.264213 0.907351 0.149816 0.388956
C62   C     C_2   0.238234 0.840500 0.389403 0.588200
H6    H     H_    0.180969 0.810549 0.394320 -0.015876
O29   O     O_2   0.291975 0.917912 0.440664 -0.405176
C63   C     C_2   0.220675 0.678153 0.372589 0.334012
H7    H     H_    0.229445 0.724286 0.432240 0.093986
O30   O     O_2   0.187534 0.601697 0.352059 -0.580548
C64   C     C_2   0.789744 0.766624 0.664584 0.502336
H8    H     H_    0.844589 0.828591 0.721702 0.070918
O31   O     O_2   0.753011 0.708357 0.675408 -0.521573
S2    S     S_3+6 0.718051 0.722548 0.310523 0.095528
O32   O     O_2   0.654234 0.628397 0.240098 -0.254535
O33   O     O_2   0.683889 0.777845 0.288380 -0.220340
O34   O     O_3   0.814571 0.749413 0.313341 -0.553349
H9    H     H_    0.799854 0.732739 0.252865 0.386799
C65   C     C_2   0.575600 0.618677 0.340113 0.609462
H10   H     H_    0.540327 0.551213 0.321799 0.093763
O35   O     O_2   0.538412 0.643301 0.296551 -0.433037
S3    S     S_3+6 0.720130 0.501834 0.903173 0.071073
O36   O     O_2   0.648965 0.523542 0.900366 -0.266649
O37   O     O_2   0.690525 0.412638 0.891543 -0.255185
O38   O     O_3   0.812323 0.575263 0.000476 -0.538010
H11   H     H_    0.795241 0.570581 0.043290 0.391785
C66   C     C_2   0.877438 0.454420 0.718843 0.623446
H12   H     H_    0.945728 0.485576 0.768635 0.063266
O39   O     O_2   0.850090 0.392463 0.648392 -0.428974
S4    S     S_3+6 0.333344 0.173334 0.206660 0.114515
O40   O     O_2   0.335846 0.161991 0.125735 -0.166437
O41   O     O_2   0.425778 0.233430 0.283689 -0.243279
O42   O     O_3   0.295648 0.074310 0.195810 -0.529972
H13   H     H_    0.346136 0.064263 0.206287 0.406937
S5    S     S_3+6 0.778617 0.498192 0.589994 0.112698
O43   O     O_2   0.874530 0.531629 0.617282 -0.251522
O44   O     O_2   0.723770 0.408264 0.510547 -0.179292
O45   O     O_3   0.750801 0.565235 0.565187 -0.552955
H14   H     H_    0.767073 0.566620 0.521058 0.390248
S6    S     S_3+6 0.222150 0.408202 0.490534 0.073192
O46   O     O_2   0.126212 0.381433 0.446571 -0.191244
O47   O     O_2   0.270251 0.487067 0.579926 -0.208396
O48   O     O_3   0.261111 0.436286 0.431809 -0.652920
H15   H     H_    0.248566 0.482933 0.431170 0.383889
S7    S     S_3+6 0.099520 0.283565 0.532345 0.149900
O49   O     O_2   0.069926 0.239015 0.576234 -0.284211
O50   O     O_2   0.136857 0.379091 0.591284 -0.142187
O51   O     O_3   0.010066 0.246771 0.438356 -0.415400
H16   H     H_    0.999718 0.190649 0.396421 0.352084
S8    S     S_3+6 0.266602 0.087258 0.488399 0.099033
O52   O     O_2   0.176749 0.008105 0.421820 -0.271135
O53   O     O_2   0.329046 0.080525 0.456577 -0.166747
O54   O     O_3   0.300804 0.088438 0.582552 -0.478220
H17   H     H_    0.359008 0.142810 0.623788 0.351636
C67   C     C_2   0.415342 0.258458 0.536759 0.527477
H18   H     H_    0.452677 0.266784 0.599468 0.064069
O55   O     O_2   0.444120 0.250001 0.487376 -0.473750
C68   C     C_2   0.993330 0.771227 0.107224 0.576413
H19   H     H_    0.015468 0.836623 0.118052 0.116587
O56   O     O_2   0.962683 0.711482 0.034271 -0.513797
C69   C     C_2   0.002711 0.731982 0.398919 0.559113
H20   H     H_    0.047253 0.713155 0.429677 0.078169
O57   O     O_2   0.955018 0.744417 0.426569 -0.516681
C70   C     C_2   0.002165 0.600226 0.263210 0.449515
H21   H     H_    0.039303 0.574485 0.240986 0.102795
O58   O     O_2   0.959612 0.563400 0.288973 -0.484497
C71   C     C_2   0.165461 0.406815 0.888345 0.516185
H22   H     H_    0.210964 0.440067 0.871839 0.080323
O59   O     O_2   0.188052 0.434411 0.964801 -0.441930
S9    S     S_3+6 0.335200 0.328125 0.164554 0.124629
O60   O     O_2   0.426405 0.342569 0.210800 -0.238287
O61   O     O_2   0.288370 0.258499 0.070550 -0.201664
O62   O     O_3   0.346666 0.420983 0.168018 -0.521413
H23   H     H_    0.383499 0.433330 0.141773 0.411678
C72   C     C_2   0.169072 0.271516 0.769555 0.473435
H24   H     H_    0.223584 0.303178 0.835152 0.080366
O63   O     O_2   0.183242 0.248456 0.709916 -0.514059
C73   C     C_2   0.842007 0.076191 0.634372 0.474665
H25   H     H_    0.807977 0.053090 0.665027 0.113810
O64   O     O_2   0.812928 0.028351 0.557353 -0.508970
S10   S     S_3+6 0.811266 0.218612 0.728991 0.066344
O65   O     O_2   0.739221 0.152722 0.635884 -0.219990
O66   O     O_2   0.791609 0.187137 0.786223 -0.266493
O67   O     O_3   0.810650 0.312067 0.754197 -0.584998
H26   H     H_    0.749109 0.296363 0.739464 0.400365
C74   C     C_2   0.100470 0.327653 0.261320 0.645251
H27   H     H_    0.122311 0.395296 0.280678 0.059178
O68   O     O_2   0.027073 0.283604 0.247580 -0.443614
C75   C     C_2   0.080608 0.171011 0.272728 0.660993
H28   H     H_    0.099839 0.170866 0.332841 -0.019361
O69   O     O_2   0.002601 0.128164 0.216364 -0.458950
S11   S     S_3+6 0.091014 0.313709 0.073292 0.076327
O70   O     O_2   0.107813 0.239551 0.062536 -0.268547
O71   O     O_2   0.006802 0.291496 0.075491 -0.250241
O72   O     O_3   0.077351 0.321519 0.985758 -0.529448
H29   H     H_    0.037394 0.260707 0.935975 0.377258
C76   C     C_2   0.407897 0.664674 0.391670 0.507783
H30   H     H_    0.403326 0.722871 0.415447 0.082350
O73   O     O_2   0.480633 0.672555 0.424723 -0.579201
S12   S     S_3+6 0.356266 0.651529 0.164053 0.073045
O74   O     O_2   0.356942 0.574875 0.169611 -0.217678
O75   O     O_2   0.302717 0.622300 0.070056 -0.304130
O76   O     O_3   0.460804 0.727744 0.204473 -0.480562
H31   H     H_    0.479887 0.699816 0.165733 0.419991
C77   C     C_2   0.354807 0.816611 0.186739 0.601884
H32   H     H_    0.336996 0.777040 0.120197 0.099749
O77   O     O_2   0.410838 0.893807 0.227739 -0.473843

loop_
_geom_bond_atom_site_label_1
_geom_bond_atom_site_label_2
_ccdc_geom_bond_type
C40   C47   S    
C76   O73   D    
O14   Zn5   S    
C1    C21   S    
C16   C21   A    
C68   O56   D    
C19   C20   A    
O10   Zn6   S    
S10   O67   S    
C52   C72   S    
O34   H9    S    
C7    C8    A    
O3    Zn3   S    
C32   S8    S    
C53   C54   A    
C52   C53   A    
S12   O76   S    
C4    C37   S    
S6    O47   D    
C26   C27   A    
O19   Zn2   S    
C77   O77   D    
C71   H22   S    
S8    O53   D    
C3    S11   S    
C42   C53   S    
O51   H16   S    
C5    C6    A    
O9    Zn5   S    
C2    C60   A    
O22   Zn1   S    
O62   H23   S    
O15   Zn6   S    
C43   O16   A    
C64   H8    S    
C73   O64   D    
S11   O71   D    
C18   C19   A    
C34   O23   A    
O11   Zn5   S    
S12   O75   D    
S8    O52   D    
C17   H1    S    
C41   O11   A    
C54   C55   A    
C14   C63   S    
C47   C48   A    
C45   C56   A    
C44   C46   A    
S5    O43   D    
C12   O18   A    
O5    Zn3   S    
C51   C57   A    
C9    C10   A    
C49   C70   S    
C8    C58   S    
O20   Zn1   S    
C38   O6    A    
C28   C34   S    
C59   C60   A    
C2    C45   A    
C22   C28   A    
C13   C14   A    
C69   O57   D    
C27   S5    S    
S7    O51   S    
O7    Zn3   S    
C26   C66   S    
C70   O58   D    
C72   O63   D    
S1    O26   D    
S9    O62   S    
S3    O37   D    
C36   O24   A    
C7    C12   S    
S6    O48   S    
C23   O21   A    
C62   H6    S    
C1    O12   A    
S10   O65   D    
O45   H14   S    
S8    O54   S    
C24   C25   A    
S9    O61   D    
C3    C8    A    
S1    O27   D    
C18   C41   S    
S9    O60   D    
C20   C65   S    
O12   Zn2   S    
C36   O2    A    
O76   H31   S    
C58   C59   A    
O67   H26   S    
C48   C69   S    
C33   C67   S    
C51   C52   A    
C34   O22   A    
C54   C73   S    
S11   O72   S    
C59   C74   S    
C74   H27   S    
S4    O41   D    
C29   C30   A    
C40   O10   A    
O13   Zn6   S    
C22   H2    S    
C38   C57   S    
C63   O30   D    
S12   O74   D    
C2    C61   S    
C30   C31   A    
C37   O3    A    
O4    Zn4   S    
C17   C18   A    
C12   O19   A    
C51   C71   S    
S2    O33   D    
O48   H15   S    
C61   O25   D    
C10   C77   S    
O16   Zn5   S    
C31   C43   S    
C75   H28   S    
S5    O44   D    
C48   C49   A    
C67   O55   D    
C42   O15   A    
C23   C35   S    
C55   C57   A    
C69   H20   S    
C23   O20   A    
C55   S10   S    
S7    O50   D    
O21   Zn2   S    
C75   O69   D    
S4    O40   D    
C1    O1    A    
C6    C76   S    
S1    O28   S    
C36   C50   S    
C72   H24   S    
C66   O39   D    
S6    O46   D    
S3    O38   S    
C44   C50   A    
S11   O70   D    
O2    Zn4   S    
C46   C47   A    
C24   S3    S    
C60   C75   S    
C40   O9    A    
S2    O32   D    
S7    O49   D    
C44   C68   S    
C9    S12   S    
C31   C32   A    
C65   O35   D    
C38   O5    A    
C4    C5    A    
O23   Zn2   S    
S10   O66   D    
S3    O36   D    
C13   C62   S    
C6    C7    A    
C19   S2    S    
C29   S6    S    
C63   H7    S    
C29   C35   A    
C30   S7    S    
C62   O29   D    
C46   H3    S    
C11   S1    S    
C32   C33   A    
C71   O59   D    
O42   H13   S    
C25   C26   A    
S4    O42   S    
C73   H25   S    
C70   H21   S    
O72   H29   S    
C41   O13   A    
C11   C13   A    
C33   C35   A    
C16   C17   A    
C64   O31   D    
C45   S4    S    
S5    O45   S    
C37   O4    A    
C56   S9    S    
O28   H5    S    
C43   O17   A    
C39   O7    A    
C56   C58   A    
C65   H10   S    
C76   H30   S    
S2    O34   S    
C22   C24   A    
C9    C15   A    
C61   H4    S    
C5    C15   S    
O18   Zn1   S    
C10   C11   A    
C16   C64   S    
O8    Zn4   S    
C20   C21   A    
C42   O14   A    
C77   H32   S    
C49   C50   A    
O24   Zn3   S    
C68   H19   S    
O38   H11   S    
C39   O8    A    
C14   C15   A    
C66   H12   S    
C74   O68   D    
C67   H18   S    
O17   Zn6   S    
O6    Zn4   S    
O1    Zn1   S    
C25   C39   S    
C3    C4    A    
O54   H17   S    
C27   C28   A    
