data_mof_unit_35071.cif
_audit_creation_date              2012-12-10T18:36:28-0500
_audit_creation_method            fapswitch 2.2
_symmetry_space_group_name_H-M    P1
_symmetry_Int_Tables_number       1
_space_group_crystal_system       triclinic
_cell_length_a                    13.968746
_cell_length_b                    15.094994
_cell_length_c                    15.724472
_cell_angle_alpha                 91.113253
_cell_angle_beta                  69.502326
_cell_angle_gamma                 87.758335
_cell_volume                      3101.38739

loop_
_atom_site_label
_atom_site_type_symbol
_atom_type_description
_atom_site_fract_x
_atom_site_fract_y
_atom_site_fract_z
_atom_type_partial_charge
C1    C     C_R   0.498593 0.669969 0.500041 0.800119
C2    C     C_R   0.501819 0.329941 0.499372 0.805409
C3    C     C_R   0.379191 0.502375 0.099604 -0.125181
C4    C     C_R   0.618275 0.495910 0.900709 -0.129058
C5    C     C_R   0.304641 0.494220 0.060061 0.345472
C6    C     C_R   0.693054 0.503011 0.940004 0.344676
C7    C     C_R   0.411583 0.910099 0.556941 0.178969
C8    C     C_R   0.573002 0.093541 0.534351 0.170348
C9    C     C_R   0.411793 0.817361 0.554886 -0.237028
C10   C     C_R   0.570906 0.186370 0.533247 -0.232147
C11   C     C_R   0.497167 0.766494 0.498861 -0.043430
C12   C     C_R   0.505516 0.233181 0.497991 -0.054794
C13   C     C_R   0.583666 0.808059 0.443707 -0.175272
C14   C     C_R   0.442868 0.187285 0.461653 -0.164487
C15   C     C_R   0.584811 0.899907 0.444307 -0.205127
C16   C     C_R   0.444194 0.095483 0.461825 -0.209154
C17   C     C_R   0.500609 0.951446 0.501769 0.089458
C18   C     C_R   0.506309 0.048135 0.500096 0.088531
C19   C     C_R   0.919169 0.444576 0.440528 -0.231930
C20   C     C_R   0.085434 0.565397 0.539443 -0.259054
C21   C     C_R   0.818239 0.443941 0.440782 0.340807
C22   C     C_R   0.185929 0.569089 0.539446 0.345089
C23   C     C_R   0.437371 0.501888 0.672860 0.845412
C24   C     C_R   0.562540 0.497387 0.327182 0.844298
C25   C     C_R   0.763805 0.551061 0.562283 0.074639
C26   C     C_R   0.228344 0.428294 0.462893 0.093224
C27   C     C_R   0.862466 0.547119 0.567898 -0.248832
C28   C     C_R   0.126484 0.422827 0.465113 -0.253624
C29   C     C_R   0.943334 0.494006 0.505211 0.091568
C30   C     C_R   0.052608 0.492691 0.504026 0.117516
C31   C     C_R   0.398995 0.501417 0.773027 -0.166935
C32   C     C_R   0.600240 0.496615 0.227041 -0.164262
C33   C     C_R   0.265962 0.466081 0.916283 0.166895
C34   C     C_R   0.732981 0.530225 0.083128 0.166195
C35   C     C_R   0.302950 0.469698 0.820585 -0.254819
C36   C     C_R   0.696821 0.526688 0.178735 -0.257401
C37   C     C_R   0.460756 0.528314 0.820929 0.317145
C38   C     C_R   0.537028 0.470483 0.180082 0.321580
C39   C     C_R   0.437071 0.505234 0.911967 -0.024101
C40   C     C_R   0.560716 0.492608 0.088617 -0.028351
C41   C     C_R   0.333697 0.487454 0.963787 -0.032232
C42   C     C_R   0.664393 0.509559 0.036270 -0.030301
C43   C     C_R   0.513333 0.501559 0.952921 0.017079
C44   C     C_R   0.484302 0.496410 0.047682 0.014300
Cu1   Cu    Cu3+1 0.403570 0.500010 0.500000 0.966454
Cu2   Cu    Cu3+1 0.596430 0.499990 0.500000 0.955886
H1    H     H_    0.978789 0.405245 0.389164 0.158073
H2    H     H_    0.032363 0.621687 0.566109 0.130197
H3    H     H_    0.704741 0.594258 0.609144 0.197719
H4    H     H_    0.282705 0.373934 0.431461 0.163827
H5    H     H_    0.873944 0.585710 0.621830 0.171449
H6    H     H_    0.106483 0.363523 0.436810 0.141555
H7    H     H_    0.744007 0.545615 0.217061 0.184539
H8    H     H_    0.256765 0.449777 0.781691 0.183613
H9    H     H_    0.353425 0.514832 0.172267 0.215696
H10   H     H_    0.643659 0.484613 0.827864 0.210519
H11   H     H_    0.346425 0.784962 0.599327 0.140930
H12   H     H_    0.618606 0.222453 0.561893 0.150284
H13   H     H_    0.650073 0.769335 0.399617 0.148671
H14   H     H_    0.393197 0.222394 0.432598 0.165305
H15   H     H_    0.651707 0.931075 0.399760 0.140485
H16   H     H_    0.395830 0.061010 0.432581 0.143195
N1    N     N_R   0.741310 0.499980 0.500000 -0.199697
N2    N     N_R   0.258690 0.500020 0.500000 -0.179289
O1    O     O_R   0.418570 0.628550 0.499990 -0.592541
O2    O     O_R   0.581430 0.371450 0.500010 -0.594484
O3    O     O_R   0.581440 0.628540 0.499990 -0.570818
O4    O     O_R   0.418560 0.371460 0.500010 -0.588986
O5    O     O_R   0.372890 0.500010 0.629830 -0.589888
O6    O     O_R   0.627110 0.499990 0.370170 -0.622709
O7    O     O_R   0.535760 0.500000 0.629840 -0.539949
O8    O     O_R   0.464240 0.500000 0.370160 -0.526168
Cl1   Cl    Cl    0.177538 0.505273 0.137531 -0.681616
Cl2   Cl    Cl    0.819883 0.491083 0.862034 -0.684928
C45   C     C_3   0.801770 0.377673 0.374006 -0.376873
C46   C     C_3   0.823352 0.282124 0.395638 -0.856392
H17   H     H_    0.906378 0.268437 0.380746 0.247913
H18   H     H_    0.781243 0.269953 0.468286 0.256778
H19   H     H_    0.798166 0.235205 0.353294 0.252018
H20   H     H_    0.724820 0.380416 0.371954 0.260478
H21   H     H_    0.853477 0.391524 0.304179 0.189120
C47   C     C_3   0.205058 0.654459 0.582802 -0.373793
C48   C     C_3   0.217972 0.642389 0.674725 -0.722775
H22   H     H_    0.189660 0.577948 0.703959 0.252012
H23   H     H_    0.298727 0.648389 0.668593 0.250688
H24   H     H_    0.173481 0.695815 0.723948 0.214673
H25   H     H_    0.263780 0.692484 0.534015 0.206185
H26   H     H_    0.138482 0.702645 0.597407 0.157072
Cl3   Cl    Cl    0.446335 0.389270 0.228116 -0.646999
Cl4   Cl    Cl    0.547295 0.612972 0.776236 -0.662650
C49   C     C_3   0.158877 0.433732 0.965390 -0.339123
C50   C     C_3   0.105958 0.389570 0.906362 -0.850023
H27   H     H_    0.086864 0.438702 0.862330 0.268516
H28   H     H_    0.154993 0.333610 0.864435 0.256512
H29   H     H_    0.033091 0.362772 0.950878 0.261909
H30   H     H_    0.163901 0.383511 0.014575 0.245631
H31   H     H_    0.108084 0.491064 0.002104 0.253151
C51   C     C_3   0.840270 0.561942 0.033433 -0.336592
C52   C     C_3   0.894014 0.605983 0.091851 -0.852971
H32   H     H_    0.845374 0.662028 0.133968 0.255836
H33   H     H_    0.913474 0.556824 0.135656 0.268062
H34   H     H_    0.966747 0.632628 0.046894 0.261955
H35   H     H_    0.890552 0.504336 0.996729 0.253505
H36   H     H_    0.835269 0.612153 0.984235 0.245930
C53   C     C_3   0.315407 0.961595 0.617471 -0.419675
C54   C     C_3   0.329172 0.005303 0.700436 -0.803068
H37   H     H_    0.357775 0.955484 0.738015 0.258220
H38   H     H_    0.382802 0.059666 0.680212 0.261376
H39   H     H_    0.254321 0.034371 0.746595 0.244593
H40   H     H_    0.290457 0.012303 0.578599 0.203382
H41   H     H_    0.250914 0.916620 0.642427 0.201229
C55   C     C_3   0.647555 0.046236 0.571049 -0.424835
C56   C     C_3   0.594107 0.007029 0.663438 -0.784940
H42   H     H_    0.545271 0.058918 0.712084 0.249532
H43   H     H_    0.547051 0.951502 0.657388 0.267729
H44   H     H_    0.652435 0.980550 0.690685 0.249737
H45   H     H_    0.693642 0.993493 0.522223 0.206037
H46   H     H_    0.703464 0.093191 0.579060 0.202394

loop_
_geom_bond_atom_site_label_1
_geom_bond_atom_site_label_2
_ccdc_geom_bond_type
C55   H46   S    
C53   H40   S    
C27   C29   A    
C11   C13   A    
C23   O5    A    
C1    C11   S    
C46   H19   S    
C43   C44   A    
C2    C12   S    
C24   O6    A    
C39   C41   A    
C20   C30   A    
Cu1   Cu2   S    
C38   Cl3   S    
C37   Cl4   S    
C22   C47   S    
C10   H12   S    
C46   H18   S    
Cu2   O2    S    
C2    O4    A    
C26   H4    S    
C55   H45   S    
C33   C35   A    
C19   H1    S    
C54   H37   S    
C47   H25   S    
C7    C9    A    
C25   N1    A    
C26   N2    A    
C36   H7    S    
C1    O3    A    
C49   H30   S    
C3    H9    S    
C48   H22   S    
C7    C17   A    
C34   C42   A    
C1    O1    A    
C7    C53   S    
C32   C38   A    
C45   H20   S    
C9    H11   S    
C56   H44   S    
C40   C42   A    
C53   H41   S    
C4    H10   S    
C35   H8    S    
C16   H16   S    
C55   C56   S    
C27   H5    S    
C6    Cl2   S    
C3    C44   A    
C51   H36   S    
C21   N1    A    
Cu1   O5    S    
C23   O7    A    
C46   H17   S    
C4    C6    A    
C49   C50   S    
C45   H21   S    
C39   C43   A    
C3    C5    A    
C50   H29   S    
C8    C18   A    
C31   C37   A    
C23   C31   S    
C45   C46   S    
C24   C32   S    
C29   C30   S    
C52   H32   S    
C52   H34   S    
Cu1   O4    S    
C50   H28   S    
C17   C18   S    
C15   H15   S    
C49   H31   S    
C9    C11   A    
Cu2   O7    S    
C20   H2    S    
C10   C12   A    
C8    C10   A    
C48   H23   S    
C12   C14   A    
C47   C48   S    
C13   C15   A    
Cu1   O1    S    
C14   C16   A    
C19   C29   A    
C32   C36   A    
C24   O8    A    
C56   H42   S    
C15   C17   A    
C5    C41   A    
C19   C21   A    
C20   C22   A    
C2    O2    A    
C13   H13   S    
C4    C43   A    
C25   C27   A    
C14   H14   S    
C53   C54   S    
C21   C45   S    
Cu1   N2    S    
C26   C28   A    
Cu2   N1    S    
C33   C41   A    
C33   C49   S    
Cu2   O3    S    
C37   C39   A    
C38   C40   A    
C28   H6    S    
C54   H38   S    
C47   H26   S    
C31   C35   A    
C28   C30   A    
C50   H27   S    
C34   C51   S    
C8    C55   S    
C34   C36   A    
C5    Cl1   S    
C25   H3    S    
Cu2   O6    S    
C22   N2    A    
C40   C44   A    
C48   H24   S    
C16   C18   A    
C51   C52   S    
C6    C42   A    
Cu1   O8    S    
C52   H33   S    
C51   H35   S    
C56   H43   S    
C54   H39   S    
