data_mof_unit_65184.cif
_audit_creation_date              2012-12-10T16:50:08-0500
_audit_creation_method            fapswitch 2.2
_symmetry_space_group_name_H-M    P1
_symmetry_Int_Tables_number       1
_space_group_crystal_system       triclinic
_cell_length_a                    7.761885
_cell_length_b                    8.600031
_cell_length_c                    10.679593
_cell_angle_alpha                 91.34235
_cell_angle_beta                  87.85116
_cell_angle_gamma                 93.39715
_cell_volume                      710.975203091

loop_
_atom_site_label
_atom_site_type_symbol
_atom_type_description
_atom_site_fract_x
_atom_site_fract_y
_atom_site_fract_z
_atom_type_partial_charge
C1    C     C_R   0.544280 0.794075 0.490179 1.001657
C2    C     C_R   0.453866 0.205857 0.498183 0.856196
C3    C     C_R   0.492995 0.497199 0.259940 0.879201
C4    C     C_R   0.372752 0.762412 0.888089 -0.066679
C5    C     C_R   0.231464 0.834897 0.943314 -0.291545
C6    C     C_R   0.153884 0.778741 0.053956 0.529151
C7    C     C_R   0.233422 0.664131 0.118433 -0.263233
C8    C     C_R   0.377170 0.589571 0.063992 -0.045544
C9    C     C_2   0.724349 0.288550 0.863395 0.490009
C10   C     C_2   0.473223 0.847624 0.788477 0.459500
C11   C     C_3   0.864378 0.748397 0.088147 -0.221302
C12   C     C_R   0.427546 0.623328 0.940475 0.075678
C13   C     C_3   0.556969 0.146997 0.157143 -0.156336
C14   C     C_3   0.210209 0.954270 0.357003 -0.210153
C15   C     C_2   0.018032 0.332811 0.397097 0.700507
C16   C     C_R   0.525167 0.514140 0.872636 -0.214695
C17   C     C_R   0.607821 0.395605 0.932472 -0.201790
C18   C     C_R   0.581939 0.381145 0.060949 0.492278
C19   C     C_R   0.475031 0.483902 0.126920 -0.219803
C20   C     C_2   0.565155 0.957349 0.481171 -0.507528
C21   C     C_2   0.425783 0.043683 0.483115 0.290888
C22   C     C_R   0.506725 0.502313 0.739806 0.945935
H1    H     H_    0.988882 0.625554 0.586725 0.214524
H2    H     H_    0.454874 0.184088 0.224821 0.097935
H3    H     H_    0.630354 0.059386 0.203730 0.173132
H4    H     H_    0.496937 0.089445 0.073725 0.171532
H5    H     H_    0.198558 0.064941 0.307698 0.167673
H6    H     H_    0.082489 0.889180 0.356965 0.214843
H7    H     H_    0.304394 0.882588 0.304412 0.137761
H8    H     H_    0.031053 0.223298 0.442704 0.035220
H9    H     H_    0.183214 0.936911 0.901902 0.183105
H10   H     H_    0.173978 0.631890 0.207299 0.215115
H11   H     H_    0.696999 0.007910 0.480174 0.172749
H12   H     H_    0.813676 0.331276 0.790052 0.084759
H13   H     H_    0.413228 0.935849 0.736937 0.075558
H14   H     H_    0.843244 0.725283 0.986658 0.196764
H15   H     H_    0.749491 0.805223 0.128161 0.173555
H16   H     H_    0.873049 0.636859 0.137604 0.179853
N1    N     N_2   0.950330 0.457950 0.466250 -0.163555
N2    N     N_2   0.049670 0.542050 0.533750 -0.206831
O1    O     O_R   0.389250 0.738570 0.508280 -0.569804
O2    O     O_2   0.626477 0.828002 0.768758 -0.566890
O3    O     O_3   0.011868 0.849177 0.105899 -0.615483
O4    O     O_3   0.671962 0.273537 0.123177 -0.539482
O5    O     O_3   0.256014 0.982573 0.482390 -0.597590
O6    O     O_2   0.044006 0.342156 0.284104 -0.590212
O7    O     O_R   0.678390 0.711630 0.486650 -0.617783
O8    O     O_R   0.355400 0.513470 0.694050 -0.619707
O9    O     O_R   0.644540 0.486530 0.672420 -0.642309
O10   O     O_R   0.321610 0.288370 0.513350 -0.629846
O11   O     O_R   0.610750 0.261430 0.491720 -0.660067
O12   O     O_R   0.355460 0.513470 0.327580 -0.631749
O13   O     O_R   0.644600 0.486530 0.305950 -0.581660
O14   O     O_2   0.724270 0.151115 0.889391 -0.523090
Zn1   Zn    Zn3+2 0.306930 0.517990 0.514440 0.970066
Zn2   Zn    Zn3+2 0.693070 0.482010 0.485560 0.969524

loop_
_geom_bond_atom_site_label_1
_geom_bond_atom_site_label_2
_ccdc_geom_bond_type
C11   H16   S    
C22   O8    A    
C3    O12   A    
C3    C19   S    
C6    C7    A    
C7    H10   S    
C18   O4    S    
C14   H5    S    
C10   O2    D    
O9    Zn2   S    
C1    O7    A    
O10   Zn1   S    
O12   Zn1   S    
C8    C12   A    
N2    Zn1   S    
C13   H3    S    
C2    C21   S    
C17   C18   A    
O8    Zn1   S    
C7    C8    A    
C11   O3    S    
C3    O13   A    
C15   N1    S    
C9    H12   S    
C22   O9    A    
C20   H11   S    
C9    C17   S    
C11   H14   S    
C18   C19   A    
C14   O5    S    
C21   O5    S    
C6    O3    S    
C5    C6    A    
C10   H13   S    
C13   H4    S    
C8    C19   A    
C4    C12   A    
C2    O11   A    
C14   H7    S    
C4    C10   S    
H1    N2    S    
C16   C17   A    
C12   C16   A    
C20   C21   D    
C15   H8    S    
O11   Zn2   S    
O13   Zn2   S    
C1    O1    A    
N1    N2    D    
C11   H15   S    
C4    C5    A    
C1    C20   S    
C16   C22   S    
C9    O14   D    
C2    O10   A    
C15   O6    D    
C14   H6    S    
C13   O4    S    
O1    Zn1   S    
N1    Zn2   S    
C13   H2    S    
O7    Zn2   S    
C5    H9    S    
