data_mof_unit_63412.cif
_audit_creation_date              2012-12-10T18:39:52-0500
_audit_creation_method            fapswitch 2.2
_symmetry_space_group_name_H-M    P1
_symmetry_Int_Tables_number       1
_space_group_crystal_system       triclinic
_cell_length_a                    11.565081
_cell_length_b                    10.79981
_cell_length_c                    10.572603
_cell_angle_alpha                 89.631462
_cell_angle_beta                  89.849606
_cell_angle_gamma                 89.965466
_cell_volume                      1320.49318416

loop_
_atom_site_label
_atom_site_type_symbol
_atom_type_description
_atom_site_fract_x
_atom_site_fract_y
_atom_site_fract_z
_atom_type_partial_charge
C1    C     C_R   0.281241 0.500018 0.499341 0.956228
C2    C     C_3   0.414033 0.428421 0.043599 0.383302
C3    C     C_3   0.396270 0.543955 0.959880 -0.282270
C4    C     C_3   0.603731 0.456044 0.040120 -0.282267
C5    C     C_3   0.498136 0.498704 0.877098 -0.321170
C6    C     C_3   0.501864 0.501296 0.122902 -0.321170
C7    C     C_1   0.161094 0.500035 0.499404 -0.128985
C8    C     C_1   0.838906 0.499965 0.500595 -0.128986
C9    C     C_1   0.059169 0.500019 0.499744 0.011617
C10   C     C_1   0.940831 0.499981 0.500255 0.011617
C11   C     C_2   0.281671 0.593437 0.916586 0.929192
C12   C     C_R   0.718759 0.499982 0.500659 0.956228
C13   C     C_2   0.718329 0.406562 0.083415 0.929187
C14   C     C_3   0.466259 0.825673 0.993738 -0.213554
C15   C     C_3   0.533744 0.174326 0.006256 -0.213591
C16   C     C_3   0.748572 0.691569 0.989500 -0.247386
C17   C     C_3   0.251427 0.308433 0.010500 -0.247380
C18   C     C_R   0.500480 0.500494 0.256904 1.051253
C19   C     C_R   0.499520 0.499505 0.743095 1.051253
C20   C     C_1   0.500001 0.069819 0.499999 0.058885
C21   C     C_1   0.499999 0.930181 0.500001 0.058883
C22   C     C_3   0.484618 0.616703 0.038343 0.425642
C23   C     C_3   0.515382 0.383296 0.961657 0.425645
C24   C     C_3   0.585967 0.571579 0.956401 0.383301
H1    H     H_    0.174885 0.631554 0.771164 0.341220
H2    H     H_    0.705593 0.717524 0.079949 0.168173
H3    H     H_    0.790515 0.776217 0.951155 0.187221
H4    H     H_    0.294403 0.282487 0.920047 0.168176
H5    H     H_    0.182113 0.377218 0.992267 0.198878
H6    H     H_    0.209490 0.223778 0.048842 0.187218
H7    H     H_    0.825113 0.368442 0.228838 0.341220
H8    H     H_    0.412746 0.798743 0.911216 0.166715
H9    H     H_    0.555484 0.847488 0.962197 0.176755
H10   H     H_    0.428276 0.911739 0.032549 0.166500
H11   H     H_    0.444530 0.152524 0.037817 0.176766
H12   H     H_    0.587272 0.201245 0.088757 0.166724
H13   H     H_    0.571705 0.088257 0.967441 0.166493
H14   H     H_    0.817881 0.622782 0.007745 0.198875
N1    N     N_1   0.500000 0.180630 0.500000 -0.070345
N2    N     N_1   0.500000 0.819370 0.500000 -0.070346
O1    O     O_R   0.334450 0.602530 0.499980 -0.599180
O2    O     O_R   0.254640 0.596227 0.788019 -0.833997
O3    O     O_2   0.787712 0.368770 0.005274 -0.589730
O4    O     O_R   0.745358 0.403770 0.211982 -0.833994
O5    O     O_3   0.467469 0.735368 0.090564 -0.574736
O6    O     O_3   0.532529 0.264632 0.909433 -0.574735
O7    O     O_3   0.671094 0.646374 0.897965 -0.594343
O8    O     O_3   0.328907 0.353626 0.102035 -0.594346
O9    O     O_R   0.665550 0.397470 0.500020 -0.599179
O10   O     O_R   0.665550 0.602530 0.500020 -0.620586
O11   O     O_R   0.334450 0.397470 0.499980 -0.620586
O12   O     O_R   0.499970 0.602510 0.313950 -0.591368
O13   O     O_R   0.500030 0.397490 0.686050 -0.591364
O14   O     O_R   0.500030 0.602510 0.686050 -0.594625
O15   O     O_R   0.499970 0.397490 0.313950 -0.594620
O16   O     O_2   0.212289 0.631230 0.994727 -0.589728
Zn1   Zn    Zn3+2 0.500000 0.636920 0.500000 1.040701
Zn2   Zn    Zn3+2 0.500000 0.363080 0.500000 1.040704

loop_
_geom_bond_atom_site_label_1
_geom_bond_atom_site_label_2
_ccdc_geom_bond_type
H1    O2    S    
C14   H10   S    
C12   O10   A    
O13   Zn2   S    
C5    C19   S    
C17   H5    S    
C9    C10   S    
O10   Zn1   S    
C5    C23   S    
C17   O8    S    
C8    C12   S    
C17   H4    S    
C14   H9    S    
C2    C3    S    
O1    Zn1   S    
O11   Zn2   S    
C17   H6    S    
C1    O11   A    
C19   O13   A    
C2    C6    S    
C5    C24   S    
C18   O15   A    
C16   H3    S    
C4    C24   S    
N1    Zn2   S    
C16   O7    S    
C1    O1    A    
C12   O9    A    
C14   O5    S    
C16   H2    S    
C6    C18   S    
C22   C24   S    
C4    C6    S    
C3    C11   S    
H7    O4    S    
C11   O16   D    
C18   O12   A    
C6    C22   S    
C7    C9    T    
C15   H12   S    
C13   O3    D    
C22   O5    S    
C14   H8    S    
C20   C21   S    
C19   O14   A    
C11   O2    S    
C8    C10   T    
O12   Zn1   S    
O15   Zn2   S    
C15   H11   S    
C2    C23   S    
C23   O6    S    
C20   N1    T    
C15   H13   S    
C3    C22   S    
N2    Zn1   S    
C15   O6    S    
C2    O8    S    
C4    C23   S    
C1    C7    S    
C24   O7    S    
C13   O4    S    
O9    Zn2   S    
C4    C13   S    
C16   H14   S    
C3    C5    S    
O14   Zn1   S    
C21   N2    T    
