data_mof_unit_62016.cif
_audit_creation_date              2012-12-10T21:33:30-0500
_audit_creation_method            fapswitch 2.2
_symmetry_space_group_name_H-M    P1
_symmetry_Int_Tables_number       1
_space_group_crystal_system       triclinic
_cell_length_a                    14.163051
_cell_length_b                    16.098222
_cell_length_c                    16.943318
_cell_angle_alpha                 86.56288
_cell_angle_beta                  90.135662
_cell_angle_gamma                 92.041518
_cell_volume                      3853.67887555

loop_
_atom_site_label
_atom_site_type_symbol
_atom_type_description
_atom_site_fract_x
_atom_site_fract_y
_atom_site_fract_z
_atom_type_partial_charge
C1    C     C_R   0.498972 0.487861 0.652791 0.867131
C2    C     C_R   0.538451 0.148294 0.539944 -0.265302
C3    C     C_R   0.517835 0.890541 0.517171 0.330321
C4    C     C_R   0.482164 0.109459 0.482829 0.330322
C5    C     C_R   0.570062 0.839566 0.569775 -0.298625
C6    C     C_R   0.429923 0.160433 0.430235 -0.298624
C7    C     C_R   0.565588 0.752806 0.565157 0.014842
C8    C     C_R   0.434398 0.247193 0.434853 0.014840
C9    C     C_R   0.671002 0.499739 0.500017 0.896071
C10   C     C_R   0.328998 0.500261 0.499983 0.896072
C11   C     C_1   0.772386 0.499325 0.499989 -0.202785
C12   C     C_R   0.501030 0.512139 0.347209 0.867129
C13   C     C_1   0.227614 0.500675 0.500011 -0.202785
C14   C     C_1   0.857576 0.499405 0.499985 -0.006217
C15   C     C_1   0.142424 0.500595 0.500015 -0.006216
C16   C     C_1   0.957400 0.499796 0.499994 0.010983
C17   C     C_1   0.042600 0.500204 0.500006 0.010984
C18   C     C_R   0.500986 0.478163 0.738530 -0.080072
C19   C     C_R   0.499035 0.521833 0.261469 -0.080080
C20   C     C_R   0.546383 0.541429 0.779051 -0.244594
C21   C     C_R   0.453670 0.458555 0.220942 -0.244589
C22   C     C_R   0.547656 0.536977 0.860583 -0.155981
C23   C     C_R   0.460643 0.404152 0.863074 -0.231564
C24   C     C_R   0.452429 0.462996 0.139410 -0.155984
C25   C     C_R   0.502250 0.469205 0.902968 0.310828
C26   C     C_R   0.497835 0.530771 0.097030 0.310831
C27   C     C_1   0.409816 0.341401 0.742293 0.185423
C28   C     C_1   0.590174 0.658613 0.257714 0.185428
C29   C     C_R   0.539411 0.595836 0.136927 -0.231567
C30   C     C_R   0.458904 0.408017 0.780854 -0.029020
C31   C     C_R   0.541117 0.591982 0.219148 -0.029021
C32   C     C_R   0.459135 0.764614 0.457535 0.005808
C33   C     C_R   0.540879 0.235386 0.542454 0.005799
C34   C     C_R   0.461563 0.851707 0.460046 -0.265298
H1    H     H_    0.419203 0.405259 0.252389 0.160087
H2    H     H_    0.419840 0.887781 0.417800 0.156346
H3    H     H_    0.614127 0.867009 0.614329 0.148098
H4    H     H_    0.385847 0.132989 0.385689 0.148098
H5    H     H_    0.606159 0.714038 0.605991 0.127857
H6    H     H_    0.393816 0.285960 0.394027 0.127857
H7    H     H_    0.580851 0.594723 0.747601 0.160078
H8    H     H_    0.417143 0.412916 0.109643 0.151809
H9    H     H_    0.582965 0.587047 0.890349 0.151808
H10   H     H_    0.426649 0.351846 0.896497 0.144581
H11   H     H_    0.573402 0.648145 0.103507 0.144583
H12   H     H_    0.584057 0.265037 0.586190 0.133078
H13   H     H_    0.415969 0.734965 0.413791 0.133080
H14   H     H_    0.580186 0.112221 0.582181 0.156346
N1    N     N_2   0.494981 0.465345 0.985816 -0.198999
N2    N     N_2   0.505118 0.534629 0.014182 -0.198992
N3    N     N_R   0.510540 0.716920 0.509720 -0.083110
N4    N     N_R   0.489460 0.283080 0.490280 -0.083110
N5    N     N_2   0.524353 0.979014 0.524164 -0.183690
N6    N     N_2   0.475646 0.020986 0.475836 -0.183690
N7    N     N_1   0.370509 0.288024 0.711452 -0.193135
N8    N     N_1   0.629455 0.712001 0.288559 -0.193140
O1    O     O_R   0.496230 0.422540 0.612660 -0.610576
O2    O     O_R   0.503770 0.577460 0.387340 -0.610581
O3    O     O_R   0.503000 0.561840 0.618900 -0.618637
O4    O     O_R   0.497000 0.438160 0.381100 -0.618633
O5    O     O_R   0.622900 0.430330 0.496880 -0.599017
O6    O     O_R   0.377100 0.569670 0.503120 -0.599013
O7    O     O_R   0.629670 0.569640 0.503120 -0.595993
O8    O     O_R   0.370330 0.430360 0.496880 -0.595995
Zn1   Zn    Zn3+2 0.495480 0.406980 0.495830 0.954058
Zn2   Zn    Zn3+2 0.504520 0.593020 0.504170 0.954058

loop_
_geom_bond_atom_site_label_1
_geom_bond_atom_site_label_2
_ccdc_geom_bond_type
C2    C4    A    
N4    Zn1   S    
C6    H4    S    
C32   N3    A    
C29   H11   S    
C18   C30   A    
C1    O1    A    
C24   H8    S    
C8    N4    A    
C18   C20   A    
C22   H9    S    
C9    C11   S    
C12   O2    A    
O8    Zn1   S    
C3    C5    A    
C25   N1    S    
C26   N2    S    
C20   H7    S    
C28   N8    T    
O7    Zn2   S    
C19   C31   A    
C29   C31   A    
C11   C14   T    
N5    N6    D    
C33   N4    A    
C33   H12   S    
C3    N5    S    
C2    H14   S    
C1    C18   S    
C10   O6    A    
C21   H1    S    
C12   C19   S    
C19   C21   A    
C34   H2    S    
C24   C26   A    
O4    Zn1   S    
C9    O5    A    
C27   N7    T    
C13   C15   T    
O3    Zn2   S    
C32   H13   S    
C14   C16   S    
C5    H3    S    
O6    Zn2   S    
C7    N3    A    
C12   O4    A    
C23   C30   A    
O5    Zn1   S    
C23   C25   A    
N3    Zn2   S    
C2    C33   A    
C26   C29   A    
C4    C6    A    
N1    N2    D    
C21   C24   A    
O1    Zn1   S    
C1    O3    A    
C15   C17   S    
C7    H5    S    
C5    C7    A    
C6    C8    A    
C8    H6    S    
C3    C34   A    
C4    N6    S    
C9    O7    A    
C22   C25   A    
O2    Zn2   S    
C28   C31   S    
C10   O8    A    
C23   H10   S    
C20   C22   A    
C16   C17   T    
C27   C30   S    
C10   C13   S    
C32   C34   A    
