data_mof_unit_48464.cif
_audit_creation_date              2012-12-10T16:51:13-0500
_audit_creation_method            fapswitch 2.2
_symmetry_space_group_name_H-M    P1
_symmetry_Int_Tables_number       1
_space_group_crystal_system       triclinic
_cell_length_a                    27.765077
_cell_length_b                    8.671955
_cell_length_c                    7.450804
_cell_angle_alpha                 103.296467
_cell_angle_beta                  94.195304
_cell_angle_gamma                 92.668647
_cell_volume                      1737.49949729

loop_
_atom_site_label
_atom_site_type_symbol
_atom_type_description
_atom_site_fract_x
_atom_site_fract_y
_atom_site_fract_z
_atom_type_partial_charge
C1    C     C_R   0.498523 0.199556 0.452934 0.847446
C2    C     C_R   0.501477 0.800444 0.547066 0.847389
C3    C     C_R   0.102098 0.495051 0.530900 -0.147093
C4    C     C_R   0.897900 0.505031 0.469141 -0.147080
C5    C     C_R   0.124361 0.354516 0.457266 -0.087535
C6    C     C_R   0.875636 0.645556 0.542810 -0.087570
C7    C     C_R   0.095929 0.213035 0.391234 -0.157119
C8    C     C_R   0.904067 0.787036 0.608867 -0.157132
C9    C     C_R   0.131172 0.632674 0.620581 -0.246242
C10   C     C_R   0.868827 0.367416 0.379420 -0.246213
C11   C     C_R   0.354442 0.499267 0.509474 -0.294380
C12   C     C_R   0.645557 0.500738 0.490529 -0.294409
C13   C     C_R   0.971123 0.361677 0.402444 -0.117780
C14   C     C_R   0.028875 0.638414 0.597594 -0.117783
C15   C     C_R   0.977833 0.644361 0.569637 0.009381
C16   C     C_R   0.022165 0.355725 0.430419 0.009392
C17   C     C_R   0.949161 0.503131 0.482388 -0.059106
C18   C     C_R   0.050838 0.496956 0.517657 -0.059107
C19   C     C_R   0.941125 0.235620 0.286029 0.609713
C20   C     C_R   0.058877 0.764478 0.713985 0.609719
C21   C     C_R   0.890958 0.234986 0.282941 0.575861
C22   C     C_R   0.109043 0.765115 0.717046 0.575863
C23   C     C_R   0.407435 0.499828 0.502470 0.859183
C24   C     C_R   0.592565 0.500168 0.497529 0.859186
C25   C     C_R   0.045819 0.211735 0.386570 0.731604
C26   C     C_R   0.954177 0.788346 0.613512 0.731612
C27   C     C_2   0.497834 0.031373 0.426663 -0.307326
C28   C     C_2   0.502166 0.968627 0.573337 -0.307301
C29   C     C_R   0.174919 0.357159 0.460167 0.658434
C30   C     C_R   0.825078 0.642903 0.539917 0.658565
C31   C     C_R   0.181787 0.630576 0.618356 0.719434
C32   C     C_R   0.818212 0.369512 0.381625 0.719300
C33   C     C_R   0.284425 0.505524 0.688505 0.727443
C34   C     C_R   0.715581 0.494822 0.311577 0.727456
C35   C     C_R   0.334397 0.506936 0.679210 -0.300791
C36   C     C_R   0.665608 0.493387 0.320860 -0.300818
C37   C     C_R   0.323287 0.490383 0.348656 0.648449
C38   C     C_R   0.676707 0.509320 0.651288 0.648494
C39   C     C_R   0.273355 0.489122 0.358852 -0.215170
C40   C     C_R   0.726640 0.510615 0.641106 -0.215245
C41   C     C_R   0.253789 0.496707 0.528181 0.072017
C42   C     C_R   0.746211 0.503351 0.471844 0.072053
Cu1   Cu    Cu3+1 0.505380 0.517380 0.684380 1.162457
Cu2   Cu    Cu3+1 0.494620 0.482620 0.315620 1.162464
H1    H     H_    0.249663 0.482506 0.234842 0.239151
H2    H     H_    0.750328 0.516996 0.765066 0.239166
H3    H     H_    0.112446 0.100935 0.350082 0.229508
H4    H     H_    0.887548 0.899131 0.650043 0.229517
H5    H     H_    0.642685 0.487196 0.195080 0.266974
H6    H     H_    0.357324 0.513368 0.805039 0.266846
H7    H     H_    0.493770 0.958943 0.285691 0.205370
H8    H     H_    0.506230 0.041057 0.714309 0.205381
N1    N     N_R   0.202364 0.494789 0.536110 -0.448495
N2    N     N_R   0.797635 0.505281 0.463922 -0.448491
N3    N     N_2   0.486510 0.456430 0.038510 0.234464
N4    N     N_2   0.513490 0.543570 0.961490 0.234449
O1    O     O_R   0.503500 0.286120 0.619780 -0.553872
O2    O     O_R   0.496500 0.713880 0.380220 -0.553903
O3    O     O_R   0.494410 0.256780 0.308360 -0.576416
O4    O     O_R   0.505590 0.743220 0.691640 -0.576440
O5    O     O_R   0.434810 0.514700 0.655690 -0.563304
O6    O     O_R   0.565190 0.485300 0.344310 -0.563298
O7    O     O_R   0.425720 0.485350 0.344280 -0.510013
O8    O     O_R   0.574280 0.514650 0.655720 -0.510010
O9    O     O_2   0.196561 0.223403 0.387714 -0.465863
O10   O     O_2   0.803434 0.776640 0.612429 -0.465829
O11   O     O_2   0.789732 0.236980 0.304772 -0.402796
O12   O     O_2   0.210265 0.763127 0.695135 -0.402728
F1    F     F_    0.340748 0.483205 0.181677 -0.588538
F2    F     F_    0.659239 0.516139 0.818190 -0.588612
F3    F     F_    0.452969 0.358183 0.925634 -0.532142
F4    F     F_    0.547031 0.641817 0.074367 -0.532234
F5    F     F_    0.734273 0.489288 0.147139 -0.597108
F6    F     F_    0.265741 0.511361 0.853014 -0.597114
F7    F     F_    0.864293 0.107437 0.174987 -0.547448
F8    F     F_    0.135710 0.892672 0.824970 -0.547451
F9    F     F_    0.959222 0.121268 0.156840 -0.528276
F10   F     F_    0.040784 0.878835 0.843182 -0.528273
F11   F     F_    0.021806 0.067434 0.359842 -0.549955
F12   F     F_    0.978186 0.932652 0.640245 -0.549936

loop_
_geom_bond_atom_site_label_1
_geom_bond_atom_site_label_2
_ccdc_geom_bond_type
N3    N4    D    
C38   F2    S    
C37   F1    S    
C8    C26   A    
C14   C18   A    
C34   C42   A    
C22   F8    S    
C39   C41   A    
C40   H2    S    
C30   N2    A    
C19   C21   A    
C1    O3    A    
C2    O4    A    
C9    C22   A    
Cu2   O3    S    
C3    C18   A    
C19   F9    S    
C11   C37   A    
Cu2   O2    S    
N4    F4    S    
C12   C36   A    
C39   H1    S    
C23   O7    A    
C24   O8    A    
C32   N2    A    
C27   H7    S    
Cu1   O8    S    
C5    C29   A    
C10   C21   A    
C31   O12   S    
C13   C19   A    
C14   C20   A    
C4    C6    A    
C5    C7    A    
Cu1   O1    S    
C15   C26   A    
C6    C8    A    
Cu2   O6    S    
C26   F12   S    
C7    H3    S    
Cu1   Cu2   S    
C8    H4    S    
C3    C9    A    
C1    O1    A    
C33   F6    S    
C35   H6    S    
C31   N1    A    
C41   N1    S    
C30   O10   S    
Cu1   O4    S    
C32   O11   S    
C29   O9    S    
C4    C17   A    
C6    C30   A    
C20   C22   A    
C4    C10   A    
Cu1   O5    S    
C16   C25   A    
C15   C17   A    
C12   C24   S    
C24   O6    A    
C25   F11   S    
C40   C42   A    
C3    C5    A    
C2    O2    A    
C20   F10   S    
C21   F7    S    
C7    C25   A    
C13   C17   A    
C33   C41   A    
C11   C35   A    
C37   C39   A    
C42   N2    S    
C38   C40   A    
C28   H8    S    
Cu2   N3    S    
C29   N1    A    
C11   C23   S    
C33   C35   A    
C34   C36   A    
C12   C38   A    
C9    C31   A    
C34   F5    S    
C10   C32   A    
Cu1   N4    S    
C23   O5    A    
C16   C18   A    
Cu2   O7    S    
C13   C16   A    
C27   C28   D    
C1    C27   S    
C14   C15   A    
C2    C28   S    
N3    F3    S    
C36   H5    S    
