data_mof_unit_61793.cif
_audit_creation_date              2012-12-10T17:23:06-0500
_audit_creation_method            fapswitch 2.2
_symmetry_space_group_name_H-M    P1
_symmetry_Int_Tables_number       1
_space_group_crystal_system       triclinic
_cell_length_a                    21.693998
_cell_length_b                    21.693956
_cell_length_c                    39.040571
_cell_angle_alpha                 89.999984
_cell_angle_beta                  90.000099
_cell_angle_gamma                 89.999979
_cell_volume                      18373.6107594

loop_
_atom_site_label
_atom_site_type_symbol
_atom_type_description
_atom_site_fract_x
_atom_site_fract_y
_atom_site_fract_z
_atom_type_partial_charge
C1    C     C_R   0.618949 1.000000 0.500000 0.837645
C2    C     C_R   0.000000 0.618949 0.500000 0.837672
C3    C     C_R   0.381051 0.000000 0.500000 0.837646
C4    C     C_R   0.000000 0.381051 0.500000 0.837672
C5    C     C_R   0.118949 0.500000 0.000000 0.837700
C6    C     C_R   0.500000 0.118949 0.000000 0.837648
C7    C     C_R   0.881051 0.500000 0.000000 0.837702
C8    C     C_R   0.500000 0.881051 0.000000 0.837649
C9    C     C_R   0.782602 0.950055 0.485425 0.348915
C10   C     C_R   0.049944 0.782602 0.485424 0.348920
C11   C     C_R   0.217398 0.049947 0.485427 0.348913
C12   C     C_R   0.950055 0.217398 0.485425 0.348917
C13   C     C_R   0.782602 0.049945 0.514575 0.348688
C14   C     C_R   0.049945 0.217398 0.514575 0.348690
C15   C     C_R   0.217398 0.950053 0.514573 0.348685
C16   C     C_R   0.950056 0.782602 0.514576 0.348690
C17   C     C_R   0.282602 0.450054 0.985426 0.348919
C18   C     C_R   0.549944 0.282602 0.985424 0.348917
C19   C     C_R   0.717398 0.549948 0.985429 0.348918
C20   C     C_R   0.450054 0.717398 0.985426 0.348914
C21   C     C_R   0.282602 0.549946 0.014574 0.348692
C22   C     C_R   0.549945 0.717398 0.014575 0.348688
C23   C     C_R   0.717398 0.450052 0.014572 0.348689
C24   C     C_R   0.450056 0.282602 0.014576 0.348689
C25   C     C_R   0.814306 0.000000 0.500000 -0.075706
C26   C     C_R   0.000000 0.814306 0.500000 -0.075705
C27   C     C_R   0.185694 0.000000 0.500000 -0.075704
C28   C     C_R   0.000000 0.185694 0.500000 -0.075704
C29   C     C_R   0.314306 0.500000 0.000000 -0.075703
C30   C     C_R   0.500000 0.314306 0.000000 -0.075707
C31   C     C_R   0.685694 0.500000 0.000000 -0.075702
C32   C     C_R   0.500000 0.685694 0.000000 -0.075706
C33   C     C_R   0.686035 1.000000 0.500000 -0.103996
C34   C     C_R   0.000000 0.686035 0.500000 -0.103991
C35   C     C_R   0.313965 0.000000 0.500000 -0.103998
C36   C     C_R   1.000000 0.313965 0.500000 -0.103992
C37   C     C_R   0.186035 0.500000 0.000000 -0.103991
C38   C     C_R   0.500000 0.186035 0.000000 -0.103995
C39   C     C_R   0.813965 0.500000 0.000000 -0.103993
C40   C     C_R   0.500000 0.813965 0.000000 -0.103996
C41   C     C_R   0.000000 0.119000 0.500000 0.945927
C42   C     C_R   0.880999 0.000000 0.500000 0.945924
C43   C     C_R   1.000000 0.880999 0.500000 0.945925
C44   C     C_R   0.119000 1.000000 0.500000 0.945928
C45   C     C_R   0.500000 0.619000 0.000000 0.945929
C46   C     C_R   0.380999 0.500000 0.000000 0.945926
C47   C     C_R   0.500000 0.380999 0.000000 0.945926
C48   C     C_R   0.619000 0.500000 0.000000 0.945930
C49   C     C_R   0.500000 1.000000 0.566207 0.781699
C50   C     C_R   0.000000 0.500000 0.566207 0.781699
C51   C     C_R   0.500000 0.000000 0.433795 0.781826
C52   C     C_R   1.000000 0.500000 0.433794 0.781878
C53   C     C_R   1.000000 0.500000 0.066206 0.781658
C54   C     C_R   0.500000 1.000000 0.066206 0.781631
C55   C     C_R   0.000000 0.500000 0.933791 0.781966
C56   C     C_R   0.500000 1.000000 0.933794 0.781883
C57   C     C_R   0.548820 0.973025 0.877967 -0.178777
C58   C     C_R   0.026609 0.549021 0.877958 -0.178759
C59   C     C_R   0.451180 0.026975 0.877967 -0.178777
C60   C     C_R   0.973391 0.450979 0.877958 -0.178759
C61   C     C_R   0.548929 0.027016 0.122039 -0.181040
C62   C     C_R   0.026930 0.451023 0.122042 -0.181079
C63   C     C_R   0.451071 0.972983 0.122039 -0.181042
C64   C     C_R   0.973070 0.548977 0.122041 -0.181078
C65   C     C_R   0.048799 0.472987 0.377969 -0.178777
C66   C     C_R   0.527238 0.048674 0.377974 -0.178785
C67   C     C_R   0.951201 0.527013 0.377969 -0.178778
C68   C     C_R   0.472761 0.951326 0.377974 -0.178786
C69   C     C_R   0.049070 0.526762 0.622047 -0.181153
C70   C     C_R   0.526765 0.950932 0.622046 -0.181100
C71   C     C_R   0.950930 0.473237 0.622047 -0.181153
C72   C     C_R   0.473235 0.049068 0.622046 -0.181100
C73   C     C_R   0.548484 0.972339 0.842210 -0.162752
C74   C     C_R   0.027288 0.548693 0.842200 -0.162820
C75   C     C_R   0.451517 0.027661 0.842210 -0.162752
C76   C     C_R   0.972712 0.451307 0.842200 -0.162821
C77   C     C_R   0.548523 0.027694 0.157805 -0.163497
C78   C     C_R   0.027608 0.451429 0.157807 -0.163466
C79   C     C_R   0.451478 0.972305 0.157805 -0.163497
C80   C     C_R   0.972392 0.548572 0.157807 -0.163466
C81   C     C_R   0.048461 0.472300 0.342211 -0.162735
C82   C     C_R   0.527927 0.048331 0.342217 -0.162696
C83   C     C_R   0.951539 0.527700 0.342211 -0.162734
C84   C     C_R   0.472073 0.951669 0.342217 -0.162696
C85   C     C_R   0.048668 0.527437 0.657813 -0.163403
C86   C     C_R   0.527442 0.951335 0.657812 -0.163468
C87   C     C_R   0.951332 0.472562 0.657813 -0.163402
C88   C     C_R   0.472558 0.048666 0.657812 -0.163468
C89   C     C_R   0.500000 0.000000 0.823806 0.104781
C90   C     C_R   0.000000 0.500000 0.823797 0.104831
C91   C     C_R   0.500000 0.999999 0.175839 0.096173
C92   C     C_R   0.000000 0.500000 0.175839 0.096066
C93   C     C_R   1.000000 0.500000 0.323807 0.104768
C94   C     C_R   0.500000 1.000000 0.323813 0.104728
C95   C     C_R   0.000001 0.499999 0.675841 0.095849
C96   C     C_R   0.500000 0.000000 0.675842 0.096016
C97   C     C_R   0.500000 1.000000 0.896105 -0.026260
C98   C     C_R   0.000000 0.500000 0.896098 -0.026457
C99   C     C_R   0.500000 1.000000 0.103891 -0.025465
C100  C     C_R   1.000000 0.500000 0.103893 -0.025508
C101  C     C_R   1.000000 0.500000 0.396106 -0.026244
C102  C     C_R   0.500000 1.000000 0.396110 -0.026123
C103  C     C_R   0.000000 0.500000 0.603896 -0.025590
C104  C     C_R   0.500000 0.000000 0.603896 -0.025588
C105  C     C_R   0.444227 0.996948 0.767265 -0.172362
C106  C     C_R   0.003530 0.444254 0.767258 -0.172429
C107  C     C_R   0.555773 0.003053 0.767265 -0.172361
C108  C     C_R   0.996470 0.555745 0.767258 -0.172429
C109  C     C_R   0.501980 0.944245 0.231514 -0.171120
C110  C     C_R   0.944255 0.497759 0.231508 -0.171073
C111  C     C_R   0.498020 0.055754 0.231514 -0.171119
C112  C     C_R   0.055745 0.502242 0.231508 -0.171074
C113  C     C_R   0.944224 0.497015 0.267265 -0.172321
C114  C     C_R   0.502724 0.944211 0.267271 -0.172279
C115  C     C_R   0.055776 0.502986 0.267266 -0.172320
C116  C     C_R   0.497276 0.055788 0.267271 -0.172278
C117  C     C_R   0.002791 0.444278 0.731500 -0.170980
C118  C     C_R   0.444258 0.997692 0.731508 -0.171047
C119  C     C_R   0.997210 0.555721 0.731500 -0.170980
C120  C     C_R   0.555743 0.002309 0.731508 -0.171047
C121  C     C_R   0.500000 0.000000 0.713486 0.089008
C122  C     C_R   0.000001 0.499999 0.713481 0.088848
C123  C     C_R   0.500000 1.000000 0.285678 0.098941
C124  C     C_R   1.000000 0.500000 0.285672 0.098947
C125  C     C_R   0.000000 0.500000 0.213485 0.089090
C126  C     C_R   0.500000 0.999999 0.213489 0.089210
C127  C     C_R   0.000000 0.500000 0.785663 0.098945
C128  C     C_R   0.500000 0.000000 0.785672 0.098949
C129  C     C_R   0.718122 0.950179 0.485828 -0.280398
C130  C     C_R   0.049820 0.718122 0.485828 -0.280392
C131  C     C_R   0.281877 0.049823 0.485831 -0.280398
C132  C     C_R   0.950179 0.281878 0.485829 -0.280390
C133  C     C_R   0.718122 0.049821 0.514172 -0.280796
C134  C     C_R   0.049821 0.281878 0.514172 -0.280794
C135  C     C_R   0.281877 0.950177 0.514170 -0.280794
C136  C     C_R   0.950180 0.718122 0.514173 -0.280793
C137  C     C_R   0.218122 0.450178 0.985830 -0.280380
C138  C     C_R   0.549820 0.218122 0.985828 -0.280396
C139  C     C_R   0.781877 0.549825 0.985832 -0.280381
C140  C     C_R   0.450178 0.781878 0.985829 -0.280394
C141  C     C_R   0.218122 0.549822 0.014171 -0.280788
C142  C     C_R   0.549821 0.781878 0.014171 -0.280799
C143  C     C_R   0.781877 0.450176 0.014169 -0.280786
C144  C     C_R   0.450180 0.218122 0.014173 -0.280798
Cu1   Cu    Cu3+1 0.500000 0.061870 0.500000 0.947031
Cu2   Cu    Cu3+1 0.938130 0.500000 0.500000 0.947011
Cu3   Cu    Cu3+1 0.500000 0.938130 0.500000 0.947031
Cu4   Cu    Cu3+1 0.061870 0.500000 0.500000 0.947010
Cu5   Cu    Cu3+1 0.000000 0.561870 0.000000 0.946992
Cu6   Cu    Cu3+1 0.438130 0.000000 0.000000 0.947031
Cu7   Cu    Cu3+1 0.000000 0.438130 0.000000 0.946993
Cu8   Cu    Cu3+1 0.561870 0.000000 0.000000 0.947031
Cu9   Cu    Cu3+1 0.000000 1.000000 0.465870 1.059247
Cu10  Cu    Cu3+1 0.000000 0.000000 0.534130 1.056228
Cu11  Cu    Cu3+1 0.500000 0.500000 0.965870 1.059257
Cu12  Cu    Cu3+1 0.500000 0.500000 0.034130 1.056226
H1    H     H_    0.586697 0.951363 0.891458 0.148109
H2    H     H_    0.047984 0.587064 0.891444 0.148274
H3    H     H_    0.413303 0.048637 0.891458 0.148109
H4    H     H_    0.952016 0.412936 0.891444 0.148274
H5    H     H_    0.586988 0.048377 0.108564 0.148921
H6    H     H_    0.048224 0.412926 0.108567 0.148966
H7    H     H_    0.413013 0.951622 0.108564 0.148921
H8    H     H_    0.951776 0.587074 0.108567 0.148966
H9    H     H_    0.086659 0.451296 0.391460 0.148098
H10   H     H_    0.549106 0.086430 0.391468 0.147994
H11   H     H_    0.913341 0.548704 0.391460 0.148098
H12   H     H_    0.450894 0.913570 0.391468 0.147995
H13   H     H_    0.087241 0.547926 0.608575 0.149050
H14   H     H_    0.547930 0.912761 0.608574 0.149040
H15   H     H_    0.912759 0.452073 0.608575 0.149050
H16   H     H_    0.452070 0.087239 0.608573 0.149040
H17   H     H_    0.585899 0.949330 0.829078 0.126478
H18   H     H_    0.050004 0.586285 0.829066 0.126484
H19   H     H_    0.414102 0.050670 0.829078 0.126479
H20   H     H_    0.949997 0.413714 0.829066 0.126484
H21   H     H_    0.586343 0.049151 0.171447 0.134960
H22   H     H_    0.049000 0.413574 0.171452 0.135025
H23   H     H_    0.413657 0.950848 0.171447 0.134960
H24   H     H_    0.951000 0.586427 0.171452 0.135025
H25   H     H_    0.085857 0.449260 0.329080 0.126480
H26   H     H_    0.551146 0.085617 0.329085 0.126486
H27   H     H_    0.914143 0.550741 0.329080 0.126480
H28   H     H_    0.448854 0.914382 0.329086 0.126486
H29   H     H_    0.086592 0.548700 0.671461 0.135148
H30   H     H_    0.548706 0.913409 0.671457 0.135060
H31   H     H_    0.913409 0.451299 0.671461 0.135148
H32   H     H_    0.451294 0.086592 0.671457 0.135060
H33   H     H_    0.400465 0.993147 0.780392 0.127780
H34   H     H_    0.007702 0.400527 0.780386 0.127800
H35   H     H_    0.599535 0.006854 0.780392 0.127779
H36   H     H_    0.992298 0.599472 0.780386 0.127800
H37   H     H_    0.504007 0.900815 0.217862 0.135862
H38   H     H_    0.900838 0.495534 0.217854 0.135926
H39   H     H_    0.495994 0.099183 0.217861 0.135862
H40   H     H_    0.099162 0.504467 0.217854 0.135927
H41   H     H_    0.900457 0.493265 0.280392 0.127770
H42   H     H_    0.506269 0.900427 0.280397 0.127767
H43   H     H_    0.099543 0.506736 0.280392 0.127769
H44   H     H_    0.493731 0.099573 0.280397 0.127767
H45   H     H_    0.005436 0.400888 0.717842 0.136053
H46   H     H_    0.400844 0.995417 0.717852 0.135970
H47   H     H_    0.994565 0.599111 0.717842 0.136053
H48   H     H_    0.599156 0.004584 0.717852 0.135970
H49   H     H_    0.693045 0.911861 0.474741 0.156052
H50   H     H_    0.088137 0.693045 0.474740 0.156044
H51   H     H_    0.306955 0.088142 0.474745 0.156053
H52   H     H_    0.911861 0.306955 0.474742 0.156045
H53   H     H_    0.693045 0.088138 0.525259 0.155990
H54   H     H_    0.088139 0.306955 0.525259 0.155985
H55   H     H_    0.306955 0.911858 0.525255 0.155992
H56   H     H_    0.911863 0.693045 0.525261 0.155985
H57   H     H_    0.193045 0.411859 0.974743 0.156035
H58   H     H_    0.588137 0.193045 0.974740 0.156047
H59   H     H_    0.806954 0.588145 0.974748 0.156038
H60   H     H_    0.411860 0.806955 0.974742 0.156047
H61   H     H_    0.193045 0.588140 0.025258 0.155990
H62   H     H_    0.588139 0.806955 0.025258 0.155996
H63   H     H_    0.806955 0.411856 0.025253 0.155992
H64   H     H_    0.411863 0.193045 0.025260 0.155995
O1    O     O_R   0.590130 0.052260 0.500070 -0.588299
O2    O     O_R   0.947740 0.590130 0.500070 -0.588288
O3    O     O_R   0.409870 0.947740 0.500070 -0.588300
O4    O     O_R   0.052260 0.409870 0.500070 -0.588289
O5    O     O_R   0.590130 0.947740 0.499930 -0.588349
O6    O     O_R   0.947740 0.409870 0.499930 -0.588354
O7    O     O_R   0.409870 0.052260 0.499930 -0.588350
O8    O     O_R   0.052260 0.590130 0.499930 -0.588354
O9    O     O_R   0.090130 0.552260 0.000070 -0.588263
O10   O     O_R   0.447740 0.090130 0.000070 -0.588280
O11   O     O_R   0.909870 0.447740 0.000070 -0.588264
O12   O     O_R   0.552260 0.909870 0.000070 -0.588281
O13   O     O_R   0.090130 0.447740 0.999930 -0.588373
O14   O     O_R   0.447740 0.909870 0.999930 -0.588368
O15   O     O_R   0.909870 0.552260 0.999930 -0.588374
O16   O     O_R   0.552260 0.090130 0.999930 -0.588368
O17   O     O_R   0.499930 0.052260 0.549980 -0.587279
O18   O     O_R   0.947740 0.499930 0.549980 -0.587278
O19   O     O_R   0.500070 0.947740 0.549980 -0.587278
O20   O     O_R   0.052260 0.500070 0.549980 -0.587278
O21   O     O_R   0.499930 0.947740 0.450020 -0.587221
O22   O     O_R   0.947740 0.500070 0.450020 -0.587267
O23   O     O_R   0.500070 0.052260 0.450020 -0.587221
O24   O     O_R   0.052260 0.499930 0.450020 -0.587267
O25   O     O_R   0.999930 0.552260 0.049980 -0.587244
O26   O     O_R   0.447740 0.999930 0.049980 -0.587225
O27   O     O_R   0.000070 0.447740 0.049980 -0.587244
O28   O     O_R   0.552260 0.000070 0.049980 -0.587225
O29   O     O_R   0.999930 0.447740 0.950020 -0.587348
O30   O     O_R   0.447740 0.000070 0.950020 -0.587275
O31   O     O_R   0.000070 0.552260 0.950020 -0.587348
O32   O     O_R   0.552260 0.999930 0.950020 -0.587275
O33   O     O_R   0.999990 0.090340 0.471200 -0.575583
O34   O     O_R   0.909660 0.999990 0.471200 -0.575584
O35   O     O_R   0.000010 0.909660 0.471200 -0.575580
O36   O     O_R   0.090340 0.000010 0.471200 -0.575587
O37   O     O_R   0.999990 0.909660 0.528800 -0.576330
O38   O     O_R   0.909660 0.000010 0.528800 -0.576329
O39   O     O_R   0.000010 0.090340 0.528800 -0.576331
O40   O     O_R   0.090340 0.999990 0.528800 -0.576333
O41   O     O_R   0.499990 0.590340 0.971200 -0.575582
O42   O     O_R   0.409660 0.499990 0.971200 -0.575579
O43   O     O_R   0.500010 0.409660 0.971200 -0.575579
O44   O     O_R   0.590340 0.500010 0.971200 -0.575583
O45   O     O_R   0.499990 0.409660 0.028800 -0.576332
O46   O     O_R   0.409660 0.500010 0.028800 -0.576334
O47   O     O_R   0.500010 0.590340 0.028800 -0.576332
O48   O     O_R   0.590340 0.499990 0.028800 -0.576338
O49   O     O_3   0.815552 0.901547 0.471577 -0.710797
H65   H     H_    0.786304 0.870263 0.462693 0.326974
O50   O     O_3   0.098450 0.815552 0.471575 -0.710795
H66   H     H_    0.129735 0.786304 0.462690 0.326970
O51   O     O_3   0.184448 0.098457 0.471581 -0.710794
H67   H     H_    0.213695 0.129743 0.462699 0.326975
O52   O     O_3   0.901547 0.184448 0.471577 -0.710799
H68   H     H_    0.870262 0.213696 0.462693 0.326970
O53   O     O_3   0.815552 0.098452 0.528424 -0.711245
H69   H     H_    0.786304 0.129736 0.537309 0.326758
O54   O     O_3   0.098452 0.184448 0.528423 -0.711244
H70   H     H_    0.129737 0.213696 0.537308 0.326756
O55   O     O_3   0.184448 0.901544 0.528420 -0.711247
H71   H     H_    0.213696 0.870258 0.537303 0.326759
O56   O     O_3   0.901550 0.815552 0.528426 -0.711248
H72   H     H_    0.870266 0.786304 0.537311 0.326756
O57   O     O_3   0.315552 0.401545 0.971579 -0.710798
H73   H     H_    0.286304 0.370260 0.962696 0.326967
O58   O     O_3   0.598451 0.315552 0.971576 -0.710785
H74   H     H_    0.629735 0.286304 0.962691 0.326975
O59   O     O_3   0.684448 0.598459 0.971584 -0.710795
H75   H     H_    0.713695 0.629746 0.962703 0.326968
O60   O     O_3   0.401547 0.684448 0.971578 -0.710789
H76   H     H_    0.370261 0.713696 0.962694 0.326975
O61   O     O_3   0.315552 0.598454 0.028422 -0.711246
H77   H     H_    0.286304 0.629739 0.037306 0.326758
O62   O     O_3   0.598453 0.684448 0.028423 -0.711241
H78   H     H_    0.629738 0.713696 0.037307 0.326760
O63   O     O_3   0.684448 0.401542 0.028417 -0.711248
H79   H     H_    0.713696 0.370255 0.037299 0.326759
O64   O     O_3   0.401549 0.315552 0.028425 -0.711245
H80   H     H_    0.370265 0.286304 0.037310 0.326761

loop_
_geom_bond_atom_site_label_1
_geom_bond_atom_site_label_2
_ccdc_geom_bond_type
C4    C36   S    
C82   C94   A    
C5    C37   S    
C32   C45   S    
O60   H76   S    
C64   H8    S    
C2    O8    A    
C63   H7    S    
C134  H54   S    
C72   H16   S    
C60   C98   A    
Cu1   O1    S    
C42   O34   A    
C33   C129  A    
O50   H66   S    
C83   C93   A    
Cu1   O23   S    
C1    O1    A    
C11   O51   S    
Cu9   O33   S    
C55   O29   A    
Cu11  O43   S    
C2    C34   S    
C71   C87   A    
C50   C103  S    
C23   C143  A    
C22   O62   S    
C52   C101  S    
C105  H33   S    
C49   O17   A    
C44   O36   A    
Cu6   O14   S    
C21   C29   A    
C106  C127  A    
C60   C76   A    
C23   C31   A    
C80   C92   A    
C53   O27   A    
Cu6   Cu8   S    
C66   C82   A    
C15   C27   A    
C11   C27   A    
C57   C97   A    
C38   C138  A    
C83   H27   S    
C112  C125  A    
C95   C122  S    
C31   C48   S    
C79   H23   S    
C105  C118  A    
C107  C120  A    
Cu10  O40   S    
C67   H11   S    
C6    O16   A    
C77   C91   A    
C12   C132  A    
Cu4   O20   S    
C13   C133  A    
Cu8   O16   S    
Cu6   O10   S    
C74   C90   A    
C113  C124  A    
C40   C140  A    
C55   C98   S    
C50   O20   A    
C21   C141  A    
Cu11  O41   S    
C45   O47   A    
Cu12  O46   S    
C19   C139  A    
Cu11  Cu12  S    
C7    C39   S    
C17   C137  A    
C8    C40   S    
C67   C83   A    
C116  C123  A    
C133  H53   S    
Cu4   O8    S    
C65   C101  A    
C49   O19   A    
C131  H51   S    
C92   C125  S    
C49   C104  S    
C51   C102  S    
Cu1   O7    S    
C22   C32   A    
C96   C121  S    
C144  H64   S    
Cu5   Cu7   S    
Cu3   O21   S    
C41   O33   A    
C81   C93   A    
C18   C138  A    
C57   C73   A    
C142  H62   S    
C63   C99   A    
C136  H56   S    
C27   C44   S    
Cu7   O11   S    
Cu2   O18   S    
C61   C77   A    
C87   C95   A    
C6    C38   S    
C109  H37   S    
C79   C91   A    
Cu10  O38   S    
C47   O45   A    
Cu9   O35   S    
O53   H69   S    
Cu2   O22   S    
C118  H46   S    
C56   C97   S    
C12   O52   S    
Cu6   O30   S    
C69   C103  A    
C85   H29   S    
C84   H28   S    
C21   O61   S    
C35   C135  A    
C87   H31   S    
C78   C92   A    
C115  H43   S    
C77   H21   S    
C56   O30   A    
C117  C122  A    
O61   H77   S    
C130  H50   S    
C44   O40   A    
C45   O41   A    
Cu12  O48   S    
C3    C35   S    
O54   H70   S    
C22   C142  A    
O59   H75   S    
C69   H13   S    
C109  C114  A    
C114  C123  A    
C68   H12   S    
C54   O28   A    
C6    O10   A    
C120  H48   S    
C71   H15   S    
C54   C99   S    
C106  H34   S    
C16   C136  A    
Cu8   O32   S    
C69   C85   A    
C120  C121  A    
C67   C101  A    
C20   C32   A    
Cu6   O26   S    
C9    O49   S    
C3    O3    A    
C62   C78   A    
C51   O23   A    
C36   C134  A    
Cu3   O19   S    
C82   H26   S    
Cu5   O9    S    
C35   C131  A    
C42   O38   A    
C85   C95   A    
C55   O31   A    
C75   C89   A    
C143  H63   S    
C109  C126  A    
C114  H42   S    
C107  H35   S    
O56   H72   S    
Cu4   O24   S    
C108  H36   S    
C111  H39   S    
Cu8   O12   S    
C8    O14   A    
C14   O54   S    
C135  H55   S    
C88   C96   A    
C17   C29   A    
O52   H68   S    
C19   C31   A    
Cu3   O5    S    
C9    C25   A    
C7    O11   A    
C58   C74   A    
Cu5   O15   S    
C37   C141  A    
C12   C28   A    
C68   C102  A    
Cu7   O27   S    
Cu2   O2    S    
C70   C104  A    
Cu7   O13   S    
C65   H9    S    
C28   C41   S    
C2    O2    A    
C41   O39   A    
C112  H40   S    
C71   C103  A    
C141  H61   S    
C59   H3    S    
C139  H59   S    
C58   C98   A    
C90   C127  S    
C111  C116  A    
C4    O6    A    
C94   C123  S    
O49   H65   S    
C64   C80   A    
C108  C119  A    
C51   O21   A    
Cu1   Cu3   S    
Cu2   Cu4   S    
C53   C100  S    
C16   C26   A    
C7    O15   A    
C1    C33   S    
C68   C84   A    
C76   H20   S    
C119  H47   S    
O62   H78   S    
C24   O64   S    
C18   O58   S    
C72   C104  A    
C75   H19   S    
O64   H80   S    
C10   C130  A    
O57   H73   S    
C52   O22   A    
C129  H49   S    
C65   C81   A    
O58   H74   S    
C46   O46   A    
C111  C126  A    
C84   C94   A    
C86   C96   A    
C62   C100  A    
Cu11  O44   S    
C86   H30   S    
C106  C117  A    
C3    O7    A    
Cu3   O3    S    
C1    O5    A    
C138  H58   S    
Cu5   O25   S    
C115  C124  A    
C78   H22   S    
C38   C144  A    
C25   C42   S    
C74   H18   S    
Cu2   O6    S    
C29   C46   S    
C20   C140  A    
C16   O56   S    
C36   C132  A    
C70   H14   S    
C73   C89   A    
C62   H6    S    
C24   C144  A    
C56   O32   A    
C54   O26   A    
Cu8   O28   S    
C64   C100  A    
C19   O59   S    
Cu10  O39   S    
C76   C90   A    
C89   C128  S    
Cu5   O31   S    
Cu9   O34   S    
C91   C126  S    
C40   C142  A    
O63   H79   S    
C66   C102  A    
C93   C124  S    
C81   H25   S    
C13   O53   S    
Cu7   O29   S    
C63   C79   A    
C61   H5    S    
C80   H24   S    
C107  C128  A    
C52   O24   A    
C116  H44   S    
C15   C135  A    
C48   O48   A    
Cu11  O42   S    
Cu12  O45   S    
Cu1   O17   S    
C110  H38   S    
C18   C30   A    
C34   C136  A    
C23   O63   S    
C10   C26   A    
C37   C137  A    
C13   C25   A    
C61   C99   A    
C117  H45   S    
C72   C88   A    
C26   C43   S    
C53   O25   A    
C66   H10   S    
C30   C47   S    
C50   O18   A    
C58   H2    S    
C14   C134  A    
C47   O43   A    
O55   H71   S    
C4    O4    A    
C48   O44   A    
C118  C121  A    
C17   O57   S    
O51   H67   S    
C110  C113  A    
Cu10  O37   S    
Cu9   O36   S    
C39   C143  A    
C132  H52   S    
C59   C97   A    
C5    O9    A    
C15   O55   S    
C70   C86   A    
C59   C75   A    
C43   O37   A    
C119  C122  A    
C43   O35   A    
C57   H1    S    
C105  C128  A    
C137  H57   S    
C20   O60   S    
C60   H4    S    
C11   C131  A    
C9    C129  A    
C46   O42   A    
C10   O50   S    
Cu4   O4    S    
C8    O12   A    
Cu12  O47   S    
C112  C115  A    
C108  C127  A    
C73   H17   S    
C24   C30   A    
C140  H60   S    
C110  C125  A    
C33   C133  A    
C88   H32   S    
C34   C130  A    
C113  H41   S    
C5    O13   A    
C14   C28   A    
Cu9   Cu10  S    
C39   C139  A    
