data_mof_unit_48523.cif
_audit_creation_date              2012-12-10T18:58:11-0500
_audit_creation_method            fapswitch 2.2
_symmetry_space_group_name_H-M    P1
_symmetry_Int_Tables_number       1
_space_group_crystal_system       triclinic
_cell_length_a                    11.251109
_cell_length_b                    10.826691
_cell_length_c                    9.623654
_cell_angle_alpha                 89.722802
_cell_angle_beta                  102.141423
_cell_angle_gamma                 93.152118
_cell_volume                      1144.29595178

loop_
_atom_site_label
_atom_site_type_symbol
_atom_type_description
_atom_site_fract_x
_atom_site_fract_y
_atom_site_fract_z
_atom_type_partial_charge
C1    C     C_R   0.499889 0.262765 0.500001 0.869026
C2    C     C_R   0.497205 0.129367 0.499631 -0.157439
C3    C     C_R   0.410861 0.060379 0.398917 -0.268010
C4    C     C_R   0.410552 0.931043 0.398531 0.626868
C5    C     C_R   0.497563 0.870674 0.498439 -0.157560
C6    C     C_R   0.578493 0.940248 0.602091 -0.039395
C7    C     C_3   0.714544 0.942126 0.635605 -0.442437
C8    C     C_3   0.713344 0.081917 0.639804 1.081514
C9    C     C_R   0.511411 0.607873 0.075451 0.026656
C10   C     C_R   0.467833 0.396485 0.069404 -0.084765
C11   C     C_R   0.463674 0.395547 0.920686 0.072719
C12   C     C_R   0.263749 0.503045 0.443996 0.800790
C13   C     C_R   0.522354 0.605835 0.933692 0.047906
C14   C     C_3   0.624163 0.704573 0.960165 0.319452
C15   C     C_3   0.600819 0.714718 0.111675 0.989039
C16   C     C_R   0.500405 0.737357 0.499617 0.879997
C17   C     C_R   0.735427 0.504124 0.556988 0.873975
C18   C     C_2   0.129935 0.502080 0.419865 -0.342091
C19   C     C_2   0.068689 0.524585 0.524653 -0.089377
C20   C     C_2   0.865780 0.530622 0.587752 0.304772
C21   C     C_2   0.935252 0.496376 0.497188 0.506844
C22   C     C_R   0.577665 0.068050 0.603512 0.000827
Cu1   Cu    Cu3+1 0.499990 0.499980 0.640670 1.001787
Cu2   Cu    Cu3+1 0.500010 0.500020 0.359330 1.047481
H1    H     H_    0.441874 0.313356 0.120915 0.153855
H2    H     H_    0.079884 0.471810 0.315905 0.184347
H3    H     H_    0.344944 0.106569 0.320300 0.167081
H4    H     H_    0.751331 0.900927 0.740217 0.225797
H5    H     H_    0.751891 0.906185 0.546418 0.203257
N1    N     N_R   0.500780 0.500930 0.148120 -0.191399
N2    N     N_R   0.500790 0.500890 0.852210 -0.211903
O1    O     O_R   0.500000 0.319640 0.618810 -0.578041
O2    O     O_R   0.500010 0.319680 0.381230 -0.584438
O3    O     O_R   0.320680 0.500000 0.575130 -0.599678
O4    O     O_R   0.320690 0.500040 0.337550 -0.592962
O5    O     O_R   0.499990 0.680320 0.618770 -0.551593
O6    O     O_R   0.500000 0.680360 0.381190 -0.511385
O7    O     O_R   0.679310 0.499960 0.662450 -0.570994
O8    O     O_R   0.679320 0.500000 0.424870 -0.500664
F1    F     F_    0.882831 0.428597 0.378887 -0.646972
F2    F     F_    0.763157 0.139897 0.534981 -0.651403
C23   C     C_R   0.417097 0.275942 0.849767 0.125708
C24   C     C_R   0.307410 0.265999 0.748240 -0.109963
C25   C     C_R   0.259754 0.152163 0.688579 -0.156132
C26   C     C_R   0.318220 0.045131 0.734972 -0.140760
C27   C     C_R   0.422914 0.051986 0.843052 -0.075346
C28   C     C_R   0.473680 0.166625 0.898474 -0.127200
H6    H     H_    0.259417 0.345420 0.712643 0.154936
H7    H     H_    0.177312 0.147074 0.606674 0.163403
H8    H     H_    0.282309 0.957615 0.686098 0.131090
H9    H     H_    0.465375 0.968865 0.883171 0.245832
H10   H     H_    0.555935 0.170049 0.980798 0.176550
C29   C     C_R   0.754658 0.672486 0.969025 0.084456
C30   C     C_R   0.843607 0.771044 0.996196 -0.040454
C31   C     C_R   0.964858 0.749087 0.053074 -0.069220
C32   C     C_R   0.998512 0.628760 0.084200 -0.082271
C33   C     C_R   0.913350 0.529087 0.048911 -0.013298
C34   C     C_R   0.791527 0.550459 0.992081 -0.031465
H11   H     H_    0.817600 0.865989 0.985605 0.178745
H12   H     H_    0.031602 0.825816 0.079626 0.160795
H13   H     H_    0.090814 0.613483 0.137398 0.126892
H14   H     H_    0.940652 0.435565 0.071662 0.145776
H15   H     H_    0.726060 0.472361 0.976766 0.136689
F3    F     F_    0.593298 0.807784 0.879106 -0.683287
F4    F     F_    0.697230 0.689652 0.222160 -0.665505
F5    F     F_    0.545428 0.821672 0.134537 -0.630165
C35   C     C_R   0.131339 0.566207 0.670642 0.191027
C36   C     C_R   0.191895 0.683566 0.694593 -0.045609
C37   C     C_R   0.245321 0.721988 0.833393 -0.095293
C38   C     C_R   0.240184 0.643704 0.947589 -0.102671
C39   C     C_R   0.183367 0.525759 0.924034 -0.158254
C40   C     C_R   0.124637 0.489266 0.787280 -0.080771
H16   H     H_    0.196700 0.744773 0.606382 0.111731
H17   H     H_    0.291733 0.811718 0.854040 0.149409
H18   H     H_    0.280598 0.674546 0.054719 0.190048
H19   H     H_    0.181555 0.463917 0.012364 0.132749
H20   H     H_    0.075780 0.399646 0.771421 0.129340
F6    F     F_    0.910462 0.603141 0.704005 -0.698351
F7    F     F_    0.327020 0.865370 0.300191 -0.671984
F8    F     F_    0.757345 0.132195 0.773903 -0.668659

loop_
_geom_bond_atom_site_label_1
_geom_bond_atom_site_label_2
_ccdc_geom_bond_type
C25   H7    S    
C31   C32   A    
C7    H5    S    
C18   H2    S    
C17   C20   S    
C1    O2    A    
C33   H14   S    
C26   C27   A    
C19   C21   S    
C35   C40   A    
C5    C6    A    
C6    C22   A    
Cu2   O8    S    
C32   C33   A    
C11   C23   S    
C18   C19   D    
C17   O8    A    
C9    C13   A    
C5    C16   S    
C27   C28   A    
C36   C37   A    
C2    C22   A    
C8    C22   S    
Cu1   Cu2   S    
C19   C35   S    
C38   C39   A    
C24   H6    S    
C16   O6    A    
C17   O7    A    
C11   N2    A    
C13   C14   S    
C30   H11   S    
Cu2   O4    S    
C35   C36   A    
C7    C8    S    
C8    F2    S    
C4    F7    S    
C36   H16   S    
C29   C30   A    
C15   F5    S    
C27   H9    S    
C1    O1    A    
C7    H4    S    
Cu1   N2    S    
C24   C25   A    
C40   H20   S    
C10   N1    A    
Cu1   O3    S    
C14   F3    S    
Cu2   O6    S    
C37   H17   S    
C12   O4    A    
C6    C7    S    
C9    N1    A    
C10   H1    S    
C23   C24   A    
C12   O3    A    
C3    C4    A    
C25   C26   A    
C34   H15   S    
C30   C31   A    
C14   C15   S    
C13   N2    A    
C4    C5    A    
C29   C34   A    
C28   H10   S    
Cu1   O7    S    
Cu2   O2    S    
C20   F6    S    
Cu1   O1    S    
C3    H3    S    
C2    C3    A    
C9    C15   S    
C39   C40   A    
C16   O5    A    
C33   C34   A    
C39   H19   S    
C21   F1    S    
C26   H8    S    
C1    C2    S    
C23   C28   A    
C37   C38   A    
Cu2   N1    S    
C10   C11   A    
C14   C29   S    
C20   C21   D    
Cu1   O5    S    
C12   C18   S    
C38   H18   S    
C8    F8    S    
C32   H13   S    
C31   H12   S    
C15   F4    S    
