data_mof_unit_56005.cif
_audit_creation_date              2012-12-10T18:44:22-0500
_audit_creation_method            fapswitch 2.2
_symmetry_space_group_name_H-M    P1
_symmetry_Int_Tables_number       1
_space_group_crystal_system       triclinic
_cell_length_a                    12.770979
_cell_length_b                    10.697184
_cell_length_c                    9.955536
_cell_angle_alpha                 88.528293
_cell_angle_beta                  96.00234
_cell_angle_gamma                 91.090981
_cell_volume                      1351.97523215

loop_
_atom_site_label
_atom_site_type_symbol
_atom_type_description
_atom_site_fract_x
_atom_site_fract_y
_atom_site_fract_z
_atom_type_partial_charge
C1    C     C_R   0.495253 0.260624 0.500977 0.858377
C2    C     C_R   0.503835 0.739689 0.499244 0.857800
C3    C     C_R   0.504351 0.872653 0.498438 -0.075431
C4    C     C_R   0.494530 0.128158 0.503305 -0.080632
C5    C     C_R   0.587510 0.538336 0.079393 0.027779
C6    C     C_R   0.411414 0.465912 0.920716 0.039020
C7    C     C_R   0.587640 0.534020 0.936940 -0.060792
C8    C     C_R   0.413510 0.461910 0.063298 -0.105640
C9    C     C_R   0.298874 0.500014 0.474015 0.884747
C10   C     C_R   0.701114 0.499952 0.525974 0.878414
C11   C     C_R   0.813040 0.503585 0.543255 -0.105237
C12   C     C_R   0.186934 0.496461 0.456576 -0.012468
C13   C     C_R   0.028549 0.397126 0.357898 -0.008989
C14   C     C_R   0.971702 0.603212 0.641338 -0.024073
C15   C     C_R   0.136899 0.409251 0.369547 -0.343270
C16   C     C_R   0.863189 0.590209 0.630857 -0.219460
C17   C     C_R   0.129975 0.581669 0.522377 0.090394
C18   C     C_R   0.869846 0.419042 0.476453 0.166733
C19   C     C_R   0.025780 0.547865 0.541204 -0.015271
C20   C     C_R   0.973764 0.453418 0.456889 0.101416
C21   C     C_R   0.563993 0.072917 0.424720 -0.233455
C22   C     C_R   0.435205 0.928009 0.577939 -0.241846
C23   C     C_R   0.572129 0.944902 0.423823 0.164482
C24   C     C_R   0.429502 0.056493 0.582479 0.130474
H1    H     H_    0.817615 0.643334 0.694897 0.200820
H2    H     H_    0.182332 0.355267 0.306021 0.153211
H3    H     H_    0.615299 0.130301 0.367383 0.169845
H4    H     H_    0.384697 0.870588 0.636336 0.163482
H5    H     H_    0.656491 0.564242 0.889259 0.186100
H6    H     H_    0.343619 0.434311 0.110286 0.163521
N1    N     N_R   0.499970 0.499970 0.857200 -0.140742
N2    N     N_R   0.500030 0.500030 0.142800 -0.138310
O1    O     O_R   0.499990 0.316750 0.614620 -0.605928
O2    O     O_R   0.500010 0.683250 0.385380 -0.629104
O3    O     O_R   0.499990 0.316780 0.385290 -0.612273
O4    O     O_R   0.500010 0.683220 0.614710 -0.623947
O5    O     O_R   0.346360 0.499970 0.595710 -0.647060
O6    O     O_R   0.653640 0.500030 0.404290 -0.640716
O7    O     O_R   0.346360 0.499990 0.366380 -0.626660
O8    O     O_R   0.653640 0.500010 0.633620 -0.621490
Zn1   Zn    Zn3+2 0.500000 0.499980 0.653120 0.943167
Zn2   Zn    Zn3+2 0.500000 0.500020 0.346880 0.934944
C25   C     C_3   0.824491 0.287584 0.449203 -0.391316
C26   C     C_3   0.798509 0.220070 0.579427 -0.881223
H7    H     H_    0.867697 0.223189 0.656899 0.281339
H8    H     H_    0.730323 0.262488 0.620263 0.271716
H9    H     H_    0.778187 0.120577 0.558637 0.249252
H10   H     H_    0.753050 0.292196 0.375629 0.242338
H11   H     H_    0.881399 0.226455 0.407606 0.212394
C27   C     C_3   0.175628 0.712956 0.550068 -0.478154
C28   C     C_3   0.202884 0.780262 0.420320 -0.815107
H12   H     H_    0.271261 0.737464 0.380358 0.261214
H13   H     H_    0.134208 0.777520 0.342059 0.277867
H14   H     H_    0.223439 0.879670 0.441417 0.239411
H15   H     H_    0.118471 0.774526 0.590549 0.218762
H16   H     H_    0.246474 0.708229 0.624571 0.202457
C29   C     C_2   0.977996 0.336416 0.234548 0.399525
H17   H     H_    0.022199 0.271489 0.181269 0.069720
O9    O     O_2   0.888945 0.362902 0.187147 -0.519124
C30   C     C_2   0.026024 0.661780 0.764162 0.421869
H18   H     H_    0.109404 0.647957 0.791724 0.043001
O10   O     O_2   0.977881 0.724238 0.837505 -0.545378
C31   C     C_3   0.658582 0.892217 0.350978 -0.410683
C32   C     C_3   0.629164 0.897917 0.198159 -0.828986
H19   H     H_    0.558231 0.838689 0.170251 0.256686
H20   H     H_    0.612892 0.995582 0.162620 0.262334
H21   H     H_    0.695571 0.864071 0.146143 0.257768
H22   H     H_    0.732320 0.947785 0.375280 0.206596
H23   H     H_    0.677616 0.796003 0.387345 0.190406
C33   C     C_3   0.352466 0.110676 0.670175 -0.383881
C34   C     C_3   0.396133 0.102327 0.819036 -0.732371
H24   H     H_    0.465540 0.165947 0.838201 0.268879
H25   H     H_    0.334945 0.129202 0.883534 0.279129
H26   H     H_    0.419726 0.005199 0.848506 0.231048
H27   H     H_    0.332697 0.208849 0.641164 0.233829
H28   H     H_    0.276791 0.057073 0.656140 0.196534
C35   C     C_2   0.680882 0.594997 0.154172 0.437411
H29   H     H_    0.672388 0.648954 0.241157 0.107055
O11   O     O_2   0.767998 0.587322 0.115122 -0.521226
C36   C     C_2   0.307226 0.447234 0.846764 0.437576
H30   H     H_    0.268016 0.525911 0.794350 0.058983
O12   O     O_2   0.259983 0.347584 0.854212 -0.609580

loop_
_geom_bond_atom_site_label_1
_geom_bond_atom_site_label_2
_ccdc_geom_bond_type
C11   C18   A    
C7    H5    S    
C3    C23   A    
C19   C20   A    
O2    Zn2   S    
C24   C33   S    
C35   H29   S    
C30   O10   D    
O6    Zn2   S    
C4    C24   A    
C29   O9    D    
C13   C29   S    
C9    O7    A    
C10   O8    A    
O3    Zn2   S    
C31   H23   S    
C12   C17   A    
C33   C34   S    
C25   H10   S    
C18   C20   A    
C26   H9    S    
C5    N2    A    
C2    O2    A    
C23   C31   S    
C6    N1    A    
C21   H3    S    
C22   H4    S    
O4    Zn1   S    
C26   H8    S    
O7    Zn2   S    
C35   O11   D    
C7    N1    A    
C1    O1    A    
C28   H12   S    
C8    N2    A    
C32   H21   S    
C36   O12   D    
C5    C7    A    
C25   H11   S    
C15   H2    S    
C6    C8    A    
C27   H16   S    
C30   H18   S    
C28   H13   S    
C32   H20   S    
C25   C26   S    
C11   C16   A    
C6    C36   S    
C12   C15   A    
C9    O5    A    
C27   C28   S    
O8    Zn1   S    
C13   C15   A    
C33   H28   S    
C14   C16   A    
C5    C35   S    
C26   H7    S    
C1    O3    A    
C34   H25   S    
C2    O4    A    
C16   H1    S    
C31   H22   S    
N1    Zn1   S    
C13   C20   A    
C14   C19   A    
C36   H30   S    
C17   C27   S    
C34   H26   S    
C14   C30   S    
C27   H15   S    
C10   O6    A    
C28   H14   S    
C8    H6    S    
C32   H19   S    
C1    C4    S    
C21   C23   A    
C2    C3    S    
O1    Zn1   S    
C34   H24   S    
C18   C25   S    
C4    C21   A    
C29   H17   S    
C17   C19   A    
C22   C24   A    
O5    Zn1   S    
C9    C12   S    
C10   C11   S    
C31   C32   S    
C33   H27   S    
N2    Zn2   S    
C3    C22   A    
