data_mof_unit_45150.cif
_audit_creation_date              2012-12-10T17:29:17-0500
_audit_creation_method            fapswitch 2.2
_symmetry_space_group_name_H-M    P1
_symmetry_Int_Tables_number       1
_space_group_crystal_system       triclinic
_cell_length_a                    12.118413
_cell_length_b                    12.86244
_cell_length_c                    12.981817
_cell_angle_alpha                 86.674937
_cell_angle_beta                  113.161921
_cell_angle_gamma                 94.958109
_cell_volume                      1852.80763685

loop_
_atom_site_label
_atom_site_type_symbol
_atom_type_description
_atom_site_fract_x
_atom_site_fract_y
_atom_site_fract_z
_atom_type_partial_charge
C1    C     C_R   0.476112 0.300250 0.497868 0.849932
C2    C     C_R   0.547149 0.461140 0.982769 0.039890
C3    C     C_R   0.582673 0.513273 0.900742 -0.077838
C4    C     C_R   0.492803 0.519137 0.037181 0.068234
C5    C     C_R   0.478974 0.627269 0.010288 -0.051156
C6    C     C_R   0.541122 0.680689 0.948971 0.429861
C7    C     C_R   0.594109 0.623202 0.895297 0.122699
C8    C     C_R   0.453388 0.473972 0.118870 -0.210198
C9    C     C_R   0.368105 0.634043 0.129063 0.183605
C10   C     C_R   0.602568 0.453821 0.823889 -0.071788
C11   C     C_R   0.536700 0.813428 0.497108 -0.190076
C12   C     C_R   0.565610 0.490497 0.708135 0.899428
C13   C     C_R   0.461225 0.189171 0.499669 -0.162189
C14   C     C_R   0.436802 0.034658 0.601277 -0.092786
C15   C     C_R   0.429460 0.140359 0.582926 -0.243075
C16   C     C_R   0.502741 0.133450 0.433946 0.445126
C17   C     C_R   0.526892 0.028779 0.462983 -0.024051
C18   C     C_R   0.483694 0.976941 0.541127 -0.001173
C19   C     C_R   0.486524 0.868977 0.556828 0.136306
C20   C     C_R   0.588712 0.865526 0.426503 0.058580
C21   C     C_R   0.590262 0.974277 0.414805 0.238651
C22   C     C_R   0.025154 0.618177 0.427077 -0.359745
C23   C     C_R   0.523219 0.700719 0.500810 0.975153
C24   C     C_R   0.140700 0.605564 0.428856 0.614103
C25   C     C_R   0.149102 0.445483 0.531875 0.183208
C26   C     C_R   0.027010 0.450339 0.520646 -0.103224
C27   C     C_R   0.968465 0.541557 0.473537 -0.029567
C28   C     C_R   0.854037 0.554996 0.474441 -0.000260
C29   C     C_R   0.850830 0.389430 0.561521 0.021879
C30   C     C_R   0.961546 0.369885 0.558110 0.392685
C31   C     C_R   0.434856 0.508534 0.291299 0.866896
C32   C     C_R   0.406427 0.680011 0.048278 -0.172730
C33   C     C_R   0.402532 0.533765 0.172517 -0.101903
C34   C     C_R   0.618085 0.346945 0.844256 -0.213527
C35   C     C_R   0.601262 0.297018 0.935235 0.227630
C36   C     C_R   0.561504 0.352380 0.001738 -0.156919
H1    H     H_    0.410209 0.001236 0.666780 0.205349
H2    H     H_    0.403489 0.184402 0.637026 0.199822
H3    H     H_    0.809454 0.624994 0.438572 0.174754
H4    H     H_    0.803181 0.328286 0.591656 0.174925
H5    H     H_    0.979690 0.688153 0.389420 0.175277
H6    H     H_    0.383716 0.759047 0.019611 0.188407
H7    H     H_    0.474453 0.396305 0.152839 0.143590
H8    H     H_    0.633269 0.300817 0.784368 0.154518
H9    H     H_    0.540630 0.307577 0.065182 0.165633
N1    N     N_R   0.798200 0.480260 0.519790 -0.142312
N2    N     N_R   0.201820 0.519740 0.480210 -0.127934
O1    O     O_R   0.579910 0.341070 0.505280 -0.617710
O2    O     O_R   0.388440 0.353740 0.492580 -0.599869
O3    O     O_R   0.643280 0.490550 0.663120 -0.604379
O4    O     O_R   0.451810 0.503220 0.650420 -0.580351
O5    O     O_R   0.611560 0.646260 0.507420 -0.600920
O6    O     O_R   0.420090 0.658930 0.494720 -0.528974
O7    O     O_R   0.548190 0.496780 0.349580 -0.597417
O8    O     O_R   0.356720 0.509450 0.336880 -0.572459
Zn1   Zn    Zn3+2 0.627850 0.491540 0.508480 0.989666
Zn2   Zn    Zn3+2 0.372150 0.508460 0.491520 1.049632
I1    I     I_    0.277375 0.730593 0.190377 -0.242661
I2    I     I_    0.645498 0.781934 0.319608 -0.326697
I3    I     I_    0.706752 0.053979 0.341117 -0.152140
O9    O     O_3   0.514110 0.178421 0.338856 -0.730527
H10   H     H_    0.467949 0.241568 0.314931 0.321008
O10   O     O_3   0.994610 0.268725 0.580445 -0.716121
H11   H     H_    0.029924 0.252635 0.526555 0.357162
O11   O     O_3   0.195948 0.682493 0.384540 -0.700177
H12   H     H_    0.143253 0.741370 0.355718 0.338650
O12   O     O_3   0.555926 0.788302 0.943246 -0.695691
H13   H     H_    0.555239 0.817109 0.012048 0.358562
I4    I     I_    0.259762 0.344002 0.659656 -0.276994
I5    I     I_    0.616734 0.134404 0.960910 -0.235939
I6    I     I_    0.716336 0.704737 0.831067 -0.205364
I7    I     I_    0.400440 0.790539 0.661485 -0.233982

loop_
_geom_bond_atom_site_label_1
_geom_bond_atom_site_label_2
_ccdc_geom_bond_type
C17   C18   A    
C12   O3    A    
C31   C33   S    
C15   H2    S    
C26   C30   A    
C29   C30   A    
O4    Zn2   S    
O7    Zn1   S    
N2    Zn2   S    
C14   C18   A    
C25   I4    S    
C2    C4    A    
C35   C36   A    
C9    C32   A    
C8    H7    S    
C29   N1    A    
C4    C8    A    
C5    C32   A    
C11   C19   A    
O8    Zn2   S    
C2    C3    A    
C23   O5    A    
C34   H8    S    
C36   H9    S    
C1    O1    A    
C3    C10   A    
C30   O10   S    
C20   I2    S    
C9    C33   A    
C28   N1    A    
C26   C27   A    
C6    C7    A    
C10   C12   S    
C24   O11   S    
C5    C6    A    
C29   H4    S    
C11   C23   S    
C6    O12   S    
C23   O6    A    
C3    C7    A    
C8    C33   A    
C13   C15   A    
C31   O7    A    
C7    I6    S    
O9    H10   S    
C34   C35   A    
C22   C24   A    
C11   C20   A    
C22   H5    S    
C1    C13   S    
C16   O9    S    
N1    Zn1   S    
O12   H13   S    
C16   C17   A    
O5    Zn1   S    
C22   C27   A    
C12   O4    A    
O2    Zn2   S    
C20   C21   A    
C21   I3    S    
C10   C34   A    
C9    I1    S    
C13   C16   A    
C2    C36   A    
C27   C28   A    
O1    Zn1   S    
C32   H6    S    
C14   C15   A    
C18   C19   A    
O6    Zn2   S    
C25   N2    A    
C28   H3    S    
C31   O8    A    
C25   C26   A    
C24   N2    A    
C1    O2    A    
O11   H12   S    
O3    Zn1   S    
C19   I7    S    
O10   H11   S    
C35   I5    S    
C4    C5    A    
C14   H1    S    
C17   C21   A    
