data_mof_unit_30503.cif
_audit_creation_date              2012-12-10T17:55:52-0500
_audit_creation_method            fapswitch 2.2
_symmetry_space_group_name_H-M    P1
_symmetry_Int_Tables_number       1
_space_group_crystal_system       triclinic
_cell_length_a                    11.038156
_cell_length_b                    10.775007
_cell_length_c                    9.682968
_cell_angle_alpha                 89.626876
_cell_angle_beta                  102.868495
_cell_angle_gamma                 93.770784
_cell_volume                      1120.26056007

loop_
_atom_site_label
_atom_site_type_symbol
_atom_type_description
_atom_site_fract_x
_atom_site_fract_y
_atom_site_fract_z
_atom_type_partial_charge
C1    C     C_R   0.499766 0.262657 0.500407 0.773059
C2    C     C_R   0.501497 0.737414 0.500302 0.763769
C3    C     C_R   0.263157 0.501166 0.441869 0.851577
C4    C     C_R   0.737032 0.501422 0.557874 0.840069
C5    C     C_R   0.420323 0.418398 0.053205 0.165133
C6    C     C_R   0.582556 0.578493 0.947518 0.166522
C7    C     C_R   0.415348 0.425379 0.903880 0.065677
C8    C     C_R   0.575416 0.583638 0.093588 0.074140
C9    C     C_2   0.127797 0.502904 0.408800 -0.361650
C10   C     C_2   0.872790 0.506543 0.589275 -0.341923
C11   C     C_2   0.067976 0.518545 0.512575 -0.102302
C12   C     C_2   0.932720 0.511140 0.483225 -0.168829
C13   C     C_R   0.579282 0.070689 0.430449 -0.169162
C14   C     C_R   0.426234 0.929632 0.575552 -0.162326
C15   C     C_R   0.580584 0.942134 0.431494 -0.148480
C16   C     C_R   0.426026 0.058252 0.576147 -0.196162
C17   C     C_R   0.502215 0.871495 0.501371 -0.020809
C18   C     C_R   0.501482 0.128749 0.502206 -0.015182
Cu1   Cu    Cu3+1 0.500000 0.500020 0.640660 0.931026
Cu2   Cu    Cu3+1 0.500000 0.499980 0.359340 0.931496
H1    H     H_    0.882008 0.507747 0.373153 0.166797
H2    H     H_    0.118885 0.535427 0.621052 0.223177
H3    H     H_    0.924149 0.507356 0.698939 0.175677
H4    H     H_    0.076653 0.489093 0.299690 0.147910
H5    H     H_    0.640437 0.124863 0.376235 0.142450
H6    H     H_    0.366033 0.875499 0.631044 0.149714
H7    H     H_    0.645263 0.898337 0.381958 0.181598
H8    H     H_    0.365019 0.101984 0.631330 0.125964
N1    N     N_R   0.500030 0.500030 0.852080 -0.226746
N2    N     N_R   0.499970 0.499970 0.147920 -0.225080
O1    O     O_R   0.499990 0.319660 0.618740 -0.601613
O2    O     O_R   0.500010 0.680340 0.381260 -0.558442
O3    O     O_R   0.499990 0.319630 0.381170 -0.593040
O4    O     O_R   0.500010 0.680370 0.618830 -0.602959
O5    O     O_R   0.320690 0.500020 0.575130 -0.566311
O6    O     O_R   0.679310 0.499980 0.424870 -0.604609
O7    O     O_R   0.320680 0.499990 0.337560 -0.596419
O8    O     O_R   0.679320 0.500010 0.662440 -0.588787
C19   C     C_3   0.338055 0.315622 0.102474 -0.359835
C20   C     C_3   0.387763 0.186861 0.090756 -0.375830
C21   C     C_3   0.306438 0.084210 0.141636 -0.792282
H9    H     H_    0.300422 0.102171 0.252585 0.251122
H10   H     H_    0.211165 0.079032 0.072815 0.248423
H11   H     H_    0.347427 0.993326 0.137037 0.266254
H12   H     H_    0.390407 0.165895 0.979464 0.201583
H13   H     H_    0.484441 0.185566 0.154916 0.243790
H14   H     H_    0.326529 0.328557 0.209740 0.249282
H15   H     H_    0.240844 0.316401 0.040506 0.209400
C22   C     C_3   0.685921 0.660126 0.903853 -0.340618
C23   C     C_3   0.814610 0.610390 0.963197 -0.399036
C24   C     C_3   0.918515 0.697242 0.928465 -0.834700
H16   H     H_    0.903690 0.710977 0.812288 0.248397
H17   H     H_    0.921228 0.788971 0.981156 0.260692
H18   H     H_    0.009568 0.656320 0.967125 0.252220
H19   H     H_    0.831909 0.600743 0.080055 0.196846
H20   H     H_    0.818600 0.516760 0.917762 0.241826
H21   H     H_    0.673876 0.671358 0.790240 0.247339
H22   H     H_    0.685003 0.757343 0.939731 0.214278
C25   C     C_2   0.316279 0.352307 0.803702 0.395032
H23   H     H_    0.338611 0.281481 0.737656 0.081600
O9    O     O_2   0.206979 0.370740 0.795158 -0.597522
C26   C     C_2   0.645002 0.685275 0.185018 0.385468
H24   H     H_    0.717123 0.666908 0.276734 0.075222
O10   O     O_2   0.621643 0.792784 0.156386 -0.593876

loop_
_geom_bond_atom_site_label_1
_geom_bond_atom_site_label_2
_ccdc_geom_bond_type
C16   H8    S    
C6    C8    A    
C11   C12   S    
C4    O6    A    
C9    H4    S    
C26   H24   S    
C7    N1    A    
Cu1   O8    S    
C10   H3    S    
C9    C11   D    
C21   H9    S    
C11   H2    S    
C15   H7    S    
C23   H19   S    
C3    O5    A    
C24   H18   S    
C8    N2    A    
C2    O4    A    
C13   C15   A    
C23   C24   S    
Cu1   O1    S    
C25   H23   S    
C16   C18   A    
Cu1   O5    S    
C14   H6    S    
C2    C17   S    
C20   H13   S    
Cu2   O7    S    
C21   H10   S    
C14   C17   A    
C13   H5    S    
C1    C18   S    
C10   C12   D    
C13   C18   A    
C3    C9    S    
Cu2   O3    S    
C19   H14   S    
C7    C25   S    
C20   C21   S    
C4    O8    A    
C22   C23   S    
C5    C7    A    
C5    C19   S    
C6    C22   S    
C20   H12   S    
C21   H11   S    
C14   C16   A    
C25   O9    D    
C1    O3    A    
C24   H16   S    
Cu1   N1    S    
C1    O1    A    
C6    N1    A    
C22   H21   S    
C3    O7    A    
C2    O2    A    
C5    N2    A    
Cu2   O2    S    
C19   C20   S    
C15   C17   A    
C26   O10   D    
Cu2   N2    S    
C4    C10   S    
C12   H1    S    
C23   H20   S    
C22   H22   S    
Cu1   Cu2   S    
C8    C26   S    
C19   H15   S    
C24   H17   S    
Cu1   O4    S    
Cu2   O6    S    
