data_mof_unit_68418.cif
_audit_creation_date              2012-10-26T19:02:34-0400
_audit_creation_method            fapswitch 2.2
_symmetry_space_group_name_H-M    P1
_symmetry_Int_Tables_number       1
_space_group_crystal_system       triclinic
_cell_length_a                    17.251733
_cell_length_b                    8.700214
_cell_length_c                    7.504773
_cell_angle_alpha                 102.995683
_cell_angle_beta                  91.188606
_cell_angle_gamma                 95.030749
_cell_volume                      1092.39017616

loop_
_atom_site_label
_atom_site_type_symbol
_atom_type_description
_atom_site_fract_x
_atom_site_fract_y
_atom_site_fract_z
_atom_type_partial_charge
C1    C     C_R   0.496463 0.199767 0.453856 0.528836
C2    C     C_R   0.780354 0.638322 0.574277 0.230402
C3    C     C_R   0.141881 0.439298 0.363739 0.225582
C4    C     C_R   0.859395 0.624621 0.606698 0.277766
C5    C     C_R   0.111291 0.558424 0.495305 -0.093845
C6    C     C_R   0.893080 0.493151 0.501661 -0.070132
C7    C     C_R   0.157446 0.646497 0.645291 -0.137068
C8    C     C_R   0.847998 0.378586 0.370229 -0.159973
C9    C     C_R   0.235305 0.619196 0.665643 0.190300
C10   C     C_R   0.768073 0.388918 0.345484 0.190074
C11   C     C_2   0.029309 0.584549 0.486874 -0.016040
C12   C     C_R   0.502446 0.800197 0.546468 0.523119
C13   C     C_2   0.975902 0.474295 0.518134 -0.000545
C14   C     C_3   0.253564 0.153700 0.368838 -0.014248
C15   C     C_3   0.192455 0.016069 0.293026 -0.323810
C16   C     C_3   0.732159 0.861654 0.518889 -0.024961
C17   C     C_3   0.800782 0.979175 0.501063 -0.339469
C18   C     C_3   0.752902 0.269844 0.037867 -0.005856
C19   C     C_3   0.686217 0.243318 0.894870 -0.331871
C20   C     C_3   0.268378 0.665860 0.968756 0.017195
C21   C     C_3   0.330202 0.750537 0.113248 -0.333218
C22   C     C_3   0.396946 0.237030 0.978358 0.048450
C23   C     C_2   0.492000 0.031475 0.429363 -0.172695
C24   C     C_3   0.335039 0.143743 0.839620 -0.378827
C25   C     C_3   0.592668 0.770413 0.082081 0.020418
C26   C     C_3   0.662476 0.835869 0.995069 -0.340273
C27   C     C_2   0.505244 0.968514 0.571775 -0.168807
C28   C     C_R   0.351158 0.499202 0.523679 0.575572
C29   C     C_R   0.648843 0.502882 0.475712 0.586110
C30   C     C_R   0.266839 0.503779 0.532775 -0.024361
C31   C     C_R   0.733461 0.510530 0.462440 -0.012639
C32   C     C_R   0.218398 0.405069 0.390882 0.225638
Cu1   Cu    Cu3+1 0.508700 0.517250 0.683000 1.049151
Cu2   Cu    Cu3+1 0.491300 0.482750 0.317000 1.022209
H1    H     H_    0.993167 0.363048 0.541787 0.172302
H2    H     H_    0.204317 0.912326 0.349125 0.083239
H3    H     H_    0.133833 0.049999 0.334023 0.210639
H4    H     H_    0.681570 0.929322 0.562926 0.128646
H5    H     H_    0.715521 0.784476 0.381460 0.119465
H6    H     H_    0.783346 0.054938 0.409155 0.119896
H7    H     H_    0.819393 0.055589 0.637247 0.197217
H8    H     H_    0.850232 0.914766 0.440889 0.186113
H9    H     H_    0.789192 0.168533 0.005079 0.169006
H10   H     H_    0.789011 0.379921 0.025918 0.162446
H11   H     H_    0.650654 0.345296 0.922409 0.223579
H12   H     H_    0.013068 0.693714 0.455988 0.178111
H13   H     H_    0.709695 0.231969 0.756354 0.097577
H14   H     H_    0.648194 0.134608 0.897633 0.131837
H15   H     H_    0.271377 0.535673 0.950638 0.193508
H16   H     H_    0.210162 0.696529 0.018624 0.115863
H17   H     H_    0.332684 0.880246 0.125963 0.117454
H18   H     H_    0.316406 0.723865 0.247540 0.121909
H19   H     H_    0.388118 0.711527 0.073568 0.195161
H20   H     H_    0.887282 0.934382 0.031845 0.371395
H21   H     H_    0.070936 0.551287 0.067232 0.342656
H22   H     H_    0.374001 0.244640 0.115856 0.205657
H23   H     H_    0.133174 0.737792 0.745588 0.187286
H24   H     H_    0.449882 0.171315 0.964283 0.124415
H25   H     H_    0.281704 0.207341 0.848290 0.192954
H26   H     H_    0.357126 0.128235 0.699494 0.135310
H27   H     H_    0.320146 0.025362 0.868263 0.161656
H28   H     H_    0.601522 0.817632 0.231292 0.132826
H29   H     H_    0.538932 0.817056 0.038385 0.124694
H30   H     H_    0.644929 0.843498 0.855125 0.191021
H31   H     H_    0.683181 0.956158 0.075594 0.132492
H32   H     H_    0.710564 0.758618 0.991643 0.236823
H33   H     H_    0.874995 0.280673 0.287034 0.174664
H34   H     H_    0.477182 0.959135 0.293255 0.098560
H35   H     H_    0.519375 0.041046 0.708284 0.115089
H36   H     H_    0.248192 0.189263 0.520116 0.110880
H37   H     H_    0.312257 0.111992 0.346026 0.115458
H38   H     H_    0.193433 0.982915 0.141360 0.195037
N1    N     N_2   0.478180 0.456750 0.041980 0.070547
N2    N     N_2   0.521820 0.543250 0.958020 0.085110
O1    O     O_R   0.505650 0.286040 0.618880 -0.494636
O2    O     O_3   0.749073 0.777095 0.653765 -0.538662
O3    O     O_3   0.722410 0.278597 0.213673 -0.563559
O4    O     O_3   0.282537 0.715419 0.804758 -0.566302
O5    O     O_2   0.971565 0.689842 0.876549 -0.285682
O6    O     O_2   0.954817 0.893879 0.705045 -0.298958
O7    O     O_3   0.853214 0.853569 0.943448 -0.514700
O8    O     O_2   0.138431 0.270002 0.011564 -0.256137
O9    O     O_2   0.032773 0.207344 0.203170 -0.284108
O10   O     O_3   0.032663 0.465456 0.086652 -0.482982
O11   O     O_3   0.412573 0.389091 0.945586 -0.469188
O12   O     O_R   0.494350 0.713960 0.381120 -0.526138
O13   O     O_3   0.589879 0.603733 0.046997 -0.470526
O14   O     O_R   0.490960 0.256910 0.309800 -0.544094
O15   O     O_R   0.509040 0.743090 0.690200 -0.523004
O16   O     O_R   0.394600 0.516230 0.672450 -0.434235
O17   O     O_R   0.605400 0.483770 0.327550 -0.436879
O18   O     O_R   0.379910 0.487100 0.363380 -0.509014
O19   O     O_R   0.620090 0.512900 0.636620 -0.496739
O20   O     O_3   0.246544 0.276762 0.275232 -0.532213
S1    S     S_3+6 0.912976 0.767676 0.784682 0.021641
S2    S     S_3+6 0.086510 0.338964 0.161412 0.015432

loop_
_geom_bond_atom_site_label_1
_geom_bond_atom_site_label_2
_ccdc_geom_bond_type
C32   O20   S    
C24   H27   S    
C14   H37   S    
C29   O17   A    
C15   H38   S    
C5    C11   S    
Cu1   O15   S    
C24   H25   S    
C25   H29   S    
O7    S1    S    
C19   H13   S    
C25   O13   S    
C18   C19   S    
N1    N2    D    
C22   O11   S    
C26   H30   S    
C17   H8    S    
C15   H3    S    
C20   H16   S    
Cu2   O17   S    
C10   C31   A    
Cu1   O1    S    
C16   C17   S    
C3    S2    S    
C23   C27   D    
N2    O13   S    
C30   C32   A    
C27   H35   S    
C9    O4    S    
C1    O14   A    
C14   H36   S    
C29   O19   A    
C10   O3    S    
Cu2   O18   S    
O8    S2    D    
C12   C27   S    
C26   H32   S    
C12   O15   A    
C4    C6    A    
C5    C7    A    
C19   H14   S    
C22   H22   S    
C16   H5    S    
C25   C26   S    
C2    C31   A    
C17   H6    S    
C1    O1    A    
C23   H34   S    
C2    C4    A    
O5    S1    D    
C20   H15   S    
C18   H10   S    
C4    S1    S    
C24   H26   S    
Cu1   Cu2   S    
C28   O18   A    
Cu2   O14   S    
O6    S1    D    
N1    O11   S    
C9    C30   A    
C1    C23   S    
C22   C24   S    
O10   S2    S    
C15   H2    S    
C21   H17   S    
C2    O2    S    
C7    C9    A    
C16   O2    S    
C26   H31   S    
Cu2   O12   S    
C3    C5    A    
Cu1   O19   S    
C22   H24   S    
C6    C8    A    
C19   H11   S    
C13   H1    S    
C20   O4    S    
C12   O12   A    
C28   C30   S    
C29   C31   S    
C18   H9    S    
C6    C13   S    
C21   H19   S    
C11   C13   D    
C18   O3    S    
O9    S2    D    
C14   O20   S    
C25   H28   S    
C21   H18   S    
C3    C32   A    
C17   H7    S    
Cu2   N1    S    
Cu1   N2    S    
C20   C21   S    
C8    H33   S    
C8    C10   A    
C14   C15   S    
C11   H12   S    
C28   O16   A    
H21   O10   S    
Cu1   O16   S    
C7    H23   S    
H20   O7    S    
C16   H4    S    
