data_mof_unit_18596.cif
_audit_creation_date              2013-03-05T15:54:27-0500
_audit_creation_method            fapswitch 2.2
_symmetry_space_group_name_H-M    P1
_symmetry_Int_Tables_number       1
_space_group_crystal_system       triclinic
_cell_length_a                    15.694753
_cell_length_b                    10.721858
_cell_length_c                    10.029671
_cell_angle_alpha                 90.554673
_cell_angle_beta                  89.854209
_cell_angle_gamma                 94.686803
_cell_volume                      1682.03716541

loop_
_atom_site_label
_atom_site_type_symbol
_atom_site_description
_atom_site_fract_x
_atom_site_fract_y
_atom_site_fract_z
_atom_type_partial_charge
O1    O     O_R   0.500000 0.316780 0.614690 -0.650130
O2    O     O_R   0.499990 0.316750 0.385360 -0.615523
C1    C     C_R   0.512584 0.263855 0.499455 0.869117
O3    O     O_R   0.376780 0.500000 0.614650 -0.648149
O4    O     O_R   0.376770 0.499980 0.385310 -0.547919
C2    C     C_R   0.338636 0.502210 0.500138 0.899897
Zn1   Zn    Zn3+2 0.500010 0.500020 0.653130 0.993316
Zn2   Zn    Zn3+2 0.499990 0.499980 0.346870 1.048856
O5    O     O_R   0.500010 0.683250 0.614640 -0.584366
O6    O     O_R   0.500000 0.683220 0.385310 -0.580522
O7    O     O_R   0.623230 0.500020 0.614690 -0.555559
O8    O     O_R   0.623220 0.500000 0.385350 -0.561960
C3    C     C_R   0.500577 0.741618 0.501619 0.902822
C4    C     C_R   0.661602 0.502122 0.499926 0.887853
C5    C     C_3   0.968932 0.436494 0.594555 0.268431
C6    C     C_3   0.023304 0.399697 0.474993 0.003172
H1    H     H_    0.944761 0.447719 0.280502 0.212934
C7    C     C_1   0.250421 0.508679 0.500631 -0.073119
C8    C     C_1   0.750446 0.506290 0.499799 -0.066932
C9    C     C_3   0.029972 0.552453 0.621462 0.195356
C10   C     C_3   0.084999 0.516707 0.502335 -0.132004
C11   C     C_3   0.977519 0.631448 0.529450 -0.026004
C12   C     C_3   0.916636 0.513705 0.502032 -0.083011
C13   C     C_3   0.032067 0.593583 0.410008 0.320608
C14   C     C_3   0.970323 0.477171 0.380043 -0.230168
C15   C     C_1   0.175589 0.513817 0.501438 0.115772
C16   C     C_1   0.825791 0.510069 0.500440 0.104542
C17   C     C_R   0.583245 0.138692 0.731402 -0.154968
H2    H     H_    0.614912 0.231928 0.723271 0.195713
C18   C     C_R   0.587997 0.079010 0.851256 -0.177874
H3    H     H_    0.619299 0.129830 0.933750 0.167110
C19   C     C_R   0.550438 0.957332 0.866052 0.175884
C20   C     C_R   0.501006 0.899856 0.760478 0.208319
C21   C     C_R   0.515479 0.948864 0.629365 0.074319
C22   C     C_R   0.544307 0.075782 0.621372 -0.000769
C23   C     C_R   0.537425 0.136308 0.500316 -0.108364
C24   C     C_R   0.550559 0.069976 0.382981 0.167099
H4    H     H_    0.541046 0.887377 0.295393 0.194207
C25   C     C_R   0.533190 0.940417 0.385967 -0.227261
C26   C     C_R   0.509793 0.878898 0.506350 -0.132835
C27   C     C_R   0.407574 0.305180 0.136812 0.400450
C28   C     C_R   0.408851 0.189601 0.072250 -0.320416
H5    H     H_    0.388134 0.104008 0.123671 0.203375
C29   C     C_R   0.413067 0.186489 0.934561 -0.282527
H6    H     H_    0.395584 0.097649 0.885581 0.174611
C30   C     C_R   0.409046 0.298602 0.864971 0.270804
C31   C     C_R   0.447318 0.410404 0.927529 0.033538
C32   C     C_R   0.446717 0.412227 0.071909 -0.051339
N1    N     N_R   0.499210 0.498800 0.142780 -0.173513
C33   C     C_R   0.564015 0.561846 0.071697 0.221837
C34   C     C_R   0.563600 0.562594 0.928303 0.191164
N2    N     N_R   0.499180 0.498720 0.857170 -0.181076
C35   C     C_3   0.051367 0.269260 0.443933 -0.324869
C36   C     C_3   0.975079 0.176187 0.412692 -0.783632
H7    H     H_    0.931653 0.165557 0.500096 0.275987
H8    H     H_    0.939024 0.207999 0.325946 0.264569
H9    H     H_    0.998055 0.083527 0.387872 0.263551
H10   H     H_    0.095152 0.275139 0.356619 0.253119
H11   H     H_    0.086716 0.235979 0.530736 0.224214
C37   C     C_3   0.562437 0.893314 0.996359 -0.446305
C38   C     C_3   0.658382 0.894602 0.032661 -0.653022
H12   H     H_    0.688297 0.815578 0.985650 0.307196
H13   H     H_    0.696854 0.980862 0.002505 0.232940
H14   H     H_    0.666742 0.889500 0.141531 0.261251
H15   H     H_    0.525491 0.940681 0.072774 0.175220
H16   H     H_    0.534199 0.795684 0.993327 0.203705
C39   C     C_3   0.417894 0.823844 0.799722 -0.436561
C40   C     C_3   0.342012 0.841570 0.707996 -0.787558
H17   H     H_    0.334613 0.942753 0.693750 0.243542
H18   H     H_    0.349646 0.795771 0.609760 0.245137
H19   H     H_    0.282500 0.798173 0.754001 0.289716
H20   H     H_    0.426992 0.723264 0.811515 0.246880
H21   H     H_    0.397892 0.855638 0.900106 0.196730
N3    N     N_R   0.638732 0.612828 0.140780 0.222031
O9    O     O_R   0.710310 0.560949 0.126560 -0.329361
O10   O     O_R   0.632460 0.694686 0.235463 -0.412378
N4    N     N_R   0.340606 0.315236 0.231863 0.232256
O11   O     O_R   0.327418 0.230386 0.323261 -0.434676
O12   O     O_R   0.278836 0.384252 0.202733 -0.384415
C41   C     C_3   0.330030 0.295185 0.777153 -0.406091
C42   C     C_3   0.266755 0.388112 0.823581 -0.650421
H22   H     H_    0.243576 0.363859 0.925533 0.282496
H23   H     H_    0.296369 0.485643 0.825838 0.275034
H24   H     H_    0.210841 0.382403 0.755635 0.253741
H25   H     H_    0.346327 0.299882 0.670702 0.237090
H26   H     H_    0.293146 0.201978 0.781720 0.191299
N5    N     N_R   0.637122 0.616266 0.858456 0.222653
O13   O     O_R   0.707877 0.561032 0.860413 -0.303930
O14   O     O_R   0.630790 0.708987 0.777776 -0.399228
N6    N     N_R   0.935687 0.350743 0.697763 0.235352
O15   O     O_R   0.988307 0.292737 0.770087 -0.359033
O16   O     O_R   0.853857 0.331834 0.718513 -0.362895
N7    N     N_R   0.065852 0.679324 0.307252 0.231465
O17   O     O_R   0.013600 0.736469 0.233397 -0.328591
O18   O     O_R   0.147814 0.698842 0.288177 -0.357241
C43   C     C_3   0.947922 0.761224 0.559855 -0.335327
C44   C     C_3   0.023064 0.858591 0.582779 -0.753059
H27   H     H_    0.062828 0.831654 0.667434 0.289895
H28   H     H_    0.063420 0.869055 0.491943 0.274470
H29   H     H_    0.998524 0.950401 0.606829 0.255169
H30   H     H_    0.909080 0.790624 0.475048 0.232460
H31   H     H_    0.906916 0.755711 0.650373 0.251585
N8    N     N_R   0.060339 0.591830 0.753730 0.236594
O19   O     O_R   0.005600 0.612958 0.847140 -0.284379
O20   O     O_R   0.141700 0.612046 0.777426 -0.414827
C45   C     C_3   0.596723 0.133334 0.265398 -0.431520
C46   C     C_3   0.685240 0.192126 0.304502 -0.774352
H32   H     H_    0.680542 0.264289 0.383260 0.240038
H33   H     H_    0.725247 0.119063 0.341737 0.260510
H34   H     H_    0.717112 0.236977 0.216144 0.267411
H35   H     H_    0.607478 0.065894 0.187130 0.207613
H36   H     H_    0.559389 0.203236 0.217513 0.235955

loop_
_geom_bond_atom_site_label_1
_geom_bond_atom_site_label_2
_geom_bond_distance
_ccdc_geom_bond_type
C30   C41   1.520724 S    
N5    O13   1.300790 A    
N7    O17   1.300239 A    
C43   H31   1.110743 S    
C27   C28   1.394212 A    
C22   C23   1.390812 A    
C7    C15   1.180242 T    
C10   C15   1.424665 S    
C42   H24   1.109833 S    
C44   H27   1.109361 S    
C35   H11   1.110809 S    
C9    N8    1.457656 S    
C45   H36   1.102672 S    
C35   C36   1.525847 S    
Zn1   O7    1.971001 S    
C6    C10   1.543663 S    
N3    O10   1.295889 A    
C21   C26   1.436892 A    
C17   H2    1.083125 S    
Zn1   N2    2.046639 S    
C21   C22   1.401507 A    
C33   N3    1.430401 S    
C27   N4    1.427100 S    
C18   H3    1.082791 S    
O7    C4    1.297250 A    
C45   C46   1.528417 S    
C5    C6    1.537052 S    
C39   H20   1.106826 S    
C38   H13   1.106639 S    
O5    C3    1.299795 A    
C6    C35   1.529195 S    
C3    C26   1.467501 S    
C41   H26   1.114497 S    
C42   H23   1.109149 S    
C36   H7    1.110047 S    
C17   C22   1.402835 A    
C40   H17   1.111086 S    
C46   H32   1.106902 S    
C39   H21   1.112503 S    
C12   C16   1.423258 S    
C8    C16   1.179935 T    
C5    C12   1.532945 S    
C37   H16   1.103047 S    
N7    O18   1.300261 A    
C43   H30   1.110725 S    
C46   H33   1.111142 S    
C28   C29   1.382606 A    
O3    Zn1   1.973142 S    
C44   H28   1.109594 S    
C29   C30   1.401762 A    
C33   C34   1.438335 A    
C45   H35   1.084372 S    
N4    O12   1.302171 A    
C5    C9    1.528587 S    
C2    C7    1.391902 S    
C36   H8    1.110542 S    
N3    O9    1.300587 A    
C34   N2    1.371603 A    
H4    C25   1.079228 S    
C13   C14   1.543974 S    
O3    C2    1.297843 A    
C34   N5    1.431301 S    
C25   C26   1.414671 A    
N4    O11   1.302007 A    
C42   H22   1.110569 S    
C39   C40   1.531928 S    
C37   C38   1.549066 S    
O1    C1    1.304321 A    
C38   H14   1.102531 S    
C41   H25   1.097922 S    
N6    O16   1.300276 A    
C31   C32   1.448037 A    
Zn2   O8    1.973143 S    
C43   C44   1.526134 S    
C20   C21   1.431558 A    
N8    O20   1.299757 A    
Zn2   O6    1.998465 S    
C32   N1    1.382338 A    
C9    C11   1.542624 S    
C37   H15   1.104473 S    
N5    O14   1.298123 A    
C46   H34   1.110642 S    
C11   C13   1.541115 S    
C28   H5    1.083259 S    
C19   C37   1.501478 S    
C44   H29   1.110137 S    
C29   H6    1.082974 S    
C20   C39   1.533142 S    
C6    C14   1.555809 S    
Zn1   O5    2.005798 S    
C30   C31   1.435658 A    
C23   C24   1.392749 A    
O1    Zn1   1.998466 S    
C11   C43   1.530227 S    
C4    C8    1.391441 S    
O2    Zn2   2.005800 S    
O8    C4    1.297977 A    
C41   C42   1.531706 S    
O6    C3    1.318305 A    
O4    Zn2   1.971000 S    
C35   H10   1.110883 S    
C31   N2    1.393277 A    
H1    C14   1.110245 S    
C19   C20   1.419958 A    
C17   C18   1.372306 A    
O2    C1    1.304704 A    
C24   C45   1.519188 S    
C24   C25   1.394181 A    
C13   N7    1.457515 S    
C5    N6    1.458210 S    
C18   C19   1.396121 A    
N6    O15   1.300282 A    
O4    C2    1.297477 A    
C1    C23   1.452452 S    
C40   H19   1.110285 S    
C27   C32   1.419737 A    
C12   C14   1.549134 S    
C38   H12   1.103087 S    
C9    C10   1.536317 S    
C40   H18   1.107195 S    
N1    C33   1.375862 A    
C10   C13   1.535459 S    
N8    O19   1.300275 A    
C11   C12   1.542689 S    
Zn2   N1    2.046933 S    
C36   H9    1.110101 S    
