data_mof_unit_29831.cif
_audit_creation_date              2012-12-10T17:03:56-0500
_audit_creation_method            fapswitch 2.2
_symmetry_space_group_name_H-M    P1
_symmetry_Int_Tables_number       1
_space_group_crystal_system       triclinic
_cell_length_a                    9.973399
_cell_length_b                    11.073187
_cell_length_c                    15.494049
_cell_angle_alpha                 96.563173
_cell_angle_beta                  79.171967
_cell_angle_gamma                 111.133556
_cell_volume                      1565.59241903

loop_
_atom_site_label
_atom_site_type_symbol
_atom_type_description
_atom_site_fract_x
_atom_site_fract_y
_atom_site_fract_z
_atom_type_partial_charge
C1    C     C_R   0.557195 0.745204 0.503045 0.790062
C2    C     C_R   0.447133 0.256495 0.488767 0.822006
C3    C     C_R   0.321004 0.313753 0.066018 -0.052854
C4    C     C_R   0.660531 0.421545 0.908472 -0.067848
C5    C     C_R   0.214617 0.289384 0.010464 -0.077974
C6    C     C_R   0.769017 0.472648 0.963056 -0.060013
C7    C     C_2   0.583031 0.884766 0.506136 -0.250284
C8    C     C_2   0.436260 0.125706 0.457206 -0.190224
C9    C     C_2   0.493492 0.928204 0.471765 -0.067659
C10   C     C_2   0.466943 0.049655 0.507258 -0.059881
C11   C     C_2   0.933870 0.505259 0.483997 0.043938
C12   C     C_2   0.084275 0.523363 0.500803 -0.052038
C13   C     C_R   0.411319 0.481830 0.663190 0.788481
C14   C     C_R   0.587482 0.512210 0.336312 0.807593
C15   C     C_R   0.354570 0.444906 0.755366 -0.071343
C16   C     C_R   0.637787 0.508210 0.240226 -0.069135
C17   C     C_R   0.156096 0.325663 0.865449 -0.024914
C18   C     C_R   0.831805 0.523284 0.116177 -0.017959
C19   C     C_R   0.206794 0.378177 0.782353 -0.155670
C20   C     C_R   0.784790 0.536044 0.206455 -0.165577
C21   C     C_R   0.451968 0.459559 0.812766 -0.231793
C22   C     C_R   0.536704 0.467170 0.182300 -0.230664
C23   C     C_R   0.407605 0.397980 0.893165 0.072829
C24   C     C_R   0.577316 0.441161 0.091877 0.068498
C25   C     C_R   0.256363 0.337482 0.924091 0.040280
C26   C     C_R   0.728624 0.480377 0.056208 0.031665
C27   C     C_R   0.513169 0.403012 0.944893 -0.031578
C28   C     C_R   0.469576 0.387167 0.035685 -0.011570
Cu1   Cu    Cu3+1 0.362980 0.479380 0.485080 0.971270
Cu2   Cu    Cu3+1 0.637020 0.520620 0.514920 1.009271
H1    H     H_    0.425250 0.457371 0.208509 0.181966
H2    H     H_    0.564986 0.518032 0.793361 0.164334
H3    H     H_    0.864222 0.568492 0.250770 0.148655
H4    H     H_    0.130294 0.364071 0.737522 0.186048
N1    N     N_2   0.842890 0.551600 0.537350 -0.252001
N2    N     N_2   0.157110 0.448400 0.462650 -0.293466
O1    O     O_R   0.426810 0.668300 0.492040 -0.591767
O2    O     O_R   0.573190 0.331700 0.507960 -0.529115
O3    O     O_R   0.658240 0.703130 0.517240 -0.560226
O4    O     O_R   0.341760 0.296870 0.482760 -0.582923
O5    O     O_R   0.319390 0.472820 0.610170 -0.607520
O6    O     O_R   0.680610 0.527180 0.389830 -0.565989
O7    O     O_R   0.550820 0.507640 0.635370 -0.588767
O8    O     O_R   0.449180 0.492360 0.364630 -0.572740
C29   C     C_1   0.064818 0.214079 0.043802 0.341762
N3    N     N_1   0.945767 0.153887 0.071446 -0.211972
C30   C     C_1   0.918380 0.532206 0.921087 0.352552
N4    N     N_1   0.037043 0.580525 0.886847 -0.241463
C31   C     C_1   0.001197 0.256227 0.884129 0.276084
N5    N     N_1   0.877035 0.200411 0.898141 -0.224077
C32   C     C_1   0.985667 0.545749 0.090692 0.237332
N6    N     N_1   0.108931 0.563555 0.071319 -0.247579
C33   C     C_2   0.283176 0.243055 0.148769 0.344255
H5    H     H_    0.362184 0.208792 0.167544 0.113865
O9    O     O_2   0.167919 0.227334 0.198046 -0.513713
C34   C     C_2   0.693898 0.364620 0.817785 0.388880
H6    H     H_    0.606069 0.308334 0.781976 0.109824
O10   O     O_2   0.817422 0.373809 0.783225 -0.543262
C35   C     C_1   0.460436 0.080316 0.601589 0.294259
N7    N     N_1   0.454654 0.104474 0.676562 -0.288188
C36   C     C_1   0.411216 0.849950 0.403993 0.384700
N8    N     N_1   0.346131 0.787501 0.350236 -0.247795
C37   C     C_1   0.430073 0.099701 0.363984 0.297677
N9    N     N_1   0.425476 0.079832 0.289427 -0.258933
C38   C     C_1   0.695474 0.970943 0.554218 0.319308
N10   N     N_1   0.785353 0.039639 0.592539 -0.228981
C39   C     C_2   0.156200 0.640834 0.553964 0.456007
H7    H     H_    0.213876 0.635632 0.605102 0.113631
O11   O     O_2   0.147199 0.744926 0.542857 -0.567210
C40   C     C_2   0.902588 0.448957 0.395759 0.456183
H8    H     H_    0.979615 0.490486 0.338294 0.043857
O12   O     O_2   0.800861 0.348699 0.386720 -0.518342
C41   C     C_1   0.080180 0.320336 0.438367 0.491289
N11   N     N_1   0.016905 0.213797 0.418256 -0.231544
C42   C     C_1   0.860738 0.584772 0.625032 0.501754
N12   N     N_1   0.875247 0.613431 0.697806 -0.293569

loop_
_geom_bond_atom_site_label_1
_geom_bond_atom_site_label_2
_ccdc_geom_bond_type
C41   N11   T    
C18   C26   A    
C13   O5    A    
C11   C40   S    
C33   H5    S    
C15   C19   A    
Cu1   N2    S    
N1    C42   S    
Cu2   N1    S    
C9    C36   S    
C3    C28   A    
C24   C26   A    
C34   H6    S    
Cu2   O2    S    
C40   H8    S    
C14   C16   S    
C23   C27   A    
C12   N2    D    
C9    C10   S    
C1    O1    A    
C14   O6    A    
C35   N7    T    
C4    C34   S    
C12   C39   S    
C18   C32   S    
C33   O9    D    
C21   H2    S    
C22   H1    S    
C32   N6    T    
C4    C6    A    
C6    C30   S    
C17   C31   S    
C29   N3    T    
C5    C29   S    
C39   H7    S    
C39   O11   D    
C42   N12   T    
Cu1   Cu2   S    
C7    C38   S    
C2    O2    A    
C30   N4    T    
C16   C20   A    
C5    C25   A    
C20   H3    S    
C38   N10   T    
C13   C15   S    
Cu1   O8    S    
C22   C24   A    
Cu2   O7    S    
C13   O7    A    
C4    C27   A    
C14   O8    A    
C7    C9    D    
C16   C22   A    
Cu1   O5    S    
C1    C7    S    
C2    C8    S    
C24   C28   A    
C3    C5    A    
C19   H4    S    
C11   C12   S    
C17   C25   A    
C21   C23   A    
C10   C35   S    
C3    C33   S    
C6    C26   A    
Cu1   O4    S    
C11   N1    D    
C17   C19   A    
C34   O10   D    
Cu2   O3    S    
C18   C20   A    
C23   C25   A    
C36   N8    T    
N2    C41   S    
C1    O3    A    
C8    C37   S    
C37   N9    T    
C2    O4    A    
C15   C21   A    
C8    C10   D    
C31   N5    T    
Cu1   O1    S    
C27   C28   A    
Cu2   O6    S    
C40   O12   D    
