data_mof_unit_40153.cif
_audit_creation_date              2013-03-05T15:45:14-0500
_audit_creation_method            fapswitch 2.2
_symmetry_space_group_name_H-M    P1
_symmetry_Int_Tables_number       1
_space_group_crystal_system       triclinic
_cell_length_a                    17.317444
_cell_length_b                    7.005229
_cell_length_c                    16.582676
_cell_angle_alpha                 89.717843
_cell_angle_beta                  101.05951
_cell_angle_gamma                 90.292636
_cell_volume                      1974.28671851

loop_
_atom_site_label
_atom_site_type_symbol
_atom_site_description
_atom_site_fract_x
_atom_site_fract_y
_atom_site_fract_z
_atom_type_partial_charge
O1    O     O_R   0.579510 0.506290 0.439030 -0.613417
O2    O     O_R   0.420490 0.006290 0.560970 -0.612044
O3    O     O_R   0.412540 0.170090 0.405290 -0.572466
O4    O     O_R   0.587460 0.670090 0.594710 -0.561215
C1    C     C_R   0.384891 0.346109 0.381740 1.066171
C2    C     C_R   0.615779 0.846051 0.617599 1.061044
O5    O     O_R   0.578390 0.176230 0.429330 -0.526374
O6    O     O_R   0.421610 0.676230 0.570670 -0.511934
O7    O     O_R   0.587530 0.011250 0.585190 -0.626528
O8    O     O_R   0.412470 0.511250 0.414810 -0.620270
C3    C     C_R   0.602772 0.345525 0.411276 1.113225
C4    C     C_R   0.397273 0.843984 0.589138 1.105627
O9    O     O_3   0.502800 0.340940 0.551110 -0.269186
O10   O     O_3   0.497200 0.840940 0.448890 -0.283046
V1    V     V_3+5 0.499480 0.064020 0.490520 1.266977
V2    V     V_3+5 0.500520 0.564020 0.509480 1.281839
C5    C     C_R   0.167920 0.899601 0.865985 -0.153390
C6    C     C_R   0.832957 0.392754 0.135484 -0.148622
C7    C     C_R   0.335741 0.856162 0.641950 -0.368625
C8    C     C_R   0.663139 0.362090 0.357685 -0.361163
C9    C     C_R   0.225017 0.050205 0.668233 0.394910
C10   C     C_R   0.772905 0.558860 0.328628 0.385995
C11   C     C_R   0.279776 0.001518 0.619972 -0.232046
C12   C     C_R   0.717546 0.512727 0.376885 -0.200155
C13   C     C_R   0.332762 0.744013 0.714402 0.525956
C14   C     C_R   0.666514 0.246110 0.287373 0.533615
C15   C     C_R   0.277838 0.798146 0.765328 -0.043245
C16   C     C_R   0.724437 0.291660 0.238556 -0.036338
C17   C     C_R   0.224545 0.952558 0.742544 -0.023116
C18   C     C_R   0.775173 0.453219 0.257155 -0.019709
C19   C     C_R   0.169439 0.000070 0.792960 -0.067338
C20   C     C_R   0.827336 0.505139 0.203805 -0.088590
C21   C     C_R   0.221769 0.752453 0.888798 -0.152469
C22   C     C_R   0.784932 0.230569 0.119810 -0.141833
C23   C     C_R   0.274278 0.700775 0.839522 0.051263
C24   C     C_R   0.733094 0.179569 0.170389 0.014694
H1    H     H_    0.125140 0.108046 0.774310 0.174980
H2    H     H_    0.865185 0.629107 0.215889 0.169764
H3    H     H_    0.221524 0.670893 0.944520 0.129498
H4    H     H_    0.788628 0.138146 0.068441 0.131801
H5    H     H_    0.310361 0.580087 0.861583 0.194393
H6    H     H_    0.701879 0.047364 0.155138 0.187895
H7    H     H_    0.279454 0.083051 0.564206 0.215974
H8    H     H_    0.717348 0.597100 0.431346 0.217754
C25   C     C_3   0.816075 0.703942 0.763938 0.441413
C26   C     C_3   0.192678 0.193498 0.226468 0.466930
H9    H     H_    0.814727 0.593065 0.811989 0.051830
H10   H     H_    0.199535 0.101252 0.173806 0.047667
C27   C     C_3   0.738922 0.678721 0.698684 -0.438772
C28   C     C_3   0.270417 0.170727 0.290980 -0.479964
H11   H     H_    0.703632 0.561431 0.718592 0.179047
H12   H     H_    0.310566 0.073274 0.266465 0.187290
H13   H     H_    0.751767 0.629148 0.639279 0.241994
H14   H     H_    0.260308 0.100868 0.348087 0.231276
H15   H     H_    0.874561 0.054622 0.714866 0.258036
H16   H     H_    0.119688 0.534779 0.284370 0.253574
C29   C     C_3   0.818414 0.059605 0.737805 -0.351822
C30   C     C_3   0.178125 0.540748 0.266939 -0.357092
C31   C     C_3   0.742407 0.928366 0.840121 -0.550737
C32   C     C_3   0.257325 0.461506 0.161687 -0.553945
C33   C     C_3   0.818706 0.906117 0.805712 -0.230609
C34   C     C_3   0.182225 0.405991 0.193625 -0.212994
H17   H     H_    0.744250 0.063663 0.875461 0.176807
H18   H     H_    0.250656 0.605294 0.132248 0.177002
H19   H     H_    0.739335 0.809743 0.884342 0.211893
H20   H     H_    0.264846 0.359006 0.112677 0.211349
C35   C     C_3   0.689878 0.866432 0.686055 -0.298529
C36   C     C_3   0.311330 0.366309 0.312873 -0.307327
C37   C     C_3   0.745680 0.033475 0.665814 0.200585
C38   C     C_3   0.248509 0.502148 0.340784 0.173448
C39   C     C_3   0.668638 0.929052 0.770337 0.373201
C40   C     C_3   0.330462 0.463474 0.232473 0.389811
H21   H     H_    0.647308 0.079068 0.763234 0.053266
H22   H     H_    0.345582 0.615637 0.247355 0.035180
H23   H     H_    0.815387 0.203304 0.765238 0.171404
H24   H     H_    0.183743 0.690189 0.246048 0.182365
H25   H     H_    0.711961 0.169380 0.661892 0.054597
H26   H     H_    0.276877 0.643400 0.357330 0.073329
O11   O     O_R   0.087500 0.266000 0.085220 -0.590673
O12   O     O_R   0.912500 0.766000 0.914780 -0.597712
O13   O     O_R   0.921600 0.589950 0.070670 -0.600709
O14   O     O_R   0.078400 0.089950 0.929330 -0.603098
C41   C     C_R   0.895353 0.419511 0.086027 0.964325
C42   C     C_R   0.104493 0.920995 0.913916 0.983523
O15   O     O_R   0.087460 0.596020 0.094710 -0.581890
O16   O     O_R   0.912540 0.096020 0.905290 -0.600202
O17   O     O_R   0.079520 0.760970 0.939020 -0.577893
O18   O     O_R   0.920480 0.260970 0.060980 -0.586502
C43   C     C_R   0.112430 0.425280 0.121533 0.997586
C44   C     C_R   0.887826 0.925446 0.878324 1.010351
O19   O     O_3   0.997180 0.425140 0.948910 -0.257908
O20   O     O_3   0.002820 0.925140 0.051090 -0.234750
V3    V     V_3+5 0.000520 0.702080 0.009480 1.257174
V4    V     V_3+5 0.999480 0.202080 0.990520 1.250755
N1    N     N_R   0.770995 0.015115 0.586455 0.280860
O21   O     O_R   0.813617 0.150247 0.562866 -0.304717
O22   O     O_R   0.742358 0.883758 0.533853 -0.377601
N2    N     N_R   0.222516 0.430666 0.415077 0.262624
O23   O     O_R   0.148436 0.403474 0.416548 -0.239854
O24   O     O_R   0.272623 0.423781 0.484348 -0.401496
S1    S     S_3+6 0.589688 0.803276 0.802431 0.011316
O25   O     O_2   0.597766 0.591565 0.793621 -0.247749
O26   O     O_2   0.588596 0.847460 0.890874 -0.219256
O27   O     O_3   0.505539 0.880103 0.744414 -0.551073
H27   H     H_    0.497287 0.009076 0.765347 0.343757
S2    S     S_3+6 0.412950 0.374369 0.193935 0.011390
O28   O     O_2   0.404493 0.163629 0.178601 -0.230426
O29   O     O_2   0.417075 0.472763 0.114054 -0.223642
O30   O     O_3   0.495746 0.422944 0.261087 -0.535269
H28   H     H_    0.502553 0.563000 0.257949 0.343351
N3    N     N_R   0.170916 0.202207 0.640724 0.251633
O31   O     O_R   0.169225 0.352415 0.686204 -0.349426
O32   O     O_R   0.131736 0.203297 0.565515 -0.264056
N4    N     N_R   0.827415 0.712045 0.354403 0.243258
O33   O     O_R   0.902778 0.681559 0.365282 -0.334470
O34   O     O_R   0.802637 0.871793 0.379777 -0.295912
S3    S     S_3+6 0.393736 0.537970 0.746295 0.033913
O35   O     O_2   0.438302 0.571626 0.832217 -0.194722
O36   O     O_2   0.340089 0.369455 0.748116 -0.326702
O37   O     O_3   0.460199 0.475963 0.690258 -0.425871
H29   H     H_    0.480145 0.350073 0.712221 0.360229
S4    S     S_3+6 0.598597 0.052945 0.253722 0.033242
O38   O     O_2   0.566307 0.078809 0.163484 -0.201450
O39   O     O_2   0.643812 0.869273 0.265712 -0.335530
O40   O     O_3   0.520708 0.029907 0.299424 -0.436866
H30   H     H_    0.495238 0.908268 0.278582 0.358924
S5    S     S_3+6 0.902279 0.651976 0.720222 -0.015639
O41   O     O_2   0.974607 0.746732 0.768198 -0.321206
O42   O     O_2   0.915031 0.440075 0.722346 -0.279583
O43   O     O_3   0.889905 0.726874 0.622154 -0.453719
H31   H     H_    0.937519 0.683861 0.602658 0.416175
S6    S     S_3+6 0.107378 0.097563 0.263137 -0.013627
O44   O     O_2   0.042788 0.242622 0.256351 -0.276685
O45   O     O_2   0.076224 0.929752 0.210805 -0.304493
O46   O     O_3   0.130431 0.022008 0.361288 -0.488673
H32   H     H_    0.082813 0.954397 0.371446 0.414911

loop_
_geom_bond_atom_site_label_1
_geom_bond_atom_site_label_2
_geom_bond_distance
_ccdc_geom_bond_type
C30   C34   1.555422 S    
S1    O25   1.500845 D    
O14   V4    2.016263 S    
C15   C17   1.427214 A    
C37   H25   1.114482 S    
C24   H6    1.076389 S    
N1    O21   1.301502 A    
O1    C3    1.312737 A    
C42   O17   1.294805 A    
O2    C4    1.317096 A    
C2    O7    1.328981 A    
N4    O33   1.301366 A    
C30   H24   1.110735 S    
O46   H32   0.990572 S    
C33   C44   1.532309 S    
O5    C3    1.309311 A    
C28   H14   1.106828 S    
C8    C14   1.434910 A    
C26   C34   1.581824 S    
C22   H4    1.084277 S    
S3    O36   1.502265 D    
C26   S6    1.825900 S    
C27   H13   1.108469 S    
C38   H26   1.114327 S    
S2    O28   1.500903 D    
C32   C40   1.552999 S    
C34   C43   1.534282 S    
C11   H7    1.083625 S    
C32   C34   1.542782 S    
C25   C33   1.576296 S    
O16   V4    1.999712 S    
O13   C41   1.316386 A    
O15   V3    2.000252 S    
C8    C12   1.407379 A    
S6    O44   1.502858 D    
C27   H11   1.107771 S    
C28   H12   1.109394 S    
C20   H2    1.081412 S    
C27   C35   1.560379 S    
C22   C24   1.385516 A    
C36   C40   1.583929 S    
O5    V1    2.006991 S    
C41   O18   1.293892 A    
C39   S1    1.786344 S    
C32   H20   1.113715 S    
O6    V2    2.016351 S    
C5    C21   1.394951 A    
C1    C36   1.545667 S    
C7    C13   1.441331 A    
O27   H27   0.990270 S    
C9    N3    1.435657 S    
C26   H10   1.113736 S    
C25   H9    1.113370 S    
O18   V4    2.007686 S    
C3    C8    1.500072 S    
C31   C33   1.545295 S    
O11   V4    2.017826 S    
C40   H22   1.113843 S    
O16   C44   1.318161 A    
S3    O37   1.672203 S    
C39   H21   1.113890 S    
O15   C43   1.319726 A    
C30   C38   1.576628 S    
C15   C23   1.415351 A    
C9    C17   1.407831 A    
C19   H1    1.081151 S    
C35   C37   1.588962 S    
O4    V2    1.999737 S    
C7    C11   1.407070 A    
S5    O42   1.501113 D    
O19   V3    2.184412 S    
O13   V3    2.006908 S    
C25   C27   1.559503 S    
O6    C4    1.307872 A    
O20   V4    2.176135 S    
C6    C41   1.487180 S    
N3    O32   1.300440 A    
O1    V2    2.005725 S    
C21   H3    1.084688 S    
O2    V1    2.000579 S    
C6    C22   1.400133 A    
S6    O45   1.500004 D    
O4    C2    1.353147 A    
C2    C35   1.548062 S    
C40   S2    1.789376 S    
S1    O27   1.674468 S    
O14   C42   1.312671 A    
C9    C11   1.397581 A    
O40   H30   0.990280 S    
C5    C19   1.402178 A    
C10   C12   1.397305 A    
C6    C20   1.401689 A    
S4    O39   1.502059 D    
S5    O41   1.502261 D    
O3    C1    1.353414 A    
O3    V1    2.000279 S    
O37   H29   0.990640 S    
S1    O26   1.504112 D    
C10   C18   1.407380 A    
N3    O31   1.301336 A    
C31   H17   1.113891 S    
C37   N1    1.471094 S    
C13   S3    1.808814 S    
N4    O34   1.300885 A    
N1    O22   1.300320 A    
C29   C33   1.552452 S    
C13   C15   1.441043 A    
C26   C28   1.558912 S    
C14   C16   1.438404 A    
C32   H18   1.113981 S    
C5    C42   1.482725 S    
C29   H23   1.112300 S    
S4    O40   1.675874 S    
H15   C29   1.110735 S    
O43   H31   0.990439 S    
O7    V1    2.001965 S    
S5    O43   1.680727 S    
C1    O8    1.329381 A    
C17   C19   1.425649 A    
O8    V2    2.001944 S    
O30   H28   0.989890 S    
C31   H19   1.113384 S    
O19   V4    1.702599 S    
C18   C20   1.425145 A    
S2    O29   1.503892 D    
C25   S5    1.819325 S    
S6    O46   1.683154 S    
C12   H8    1.082330 S    
O17   V3    2.002445 S    
C4    C7    1.506444 S    
C16   C18   1.427336 A    
O20   V3    1.708452 S    
C21   C23   1.384546 A    
H16   C30   1.105020 S    
C35   C39   1.576708 S    
O12   C44   1.301823 A    
C23   H5    1.074106 S    
N2    O24   1.300866 A    
O11   C43   1.302279 A    
C10   N4    1.436904 S    
C16   C24   1.411309 A    
C36   C38   1.584722 S    
N2    O23   1.300813 A    
O9    V2    1.702876 S    
S4    O38   1.504000 D    
O10   V1    1.708736 S    
C14   S4    1.806972 S    
C29   C37   1.571023 S    
O12   V3    2.017848 S    
S3    O35   1.503626 D    
C28   C36   1.551530 S    
C38   N2    1.474963 S    
C31   C39   1.550472 S    
S2    O30   1.672681 S    
