data_mof_unit_27589.cif
_audit_creation_date              2012-12-10T16:51:31-0500
_audit_creation_method            fapswitch 2.2
_symmetry_space_group_name_H-M    P1
_symmetry_Int_Tables_number       1
_space_group_crystal_system       triclinic
_cell_length_a                    7.818101
_cell_length_b                    8.586105
_cell_length_c                    12.225736
_cell_angle_alpha                 92.230738
_cell_angle_beta                  101.185559
_cell_angle_gamma                 94.453509
_cell_volume                      801.43331594

loop_
_atom_site_label
_atom_site_type_symbol
_atom_type_description
_atom_site_fract_x
_atom_site_fract_y
_atom_site_fract_z
_atom_type_partial_charge
C1    C     C_R   0.041600 0.793878 0.490399 0.920409
C2    C     C_R   0.168512 0.526658 0.829881 -0.129934
C3    C     C_2   0.050863 0.952377 0.461783 -0.081116
C4    C     C_R   0.106821 0.505131 0.709953 0.862280
C5    C     C_2   0.934315 0.040884 0.497953 -0.398400
C6    C     C_R   0.953564 0.205043 0.497306 0.939974
C7    C     C_R   0.893240 0.492218 0.290156 0.858768
C8    C     C_R   0.845665 0.358147 0.991585 -0.185712
C9    C     C_R   0.836936 0.482290 0.170223 -0.062016
C10   C     C_R   0.093478 0.637836 0.888153 -0.198691
C11   C     C_R   0.193130 0.719238 0.982093 -0.182567
C12   C     C_R   0.432045 0.554598 0.973529 0.026239
C13   C     C_R   0.366632 0.687974 0.019631 0.014974
C14   C     C_1   0.480075 0.809366 0.089445 0.104829
C15   C     C_3   0.171098 0.000451 0.381357 -0.374784
C16   C     C_3   0.065484 0.044470 0.269109 -0.314566
C17   C     C_3   0.185984 0.086637 0.188705 -0.902268
C18   C     C_R   0.330961 0.473932 0.877092 0.067607
C19   C     C_R   0.597009 0.501864 0.016544 0.074258
C20   C     C_R   0.674338 0.396586 0.952376 0.170259
C21   C     C_R   0.573733 0.320728 0.856195 -0.228376
C22   C     C_R   0.399567 0.349706 0.824476 -0.190128
C23   C     C_R   0.675672 0.534222 0.127425 -0.250005
C24   C     C_R   0.929601 0.406143 0.100109 -0.186580
H1    H     H_    0.059471 0.372668 0.131847 0.169399
H2    H     H_    0.320512 0.277775 0.755504 0.159690
H3    H     H_    0.271543 0.194845 0.220134 0.263725
H4    H     H_    0.268705 0.990115 0.180103 0.274829
H5    H     H_    0.107069 0.104639 0.105101 0.244949
H6    H     H_    0.972267 0.943341 0.231470 0.225999
H7    H     H_    0.989027 0.145377 0.280533 0.233434
H8    H     H_    0.273824 0.094128 0.418536 0.226328
H9    H     H_    0.246322 0.901268 0.363025 0.204667
H10   H     H_    0.836600 0.994017 0.543112 0.154061
H11   H     H_    0.469953 0.375819 0.416747 0.184939
H12   H     H_    0.530001 0.624127 0.583265 0.193219
H13   H     H_    0.626086 0.231999 0.809767 0.146048
H14   H     H_    0.910154 0.284504 0.941113 0.133968
H15   H     H_    0.603742 0.586375 0.184269 0.172104
H16   H     H_    0.966804 0.676787 0.853104 0.166067
H17   H     H_    0.140020 0.817263 0.018188 0.152627
N1    N     N_2   0.434800 0.456690 0.470850 -0.176822
N2    N     N_2   0.565200 0.543310 0.529150 -0.168744
N3    N     N_1   0.571967 0.906303 0.144722 -0.226676
O1    O     O_R   0.893060 0.738880 0.507150 -0.618784
O2    O     O_R   0.172250 0.711130 0.488470 -0.628524
O3    O     O_R   0.944700 0.520730 0.667600 -0.612559
O4    O     O_R   0.223890 0.492980 0.648920 -0.611872
O5    O     O_R   0.827750 0.288870 0.511530 -0.622592
O6    O     O_R   0.106940 0.261120 0.492850 -0.614055
O7    O     O_R   0.776110 0.507020 0.351080 -0.622133
O8    O     O_R   0.055300 0.479270 0.332400 -0.621693
Zn1   Zn    Zn3+2 0.813580 0.518530 0.512470 0.936068
Zn2   Zn    Zn3+2 0.186420 0.481470 0.487530 0.927876

loop_
_geom_bond_atom_site_label_1
_geom_bond_atom_site_label_2
_ccdc_geom_bond_type
C2    C4    S    
C24   H1    S    
C9    C24   A    
C13   C14   S    
C2    C18   A    
C17   H5    S    
N1    N2    D    
C19   C23   A    
C19   C20   A    
O3    Zn1   S    
C5    H10   S    
O2    Zn2   S    
O1    Zn1   S    
C15   H8    S    
O6    Zn2   S    
C21   C22   A    
C6    O6    A    
C16   H7    S    
O4    Zn2   S    
C11   C13   A    
C1    O1    A    
C8    C20   A    
C8    H14   S    
C23   H15   S    
C12   C19   A    
C14   N3    T    
C8    C24   A    
O8    Zn2   S    
C7    O8    A    
C11   H17   S    
C6    O5    A    
C22   H2    S    
C5    C6    S    
O5    Zn1   S    
C1    O2    A    
C10   C11   A    
O7    Zn1   S    
C7    O7    A    
C15   C16   S    
C17   H3    S    
C3    C15   S    
C12   C13   A    
C21   H13   S    
C10   H16   S    
C4    O4    A    
C12   C18   A    
C7    C9    S    
H11   N1    S    
C9    C23   A    
H12   N2    S    
C3    C5    D    
C20   C21   A    
C18   C22   A    
C17   H4    S    
C16   H6    S    
N2    Zn1   S    
N1    Zn2   S    
C15   H9    S    
C16   C17   S    
C1    C3    S    
C4    O3    A    
C2    C10   A    
