data_mof_unit_64430.cif
_audit_creation_date              2012-12-11T17:26:06-0500
_audit_creation_method            fapswitch 2.2
_symmetry_space_group_name_H-M    P1
_symmetry_Int_Tables_number       1
_space_group_crystal_system       triclinic
_cell_length_a                    6.948363
_cell_length_b                    18.956942
_cell_length_c                    20.733026
_cell_angle_alpha                 107.576201
_cell_angle_beta                  90.233118
_cell_angle_gamma                 90.557557
_cell_volume                      2603.26356803

loop_
_atom_site_label
_atom_site_type_symbol
_atom_type_description
_atom_site_fract_x
_atom_site_fract_y
_atom_site_fract_z
_atom_type_partial_charge
O1    O     O_R   0.505770 0.444240 0.557370 -0.532138
O2    O     O_R   0.169820 0.415250 0.421330 -0.534909
O3    O     O_R   0.005590 0.555760 0.442630 -0.534343
C1    C     C_R   0.338717 0.393628 0.395296 0.719627
O4    O     O_R   0.175660 0.435500 0.555540 -0.539354
O5    O     O_R   0.011460 0.576150 0.577800 -0.532912
C2    C     C_R   0.344473 0.421151 0.575618 0.724888
O6    O     O_R   0.499890 0.423850 0.422200 -0.533173
O7    O     O_3   0.341200 0.546120 0.507150 -0.366291
V1    V     V_3+5 0.063980 0.491440 0.498670 1.431330
O8    O     O_R   0.682100 0.584750 0.578670 -0.535671
C3    C     C_R   0.852030 0.606220 0.604611 0.723212
O9    O     O_R   0.676270 0.564500 0.444460 -0.537078
C4    C     C_R   0.845143 0.578852 0.424357 0.728160
V2    V     V_3+5 0.564720 0.508560 0.501330 1.437089
O10   O     O_3   0.837360 0.453880 0.492850 -0.367343
H1    H     H_    0.189418 0.711496 0.295763 0.112943
C5    C     C_R   0.071119 0.770940 0.231430 -0.149321
H2    H     H_    0.211544 0.786762 0.217567 0.111978
C6    C     C_R   0.903752 0.793173 0.205029 0.135444
C7    C     C_R   0.723595 0.771892 0.223967 -0.148706
H3    H     H_    0.592677 0.788461 0.204251 0.113082
C8    C     C_R   0.710974 0.729017 0.268584 -0.148530
H4    H     H_    0.570550 0.713194 0.282448 0.112600
C9    C     C_R   0.878342 0.706785 0.294986 0.135473
C10   C     C_R   0.058498 0.728065 0.276047 -0.148541
C11   C     C_1   0.916619 0.837914 0.158985 -0.053069
C12   C     C_1   0.865487 0.662048 0.341034 -0.051958
C13   C     C_1   0.855576 0.624408 0.379221 -0.183530
C14   C     C_1   0.926573 0.875557 0.120801 -0.183785
C15   C     C_1   0.916340 0.831594 0.833103 -0.193029
C16   C     C_1   0.900970 0.780146 0.780839 0.009483
C17   C     C_1   0.881439 0.719754 0.719225 0.010070
C18   C     C_1   0.866073 0.668318 0.666953 -0.191887
C19   C     C_1   0.352953 0.331296 0.332776 -0.192687
C20   C     C_1   0.375711 0.280070 0.280658 0.012960
C21   C     C_1   0.406755 0.220021 0.219279 0.015104
C22   C     C_1   0.429509 0.168785 0.167168 -0.185433
C23   C     C_R   0.539641 0.268191 0.802519 0.215497
C24   C     C_R   0.411320 0.208160 0.795944 0.046196
C25   C     C_R   0.271994 0.191793 0.744251 -0.177029
H5    H     H_    0.172382 0.145929 0.738449 0.144390
C26   C     C_R   0.259511 0.234087 0.699429 -0.237733
H6    H     H_    0.150393 0.220115 0.659990 0.139072
C27   C     C_R   0.384914 0.294178 0.705610 0.060930
C28   C     C_R   0.526463 0.311438 0.757354 0.254453
C29   C     C_1   0.421167 0.162678 0.841532 0.059937
C30   C     C_1   0.366454 0.338317 0.659102 0.010345
C31   C     C_1   0.354401 0.375688 0.620787 -0.190607
C32   C     C_1   0.429267 0.124667 0.879414 -0.147981
O11   O     O_R   0.282550 0.076220 0.077760 -0.533371
O12   O     O_R   0.606940 0.064510 0.944450 -0.530324
O13   O     O_R   0.770980 0.923830 0.922210 -0.534614
C33   C     C_R   0.438224 0.078882 0.924342 0.725387
O14   O     O_R   0.612630 0.084760 0.078660 -0.533693
O15   O     O_R   0.776710 0.944230 0.057380 -0.536550
C34   C     C_R   0.443732 0.106428 0.104667 0.723887
O16   O     O_R   0.276820 0.055820 0.942590 -0.534196
O17   O     O_3   0.441200 0.953910 0.992830 -0.369878
V3    V     V_3+5 0.718480 0.008550 0.001330 1.457904
O18   O     O_R   0.106020 0.935440 0.055580 -0.538304
C35   C     C_R   0.937105 0.921114 0.075669 0.722827
O19   O     O_R   0.100330 0.915180 0.921370 -0.537421
C36   C     C_R   0.930397 0.893716 0.895427 0.719100
V4    V     V_3+5 0.217720 0.991360 0.998720 1.443949
O20   O     O_3   0.945130 0.046090 0.007170 -0.361080
N1    N     N_2   0.652617 0.372988 0.764230 -0.507506
H7    H     H_    0.683044 0.403490 0.813519 0.298173
C37   C     C_3   0.822834 0.356072 0.722720 -0.499574
H8    H     H_    0.914844 0.317093 0.739241 0.222474
H9    H     H_    0.906430 0.407729 0.727889 0.199659
H10   H     H_    0.782893 0.331238 0.668584 0.192667
Br1   Br    Br    0.736432 0.289510 0.871757 -0.556741

loop_
_geom_bond_atom_site_label_1
_geom_bond_atom_site_label_2
_ccdc_geom_bond_type
C24   C29   S    
O19   V4    S    
C24   C25   A    
C25   H5    S    
C19   C20   T    
C5    C10   A    
C1    O6    A    
C27   C28   A    
C9    C12   S    
C32   C33   S    
H1    C10   S    
C20   C21   S    
C14   C35   S    
O5    C3    A    
O13   C36   A    
V2    O10   S    
C5    H2    S    
O11   V4    S    
C37   H9    S    
O12   V3    S    
O8    V2    S    
C8    H4    S    
O11   C34   A    
O9    C4    A    
O7    V1    S    
C8    C9    A    
C1    C19   S    
V3    O20   S    
O17   V3    S    
O14   V3    S    
C11   C14   T    
C25   C26   A    
O18   C35   A    
O13   V3    S    
O12   C33   A    
C29   C32   T    
C7    C8    A    
N1    H7    S    
C2    C31   S    
C23   C24   A    
O4    C2    A    
C9    C10   A    
O15   V3    S    
N1    C37   S    
C37   H10   S    
O2    C1    A    
C26   H6    S    
C21   C22   T    
C22   C34   S    
O16   V4    S    
C15   C16   T    
C17   C18   T    
C26   C27   A    
O3    C4    A    
C23   C28   A    
O1    V2    S    
C30   C31   T    
O6    V2    S    
O9    V2    S    
O15   C35   A    
C4    C13   S    
C3    C18   S    
O2    V1    S    
C33   O16   A    
C27   C30   S    
C12   C13   T    
O1    C2    A    
C15   C36   S    
O5    V1    S    
O8    C3    A    
C6    C11   S    
C16   C17   S    
O14   C34   A    
O7    V2    S    
O4    V1    S    
O3    V1    S    
V1    O10   S    
O17   V4    S    
C5    C6    A    
C23   Br1   S    
C37   H8    S    
O19   C36   A    
O18   V4    S    
C28   N1    S    
C6    C7    A    
V4    O20   S    
C7    H3    S    
