data_mof_unit_9088.cif
_audit_creation_date              2012-12-10T18:59:15-0500
_audit_creation_method            fapswitch 2.2
_symmetry_space_group_name_H-M    P1
_symmetry_Int_Tables_number       1
_space_group_crystal_system       triclinic
_cell_length_a                    10.892704
_cell_length_b                    10.829032
_cell_length_c                    9.527952
_cell_angle_alpha                 89.571532
_cell_angle_beta                  89.408621
_cell_angle_gamma                 87.912022
_cell_volume                      1123.0584405

loop_
_atom_site_label
_atom_site_type_symbol
_atom_type_description
_atom_site_fract_x
_atom_site_fract_y
_atom_site_fract_z
_atom_type_partial_charge
C1    C     C_R   0.495350 0.262549 0.500022 0.806937
C2    C     C_R   0.067215 0.422197 0.620284 0.070308
C3    C     C_R   0.129394 0.478348 0.505212 -0.089903
C4    C     C_R   0.063164 0.523093 0.389589 -0.195940
C5    C     C_R   0.936773 0.520473 0.388360 -0.197731
C6    C     C_R   0.872105 0.470000 0.500977 -0.106300
C7    C     C_R   0.479523 0.062843 0.623248 0.190189
C8    C     C_R   0.497790 0.128937 0.499078 -0.077608
C9    C     C_R   0.531261 0.064178 0.376240 -0.211108
C10   C     C_R   0.534089 0.935447 0.376325 -0.216569
C11   C     C_R   0.504029 0.870575 0.499385 -0.104631
C12   C     C_R   0.262611 0.492755 0.501463 0.782167
C13   C     C_R   0.483322 0.935773 0.623605 0.123131
C14   C     C_3   0.379156 0.929764 0.726387 -0.457414
C15   C     C_3   0.375153 0.070106 0.725907 -0.515386
C16   C     C_R   0.543368 0.598216 0.072329 0.258200
C17   C     C_R   0.447458 0.408479 0.075856 -0.085373
C18   C     C_R   0.448046 0.408184 0.927057 -0.083470
C19   C     C_R   0.543078 0.598327 0.924768 0.256180
C20   C     C_3   0.669797 0.645524 0.916389 -0.487708
C21   C     C_3   0.670527 0.644600 0.075594 -0.510729
C22   C     C_R   0.499480 0.737603 0.499596 0.814180
C23   C     C_R   0.737668 0.488148 0.500100 0.806734
C24   C     C_R   0.130319 0.369906 0.737677 -0.246340
C25   C     C_R   0.067205 0.325432 0.854274 0.183096
C26   C     C_R   0.941734 0.313011 0.846975 -0.152938
C27   C     C_R   0.880030 0.343083 0.723146 -0.066905
C28   C     C_R   0.937425 0.413152 0.615461 0.043737
Cu1   Cu    Cu3+1 0.499990 0.499980 0.640670 0.948619
Cu2   Cu    Cu3+1 0.500010 0.500020 0.359330 0.943616
H1    H     H_    0.109107 0.565720 0.301221 0.162457
H2    H     H_    0.408634 0.888664 0.828446 0.198142
H3    H     H_    0.289757 0.112018 0.680002 0.194087
H4    H     H_    0.402472 0.109452 0.827816 0.192995
H5    H     H_    0.406470 0.333290 0.132528 0.142632
H6    H     H_    0.408642 0.332296 0.872816 0.126010
H7    H     H_    0.737449 0.577858 0.869823 0.226428
H8    H     H_    0.671042 0.740058 0.870213 0.197201
H9    H     H_    0.737770 0.575571 0.119593 0.216295
H10   H     H_    0.673469 0.738489 0.121341 0.188748
H11   H     H_    0.228134 0.357301 0.741985 0.165725
H12   H     H_    0.895722 0.263998 0.930972 0.155556
H13   H     H_    0.889133 0.563134 0.300387 0.153553
H14   H     H_    0.552632 0.112532 0.279608 0.163556
H15   H     H_    0.556314 0.887327 0.279651 0.157017
H16   H     H_    0.296038 0.889709 0.680675 0.199724
N1    N     N_R   0.500790 0.500930 0.147930 -0.184018
N2    N     N_R   0.500790 0.500890 0.852020 -0.183768
O1    O     O_R   0.500000 0.319640 0.618810 -0.575799
O2    O     O_R   0.500010 0.319680 0.381230 -0.597655
O3    O     O_R   0.319640 0.499980 0.618820 -0.594402
O4    O     O_R   0.319650 0.500020 0.381230 -0.582237
O5    O     O_R   0.499990 0.680320 0.618770 -0.577686
O6    O     O_R   0.500000 0.680360 0.381190 -0.583468
O7    O     O_R   0.680350 0.499980 0.618770 -0.579797
O8    O     O_R   0.680360 0.500020 0.381180 -0.582371
N3    N     N_3   0.131663 0.281569 0.975982 -0.596732
H17   H     H_    0.196082 0.212993 0.944768 0.207072
H18   H     H_    0.179587 0.355106 0.016220 0.217217
C29   C     C_1   0.783503 0.261562 0.693329 0.256544
N4    N     N_1   0.710868 0.189309 0.672945 -0.304064

loop_
_geom_bond_atom_site_label_1
_geom_bond_atom_site_label_2
_ccdc_geom_bond_type
C18   N2    A    
C23   O7    A    
Cu1   Cu2   S    
C20   H7    S    
C1    C8    S    
C20   H8    S    
C9    C10   A    
C11   C22   S    
Cu1   O7    S    
C19   C20   S    
C21   H9    S    
C7    C13   A    
Cu2   O8    S    
C10   H15   S    
C7    C15   S    
C17   C18   A    
N3    H17   S    
C23   O8    A    
C22   O6    A    
Cu1   O1    S    
C13   C14   S    
C20   C21   S    
C2    C24   A    
C24   H11   S    
Cu2   O6    S    
C26   C27   A    
C16   C21   S    
C21   H10   S    
Cu1   O5    S    
C16   C19   A    
C6    C23   S    
C16   N1    A    
C17   H5    S    
C12   O4    A    
Cu1   O3    S    
C2    C3    A    
C22   O5    A    
C27   C29   S    
C5    H13   S    
C5    C6    A    
Cu2   O2    S    
N3    H18   S    
C4    H1    S    
C7    C8    A    
C10   C11   A    
Cu1   N2    S    
C3    C4    A    
C25   N3    S    
Cu2   N1    S    
C11   C13   A    
C12   O3    A    
C24   C25   A    
C26   H12   S    
C14   H16   S    
C1    O2    A    
C27   C28   A    
Cu2   O4    S    
C14   C15   S    
C29   N4    T    
C9    H14   S    
C2    C28   A    
C3    C12   S    
C15   H4    S    
C25   C26   A    
C19   N2    A    
C4    C5    A    
C18   H6    S    
C15   H3    S    
C6    C28   A    
C17   N1    A    
C14   H2    S    
C8    C9    A    
C1    O1    A    
