data_mof_unit_54903.cif
_audit_creation_date              2012-12-10T18:19:59-0500
_audit_creation_method            fapswitch 2.2
_symmetry_space_group_name_H-M    P1
_symmetry_Int_Tables_number       1
_space_group_crystal_system       triclinic
_cell_length_a                    10.614881
_cell_length_b                    10.643302
_cell_length_c                    9.501531
_cell_angle_alpha                 91.05938
_cell_angle_beta                  90.781283
_cell_angle_gamma                 90.048181
_cell_volume                      1073.17421099

loop_
_atom_site_label
_atom_site_type_symbol
_atom_type_description
_atom_site_fract_x
_atom_site_fract_y
_atom_site_fract_z
_atom_type_partial_charge
C1    C     C_R   0.500652 0.259787 0.498559 0.789078
C2    C     C_3   0.387997 0.514703 0.047353 0.079921
C3    C     C_R   0.259860 0.499375 0.499489 0.801776
C4    C     C_R   0.740140 0.500625 0.500511 0.801775
C5    C     C_3   0.043309 0.466195 0.627994 -0.152044
C6    C     C_3   0.956691 0.533805 0.372006 -0.152043
C7    C     C_3   0.958805 0.385727 0.528789 0.192239
C8    C     C_3   0.041195 0.614273 0.471211 0.192239
C9    C     C_3   0.876968 0.500677 0.500438 -0.052529
C10   C     C_3   0.123032 0.499323 0.499562 -0.052529
C11   C     C_3   0.959838 0.582750 0.598955 -0.162333
C12   C     C_R   0.499348 0.740213 0.501440 0.789078
C13   C     C_3   0.040162 0.417250 0.401045 -0.162331
C14   C     C_3   0.603237 0.044461 0.568634 -0.215728
C15   C     C_3   0.396763 0.955539 0.431366 -0.215728
C16   C     C_3   0.604359 0.954535 0.438050 -0.217270
C17   C     C_3   0.395641 0.045465 0.561950 -0.217270
C18   C     C_3   0.499153 0.877090 0.504352 -0.022394
C19   C     C_3   0.500847 0.122910 0.495647 -0.022394
C20   C     C_3   0.910471 0.254688 0.559417 -0.905232
C21   C     C_3   0.089529 0.745312 0.440583 -0.905232
C22   C     C_3   0.495170 0.930459 0.787694 -0.882504
C23   C     C_3   0.498078 0.965472 0.633503 0.256466
C24   C     C_3   0.504830 0.069541 0.212306 -0.882504
C25   C     C_3   0.648038 0.698544 0.110512 -0.764054
C26   C     C_3   0.351962 0.301455 0.889488 -0.764054
C27   C     C_2   0.742178 0.459471 0.901429 0.406449
C28   C     C_2   0.257822 0.540528 0.098571 0.406452
C29   C     C_3   0.501922 0.034528 0.366497 0.256466
C30   C     C_3   0.568798 0.589630 0.052432 0.277078
C31   C     C_3   0.431202 0.410370 0.947568 0.277077
C32   C     C_3   0.456525 0.605118 0.950160 -0.179826
C33   C     C_3   0.543475 0.394882 0.049840 -0.179823
C34   C     C_3   0.612003 0.485297 0.952647 0.079922
Cu1   Cu    Cu3+1 0.500030 0.499990 0.643150 0.937930
Cu2   Cu    Cu3+1 0.499970 0.500010 0.356850 0.937932
H1    H     H_    0.079904 0.437707 0.732625 0.180156
H2    H     H_    0.583008 0.308088 0.094802 0.134665
H3    H     H_    0.991310 0.189693 0.572478 0.234270
H4    H     H_    0.855037 0.256900 0.657358 0.227620
H5    H     H_    0.849616 0.220638 0.470721 0.230417
H6    H     H_    0.008691 0.810306 0.427521 0.234270
H7    H     H_    0.150384 0.779362 0.529279 0.230417
H8    H     H_    0.144963 0.743099 0.342642 0.227620
H9    H     H_    0.508164 0.016043 0.854749 0.224901
H10   H     H_    0.402480 0.888117 0.810781 0.227197
H11   H     H_    0.572030 0.863183 0.811432 0.245682
H12   H     H_    0.920096 0.562293 0.267375 0.180156
H13   H     H_    0.491836 0.983957 0.145251 0.224901
H14   H     H_    0.427970 0.136817 0.188567 0.245683
H15   H     H_    0.597520 0.111883 0.189219 0.227197
H16   H     H_    0.698297 0.743387 0.022946 0.221647
H17   H     H_    0.586504 0.770282 0.159912 0.220788
H18   H     H_    0.718207 0.664635 0.188231 0.245256
H19   H     H_    0.301703 0.256612 0.977054 0.221648
H20   H     H_    0.281793 0.335364 0.811769 0.245255
H21   H     H_    0.413497 0.229718 0.840088 0.220788
H22   H     H_    0.761063 0.372773 0.844150 0.057440
H23   H     H_    0.924673 0.651237 0.678696 0.177039
H24   H     H_    0.238934 0.627228 0.155846 0.057436
H25   H     H_    0.075327 0.348763 0.321304 0.177041
H26   H     H_    0.689480 0.915282 0.386785 0.138158
H27   H     H_    0.310520 0.084718 0.613214 0.138158
H28   H     H_    0.687215 0.082418 0.625821 0.141757
H29   H     H_    0.312785 0.917582 0.374179 0.141757
H30   H     H_    0.416991 0.691912 0.905198 0.134665
N1    N     N_3   0.500090 0.499970 0.858290 -0.198060
N2    N     N_3   0.499910 0.500030 0.141710 -0.198059
O1    O     O_R   0.500060 0.316850 0.620870 -0.592562
O2    O     O_2   0.172424 0.466179 0.074184 -0.563408
O3    O     O_R   0.499940 0.683150 0.379130 -0.592561
O4    O     O_R   0.500000 0.316860 0.379090 -0.572586
O5    O     O_R   0.500000 0.683140 0.620910 -0.572585
O6    O     O_R   0.316880 0.499960 0.620870 -0.583988
O7    O     O_R   0.683120 0.500040 0.379130 -0.583988
O8    O     O_R   0.316830 0.499970 0.379090 -0.583415
O9    O     O_R   0.683170 0.500030 0.620910 -0.583417
O10   O     O_2   0.827577 0.533816 0.925820 -0.563409

loop_
_geom_bond_atom_site_label_1
_geom_bond_atom_site_label_2
_ccdc_geom_bond_type
C15   C18   S    
Cu1   O6    S    
C5    H1    S    
Cu1   Cu2   S    
C27   O10   D    
C26   H19   S    
C6    C9    S    
C7    C13   S    
C20   H5    S    
C31   N1    S    
C17   C23   S    
C6    H12   S    
C2    C32   S    
C25   H17   S    
C5    C11   S    
C2    N2    S    
C20   H4    S    
C15   H29   S    
C25   C30   S    
C7    C9    S    
C3    O6    A    
C24   C29   S    
C4    O7    A    
Cu2   O8    S    
C21   H7    S    
C31   C33   S    
Cu2   O3    S    
C24   H15   S    
C22   H11   S    
C26   C31   S    
C10   C13   S    
C12   O5    A    
C16   H26   S    
C11   H23   S    
C15   C29   S    
C28   H24   S    
C27   C34   S    
C24   H14   S    
C1    C19   S    
C1    O4    A    
C30   C34   S    
C18   C23   S    
C25   H18   S    
C5    C7    S    
C20   H3    S    
C6    C8    S    
C16   C29   S    
Cu1   O9    S    
C1    O1    A    
C2    C31   S    
C14   C23   S    
Cu2   O7    S    
C21   H8    S    
Cu1   N1    S    
C14   H28   S    
C8    C21   S    
C3    O8    A    
C9    C11   S    
C32   N1    S    
C16   C18   S    
C22   H10   S    
C12   O3    A    
C14   C16   S    
C19   C29   S    
C32   H30   S    
C24   H13   S    
C15   C17   S    
Cu1   O5    S    
C14   C19   S    
C28   O2    D    
C27   H22   S    
C26   H20   S    
C34   N1    S    
Cu2   N2    S    
C33   H2    S    
C25   H16   S    
C5    C10   S    
C3    C10   S    
C17   H27   S    
C6    C13   S    
C30   C32   S    
C8    C11   S    
C17   C19   S    
C33   C34   S    
C26   H21   S    
C21   H6    S    
C4    O9    A    
C22   H9    S    
C13   H25   S    
Cu1   O1    S    
C8    C10   S    
C7    C20   S    
C12   C18   S    
C22   C23   S    
C2    C28   S    
C4    C9    S    
C30   N2    S    
Cu2   O4    S    
C33   N2    S    
