data_mof_unit_57595.cif
_audit_creation_date              2012-12-11T20:26:31-0500
_audit_creation_method            fapswitch 2.2
_symmetry_space_group_name_H-M    P1
_symmetry_Int_Tables_number       1
_space_group_crystal_system       triclinic
_cell_length_a                    8.287899
_cell_length_b                    17.368962
_cell_length_c                    18.802923
_cell_angle_alpha                 102.718469
_cell_angle_beta                  91.494507
_cell_angle_gamma                 98.063909
_cell_volume                      2609.65121941

loop_
_atom_site_label
_atom_site_type_symbol
_atom_type_description
_atom_site_fract_x
_atom_site_fract_y
_atom_site_fract_z
_atom_type_partial_charge
Ba1   Ba    Ba6+2 0.853800 0.535410 0.467450 1.663666
Ba2   Ba    Ba6+2 0.336030 0.464660 0.532560 1.683242
C1    C     C_3   0.736391 0.822831 0.317219 -0.241053
C2    C     C_R   0.904752 0.421550 0.092897 -0.088405
C3    C     C_R   0.768171 0.442995 0.955695 -0.120788
C4    C     C_3   0.126017 0.700680 0.273450 0.469184
C5    C     C_R   0.933130 0.469216 0.978084 0.000999
C6    C     C_R   0.705560 0.441475 0.885970 0.116470
C7    C     C_R   0.808434 0.467934 0.834044 -0.018162
C8    C     C_R   0.972733 0.503352 0.858146 -0.026456
C9    C     C_R   0.034378 0.504255 0.930628 0.021732
C10   C     C_R   0.755788 0.460752 0.759583 -0.034079
C11   C     C_R   0.867133 0.488881 0.711942 -0.327288
C12   C     C_3   0.698179 0.738521 0.330329 0.271573
C13   C     C_R   0.023778 0.530158 0.735857 0.011568
C14   C     C_R   0.075771 0.538529 0.810460 -0.021750
C15   C     C_R   0.157948 0.499953 0.072707 0.027647
C16   C     C_3   0.061481 0.716427 0.201642 -0.331895
C17   C     C_R   0.217516 0.498961 0.144808 -0.002119
C18   C     C_R   0.114274 0.463725 0.191995 -0.040708
C19   C     C_R   0.962377 0.421645 0.162803 -0.026034
C20   C     C_R   0.228271 0.581370 0.839248 -0.015703
C21   C     C_R   0.287890 0.581658 0.909277 -0.096287
C22   C     C_R   0.196605 0.540352 0.955372 0.012356
C23   C     C_3   0.449674 0.337858 0.304273 0.293302
C24   C     C_R   0.260070 0.536440 0.026049 0.014325
C25   C     C_R   0.424324 0.565450 0.051102 -0.114909
C26   C     C_R   0.380271 0.532498 0.169340 -0.038091
C27   C     C_R   0.482758 0.563139 0.120683 -0.093118
C28   C     C_3   0.295062 0.720938 0.663040 0.253935
C29   C     C_R   0.434621 0.535862 0.242240 0.005793
C30   C     C_R   0.325519 0.507929 0.290060 -0.304157
C31   C     C_R   0.166752 0.470318 0.266226 0.050812
C32   C     C_2   0.440814 0.719994 0.481850 -0.302037
C33   C     C_3   0.357436 0.771059 0.441154 0.010508
C34   C     C_3   0.382682 0.306610 0.225284 -0.386030
C35   C     C_2   0.400479 0.858540 0.472841 0.000502
C36   C     C_2   0.543890 0.886566 0.512006 0.011880
C37   C     C_2   0.638477 0.828322 0.535894 -0.135885
C38   C     C_1   0.576301 0.751454 0.523513 0.050647
C39   C     C_R   0.798283 0.138090 0.532516 -0.121599
C40   C     C_3   0.392991 0.789138 0.720314 -0.252846
C41   C     C_R   0.868559 0.215843 0.531659 0.012729
C42   C     C_R   0.622863 0.235125 0.468403 0.022853
C43   C     C_R   0.552758 0.157339 0.468423 -0.075058
C44   C     C_R   0.640869 0.107650 0.499186 0.028455
C45   C     C_3   0.056333 0.308195 0.717082 0.348171
C46   C     C_2   0.611693 0.973016 0.529586 -0.073516
C47   C     C_2   0.569198 0.022916 0.489019 -0.055629
C48   C     C_R   0.782862 0.262117 0.496803 -0.211901
C49   C     C_3   0.887184 0.274269 0.319951 0.298416
C50   C     C_3   0.787360 0.239766 0.247389 -0.267696
C51   C     C_3   0.740988 0.658174 0.695683 0.311787
C52   C     C_3   0.771364 0.690049 0.777768 -0.370064
C53   C     C_2   0.935987 0.208366 0.352544 0.445910
C54   C     C_2   0.600610 0.841792 0.272873 0.539583
C55   C     C_2   0.476804 0.161888 0.767038 0.532063
C56   C     C_3   0.048617 0.287901 0.791677 -0.377985
C57   C     C_2   0.819835 0.473353 0.634517 0.573621
C58   C     C_2   0.211198 0.751557 0.606202 0.470257
C59   C     C_3   0.594851 0.269453 0.706452 0.241967
C60   C     C_3   0.522429 0.181610 0.695756 -0.226957
C61   C     C_R   0.996387 0.464236 0.047883 0.018203
H1    H     H_    0.794339 0.729882 0.368380 0.121209
H2    H     H_    0.643003 0.605773 0.685993 0.012322
H3    H     H_    0.755661 0.866234 0.370971 0.094924
H4    H     H_    0.863677 0.744815 0.789345 0.145695
H5    H     H_    0.817260 0.644604 0.802866 0.052321
H6    H     H_    0.656455 0.703917 0.803063 0.099218
H7    H     H_    0.582557 0.733429 0.357121 -0.011813
H8    H     H_    0.354502 0.366385 0.336053 0.047077
H9    H     H_    0.559612 0.382998 0.306019 0.037455
H10   H     H_    0.265049 0.266548 0.223138 0.153373
H11   H     H_    0.362940 0.356822 0.200214 0.055554
H12   H     H_    0.452230 0.764538 0.762072 0.092742
H13   H     H_    0.468987 0.272450 0.192364 0.115833
H14   H     H_    0.850433 0.829096 0.288086 0.107157
H15   H     H_    0.114242 0.777177 0.196299 0.134949
H16   H     H_    0.153980 0.359773 0.720537 0.107684
H17   H     H_    0.937709 0.325302 0.702804 -0.046281
H18   H     H_    0.169374 0.275435 0.809122 0.134489
H19   H     H_    0.015283 0.338802 0.832548 0.074651
H20   H     H_    0.955526 0.234648 0.789414 0.134235
H21   H     H_    0.697381 0.283749 0.748659 -0.009941
H22   H     H_    0.641365 0.277892 0.653200 0.024229
H23   H     H_    0.488458 0.823418 0.694369 0.104918
H24   H     H_    0.613656 0.144135 0.670844 0.070944
H25   H     H_    0.412254 0.167934 0.657602 0.109630
H26   H     H_    0.073342 0.638618 0.275517 0.054289
H27   H     H_    0.884356 0.388333 0.193473 0.083542
H28   H     H_    0.305667 0.614918 0.807908 0.093086
H29   H     H_    0.609858 0.586339 0.135721 0.113407
H30   H     H_    0.366819 0.513277 0.346231 0.071409
H31   H     H_    0.680647 0.424777 0.992433 0.072503
H32   H     H_    0.787833 0.385624 0.075273 0.060468
H33   H     H_    0.406701 0.615951 0.926051 0.060414
H34   H     H_    0.311487 0.830337 0.748427 0.141691
H35   H     H_    0.512824 0.589170 0.017515 0.071465
H36   H     H_    0.480038 0.000749 0.443345 0.116178
H37   H     H_    0.757476 0.849753 0.564413 0.113329
H38   H     H_    0.868600 0.101591 0.556860 0.079157
H39   H     H_    0.703768 0.994340 0.574269 0.087877
H40   H     H_    0.322075 0.897674 0.457165 0.081321
H41   H     H_    0.431372 0.134997 0.443058 0.087480
H42   H     H_    0.406375 0.655759 0.465071 0.078720
H43   H     H_    0.844115 0.318139 0.488384 0.100091
H44   H     H_    0.094763 0.671757 0.154454 0.061783
H45   H     H_    0.815431 0.310420 0.359444 -0.035052
H46   H     H_    0.927216 0.711778 0.199105 0.143684
H47   H     H_    0.380105 0.681543 0.636173 -0.008998
H48   H     H_    0.029346 0.223255 0.396874 0.014124
H49   H     H_    0.571378 0.808426 0.216993 0.019838
H50   H     H_    0.385130 0.191022 0.798119 0.017853
H51   H     H_    0.773419 0.517174 0.610239 0.003243
H52   H     H_    0.470370 0.450205 0.907842 0.172971
H53   H     H_    0.509721 0.355802 0.878818 0.172434
H54   H     H_    0.342886 0.687592 0.222895 0.153360
H55   H     H_    0.339989 0.672561 0.307119 0.094500
H56   H     H_    0.740364 0.288181 0.227728 0.057560
H57   H     H_    0.153198 0.708240 0.559178 0.037623
H58   H     H_    0.681717 0.195349 0.253675 0.146211
H59   H     H_    0.864651 0.210162 0.205511 0.113218
H60   H     H_    0.856882 0.642169 0.673578 0.006527
N1    N     N_3   0.534718 0.413858 0.870658 -0.457097
N2    N     N_3   0.304144 0.709565 0.274890 -0.484676
O1    O     O_2   0.871520 0.445720 0.321500 -0.484822
O2    O     O_2   0.209999 0.223732 0.537357 -0.478687
O3    O     O_3   0.091093 0.241777 0.665369 -0.596940
O4    O     O_3   0.121030 0.451930 0.411150 -0.468311
O5    O     O_3   0.581210 0.598010 0.542960 -0.504801
O6    O     O_2   0.335820 0.303580 0.452320 -0.453073
O7    O     O_3   0.491363 0.273833 0.331458 -0.646701
O8    O     O_2   0.413997 0.463920 0.752125 -0.477822
O9    O     O_3   0.475003 0.317758 0.729571 -0.579310
O10   O     O_3   0.662190 0.593100 0.375060 -0.490964
O11   O     O_2   0.775927 0.539647 0.245885 -0.492118
O12   O     O_3   0.692606 0.717522 0.664235 -0.634049
O13   O     O_3   0.031946 0.318736 0.306032 -0.674501
O14   O     O_3   0.688785 0.681084 0.264155 -0.637517
O15   O     O_2   0.853880 0.696450 0.547730 -0.460175
O16   O     O_3   0.085100 0.636210 0.413950 -0.502178
O17   O     O_2   0.027039 0.782609 0.472161 -0.465374
O18   O     O_2   0.874091 0.138697 0.330462 -0.584186
O19   O     O_2   0.522787 0.894818 0.299033 -0.567203
O20   O     O_2   0.541967 0.112918 0.790428 -0.569187
O21   O     O_2   0.827488 0.408397 0.596354 -0.607977
O22   O     O_2   0.205836 0.822608 0.611935 -0.583261
O23   O     O_3   0.075676 0.756274 0.332236 -0.596024
O24   O     O_2   0.318180 0.554310 0.678550 -0.479652
O25   O     O_3   0.068680 0.548140 0.588860 -0.497900
O26   O     O_3   0.527520 0.406960 0.624950 -0.446261
O27   O     O_3   0.174253 0.681512 0.698201 -0.662071
O28   O     O_3   0.608500 0.402060 0.457050 -0.464934
O29   O     O_3   0.104610 0.363860 0.586060 -0.438832
P1    P     P_3+3 0.038810 0.422920 0.331160 0.975914
P2    P     P_3+3 0.678260 0.686080 0.568600 0.971897
P3    P     P_3+3 0.135247 0.737423 0.416561 0.963812
P4    P     P_3+3 0.150900 0.577150 0.668860 0.955114
P5    P     P_3+3 0.069353 0.260421 0.578067 1.008903
P6    P     P_3+3 0.640640 0.585377 0.281281 0.923515
P7    P     P_3+3 0.515419 0.301722 0.426735 0.975186
P8    P     P_3+3 0.545043 0.414091 0.718757 0.996434

loop_
_geom_bond_atom_site_label_1
_geom_bond_atom_site_label_2
_ccdc_geom_bond_type
O13   P1    S    
Ba2   O25   S    
C25   H35   S    
C55   O20   D    
C25   C27   A    
C12   H7    S    
C17   C18   A    
C16   H46   S    
C45   H16   S    
O8    P8    D    
C3    H31   S    
C45   O3    S    
C51   C52   S    
C5    C9    A    
C10   C11   A    
C44   C47   S    
C40   H12   S    
C28   H47   S    
C32   C38   D    
C15   C24   A    
C26   C27   A    
C33   C35   S    
C22   C24   A    
C32   C33   S    
Ba1   O4    S    
C56   H19   S    
C36   C37   S    
C52   H5    S    
O6    P7    D    
C13   C14   A    
C9    C22   A    
Ba2   O4    S    
C21   H33   S    
Ba1   Ba2   S    
C50   H58   S    
Ba1   P1    S    
C16   H44   S    
C34   H13   S    
C15   C17   A    
O7    P7    S    
C50   H59   S    
O25   P4    S    
C49   H45   S    
C28   C58   S    
C39   C44   A    
C23   H8    S    
C58   O22   D    
C51   H2    S    
O24   P4    D    
C36   C46   S    
C29   P6    S    
C21   C22   A    
C16   H15   S    
O1    P1    D    
Ba2   O24   S    
C30   H30   S    
C12   H1    S    
Ba2   O29   S    
C39   C41   A    
C45   H17   S    
C59   O9    S    
C19   H27   S    
C4    C16   S    
O27   P4    S    
C53   O18   D    
C49   C50   S    
C55   C60   S    
Ba1   O1    S    
C13   P4    S    
Ba1   O5    S    
C51   H60   S    
C40   H34   S    
C37   C38   D    
C3    C5    A    
C6    C7    A    
C55   H50   S    
C52   H4    S    
C43   C44   A    
C60   H25   S    
C50   H56   S    
O9    P8    S    
O12   P2    S    
O28   P7    S    
O11   P6    D    
Ba1   P2    S    
C33   P3    S    
C35   C36   D    
C43   H41   S    
C47   H36   S    
C2    H32   S    
C4    O23   S    
C1    C54   S    
C28   O27   S    
C29   C30   A    
C2    C61   A    
C20   H28   S    
O26   P8    S    
C46   H39   S    
Ba2   O6    S    
C24   C25   A    
Ba1   O25   S    
C23   H9    S    
C49   O13   S    
C18   C19   A    
Ba1   O28   S    
C17   C26   A    
Ba1   O15   S    
C5    C61   A    
C1    C12   S    
C59   H22   S    
O15   P2    D    
C40   H23   S    
C18   C31   A    
O16   P3    S    
C46   C47   D    
H55   N2    S    
O14   P6    S    
Ba2   O28   S    
C11   C13   A    
C51   O12   S    
C56   H18   S    
C1    H3    S    
C42   P7    S    
O17   P3    D    
C1    H14   S    
O2    P5    D    
C42   C43   A    
O4    P1    S    
C7    C8    A    
C42   C48   A    
Ba2   O26   S    
C34   H11   S    
C14   C20   A    
H52   N1    S    
H53   N1    S    
C53   H48   S    
C32   H42   S    
C28   C40   S    
C26   C29   A    
C6    N1    S    
C4    N2    S    
C59   H21   S    
C3    C6    A    
C35   H40   S    
C31   P1    S    
C41   C48   A    
C11   C57   S    
C4    H26   S    
C60   H24   S    
C41   P5    S    
O10   P6    S    
C30   C31   A    
O29   P5    S    
C8    C14   A    
C56   H20   S    
C15   C61   A    
C45   C56   S    
C2    C19   A    
C37   H37   S    
C52   H6    S    
C57   H51   S    
Ba2   O5    S    
C39   H38   S    
C58   H57   S    
C49   C53   S    
O23   P3    S    
C59   C60   S    
C7    C10   A    
C12   O14   S    
Ba1   O16   S    
C8    C9    A    
C23   C34   S    
C10   P8    S    
C54   O19   D    
C57   O21   D    
Ba2   P4    S    
C48   H43   S    
C20   C21   A    
C38   P2    S    
O5    P2    S    
Ba1   O10   S    
C23   O7    S    
H54   N2    S    
C34   H10   S    
C54   H49   S    
C27   H29   S    
O3    P5    S    
