data_mof_unit_46195.cif
_audit_creation_date              2012-12-10T19:08:04-0500
_audit_creation_method            fapswitch 2.2
_symmetry_space_group_name_H-M    P1
_symmetry_Int_Tables_number       1
_space_group_crystal_system       triclinic
_cell_length_a                    9.069284
_cell_length_b                    10.825306
_cell_length_c                    9.567318
_cell_angle_alpha                 89.749506
_cell_angle_beta                  89.971129
_cell_angle_gamma                 90.029806
_cell_volume                      939.288764947

loop_
_atom_site_label
_atom_site_type_symbol
_atom_type_description
_atom_site_fract_x
_atom_site_fract_y
_atom_site_fract_z
_atom_type_partial_charge
C1    C     C_R   0.497048 0.262512 0.500287 0.814320
C2    C     C_R   0.441535 0.937659 0.375647 0.147635
C3    C     C_R   0.478302 0.871052 0.498774 -0.153405
C4    C     C_R   0.492368 0.935855 0.624129 0.077602
C5    C     C_3   0.607918 0.928181 0.735612 0.215231
C6    C     C_3   0.609684 0.068629 0.735789 -0.398451
C7    C     C_R   0.621118 0.462554 0.073767 0.221272
C8    C     C_R   0.377095 0.532328 0.074047 -0.073226
C9    C     C_R   0.377071 0.532212 0.925729 -0.065561
C10   C     C_R   0.621068 0.462621 0.926185 0.130836
C11   C     C_3   0.771757 0.517709 0.916897 -0.583365
C12   C     C_R   0.220743 0.500048 0.499994 0.839053
C13   C     C_3   0.772069 0.519547 0.075758 0.698351
C14   C     C_R   0.495410 0.737682 0.499492 0.815755
C15   C     C_R   0.779234 0.500071 0.500004 0.856149
C16   C     C_1   0.065556 0.500113 0.500003 -0.176868
C17   C     C_1   0.934396 0.500123 0.499989 -0.141660
C18   C     C_R   0.494056 0.062904 0.624937 0.052448
C19   C     C_R   0.480813 0.129748 0.500909 -0.124293
C20   C     C_R   0.443413 0.066936 0.377918 -0.250181
Cu1   Cu    Cu3+1 0.499990 0.499980 0.640670 0.942853
Cu2   Cu    Cu3+1 0.500010 0.500020 0.359330 1.001431
H1    H     H_    0.421504 0.117306 0.282018 0.174918
H2    H     H_    0.771718 0.610962 0.867607 0.189625
H3    H     H_    0.713511 0.885079 0.701467 0.090222
H4    H     H_    0.567237 0.110429 0.833878 0.223695
H5    H     H_    0.715113 0.108520 0.696898 0.147258
H6    H     H_    0.278455 0.560595 0.128552 0.157170
H7    H     H_    0.278396 0.560377 0.871033 0.152489
H8    H     H_    0.852660 0.451998 0.871419 0.202250
N1    N     N_R   0.500920 0.500930 0.147930 -0.209767
N2    N     N_R   0.500930 0.500890 0.852020 -0.180625
O1    O     O_R   0.500000 0.319640 0.618810 -0.573143
O2    O     O_R   0.500020 0.319680 0.381230 -0.583284
O3    O     O_R   0.288380 0.499980 0.618770 -0.590617
O4    O     O_R   0.288400 0.500020 0.381190 -0.584463
O5    O     O_R   0.499980 0.680320 0.618770 -0.599052
O6    O     O_R   0.500000 0.680360 0.381190 -0.529918
O7    O     O_R   0.711600 0.499980 0.618810 -0.597421
O8    O     O_R   0.711620 0.500020 0.381230 -0.510014
O9    O     O_3   0.877214 0.439909 0.134503 -0.711935
H9    H     H_    0.974429 0.480064 0.119764 0.329836
O10   O     O_3   0.777251 0.638797 0.134405 -0.702846
H10   H     H_    0.697842 0.689421 0.091416 0.311415
N3    N     N_3   0.407425 0.875776 0.247506 -0.546467
H11   H     H_    0.483287 0.904451 0.171660 0.252588
H12   H     H_    0.302559 0.904034 0.215236 0.223068
O11   O     O_3   0.550670 0.880401 0.860821 -0.714188
H13   H     H_    0.568124 0.790023 0.858166 0.333284

loop_
_geom_bond_atom_site_label_1
_geom_bond_atom_site_label_2
_ccdc_geom_bond_type
C7    C10   A    
O10   H10   S    
Cu1   O3    S    
C12   O4    A    
Cu2   O4    S    
O9    H9    S    
C19   C20   A    
Cu1   O7    S    
C20   H1    S    
C9    H7    S    
C4    C18   A    
C15   O8    A    
C13   O9    S    
C2    C3    A    
C1    O1    A    
Cu1   Cu2   S    
C14   O5    A    
C11   C13   S    
C15   O7    A    
C6    H5    S    
C6    H4    S    
C3    C14   S    
Cu2   O2    S    
O11   H13   S    
Cu1   N2    S    
C1    O2    A    
N3    H12   S    
C2    N3    S    
C5    C6    S    
C8    H6    S    
C5    O11   S    
C5    H3    S    
C6    C18   S    
C1    C19   S    
C7    N1    A    
C10   C11   S    
C2    C20   A    
C14   O6    A    
Cu2   O6    S    
C16   C17   T    
C10   N2    A    
C11   H2    S    
C13   O10   S    
Cu1   O1    S    
Cu1   O5    S    
C18   C19   A    
Cu2   N1    S    
C15   C17   S    
Cu2   O8    S    
C8    C9    A    
C7    C13   S    
C9    N2    A    
N3    H11   S    
C8    N1    A    
C3    C4    A    
C12   C16   S    
C11   H8    S    
C4    C5    S    
C12   O3    A    
