data_mof_unit_64689.cif
_audit_creation_date              2012-12-11T17:28:19-0500
_audit_creation_method            fapswitch 2.2
_symmetry_space_group_name_H-M    P1
_symmetry_Int_Tables_number       1
_space_group_crystal_system       triclinic
_cell_length_a                    24.544307
_cell_length_b                    24.561352
_cell_length_c                    26.808348
_cell_angle_alpha                 90.281988
_cell_angle_beta                  89.932406
_cell_angle_gamma                 89.924181
_cell_volume                      16160.959819

loop_
_atom_site_label
_atom_site_type_symbol
_atom_type_description
_atom_site_fract_x
_atom_site_fract_y
_atom_site_fract_z
_atom_type_partial_charge
C1    C     C_R   0.635136 0.428608 0.422182 -0.083187
C2    C     C_R   0.363268 0.427578 0.426526 -0.092749
C3    C     C_R   0.683037 0.265490 0.325219 -0.178004
C4    C     C_R   0.736281 0.667392 0.671407 -0.189010
C5    C     C_R   0.277614 0.328034 0.312857 -0.184441
C6    C     C_R   0.666914 0.262172 0.670612 -0.189265
C7    C     C_R   0.322679 0.731655 0.326407 -0.185333
C8    C     C_R   0.252201 0.664914 0.340073 -0.180486
C9    C     C_R   0.730237 0.337753 0.681877 -0.191885
C10   C     C_R   0.338848 0.254713 0.333900 -0.173678
C11   C     C_R   0.661222 0.731100 0.680430 -0.191742
C12   C     C_R   0.756641 0.321573 0.357257 -0.171560
C13   C     C_R   0.427758 0.636571 0.574083 -0.101031
C14   C     C_R   0.262912 0.666525 0.672879 -0.190278
C15   C     C_R   0.665638 0.746073 0.337144 -0.181798
C16   C     C_R   0.335764 0.265193 0.675712 -0.190244
C17   C     C_R   0.758650 0.841732 0.170963 -0.185668
C18   C     C_R   0.235791 0.165247 0.824924 -0.189728
C19   C     C_R   0.856583 0.228366 0.191752 -0.185983
C20   C     C_R   0.165062 0.764006 0.825758 -0.190586
C21   C     C_R   0.245023 0.160872 0.165478 -0.174292
C22   C     C_R   0.761819 0.829089 0.829773 -0.189317
C23   C     C_R   0.154361 0.764472 0.180921 -0.183632
C24   C     C_R   0.573236 0.362546 0.427756 -0.082978
C25   C     C_R   0.828318 0.237814 0.830144 -0.189330
C26   C     C_R   0.763474 0.163366 0.824041 -0.186794
C27   C     C_R   0.210574 0.841007 0.204144 -0.181667
C28   C     C_R   0.837001 0.765911 0.820468 -0.185833
C29   C     C_R   0.172151 0.223203 0.185857 -0.186722
C30   C     C_R   0.234683 0.833493 0.825013 -0.187775
C31   C     C_R   0.793231 0.154938 0.206009 -0.192752
C32   C     C_R   0.165318 0.233881 0.823217 -0.186483
C33   C     C_R   0.830414 0.776365 0.185203 -0.187497
C34   C     C_R   0.287258 0.357198 0.634058 0.177358
C35   C     C_R   0.363659 0.427939 0.574426 -0.104181
C36   C     C_R   0.705561 0.639670 0.352037 0.194653
C37   C     C_R   0.356700 0.713707 0.633003 0.179757
C38   C     C_R   0.645529 0.291894 0.355612 0.200470
C39   C     C_R   0.714151 0.647716 0.627483 0.180066
C40   C     C_R   0.295055 0.358037 0.353507 0.191504
C41   C     C_R   0.647365 0.285505 0.627252 0.178539
C42   C     C_R   0.352240 0.711492 0.366140 0.185243
C43   C     C_R   0.280638 0.644517 0.380369 0.185263
C44   C     C_R   0.711773 0.360984 0.638181 0.182362
C45   C     C_R   0.356171 0.283296 0.375485 0.187390
C46   C     C_R   0.637282 0.572502 0.427820 -0.088285
C47   C     C_R   0.639233 0.712591 0.636135 0.180661
C48   C     C_R   0.720770 0.347282 0.389854 0.191986
C49   C     C_R   0.285419 0.644884 0.629921 0.182504
C50   C     C_R   0.646646 0.716159 0.377252 0.183207
C51   C     C_R   0.357213 0.286838 0.632518 0.179827
C52   C     C_R   0.784082 0.858404 0.127617 0.182572
C53   C     C_R   0.213530 0.143451 0.867725 0.181950
C54   C     C_R   0.866691 0.208669 0.144122 0.181111
C55   C     C_R   0.143862 0.785574 0.869296 0.181823
C56   C     C_R   0.217042 0.143933 0.123487 0.188136
C57   C     C_R   0.572784 0.364139 0.574987 -0.107469
C58   C     C_R   0.786035 0.851292 0.871743 0.184744
C59   C     C_R   0.139095 0.790682 0.137704 0.182002
C60   C     C_R   0.851100 0.214278 0.872106 0.183008
C61   C     C_R   0.785243 0.139756 0.866213 0.176516
C62   C     C_R   0.194541 0.869192 0.162151 0.191934
C63   C     C_R   0.861395 0.786865 0.862674 0.178258
C64   C     C_R   0.142837 0.206181 0.144681 0.189640
C65   C     C_R   0.213848 0.855698 0.868395 0.177889
C66   C     C_R   0.803169 0.134433 0.158601 0.181224
C67   C     C_R   0.142459 0.212695 0.865970 0.176997
C68   C     C_R   0.426950 0.636929 0.427357 -0.097082
C69   C     C_R   0.857001 0.792959 0.142371 0.183748
C70   C     C_R   0.136581 0.927518 0.926060 -0.104418
C71   C     C_R   0.864838 0.071179 0.077491 -0.096214
C72   C     C_R   0.928663 0.863300 0.926003 -0.102206
C73   C     C_R   0.363734 0.572350 0.574620 -0.094131
C74   C     C_R   0.072565 0.136919 0.073221 -0.098441
C75   C     C_R   0.863394 0.071383 0.925896 -0.100320
C76   C     C_R   0.135496 0.929202 0.076413 -0.089705
C77   C     C_R   0.071943 0.136215 0.925553 -0.103778
C78   C     C_R   0.927571 0.863488 0.073766 -0.102531
C79   C     C_R   0.135362 0.071405 0.076543 -0.086012
C80   C     C_R   0.864242 0.927199 0.924637 -0.092154
C81   C     C_R   0.930085 0.134463 0.078977 -0.090406
C82   C     C_R   0.072359 0.863503 0.925767 -0.091990
C83   C     C_R   0.864368 0.928634 0.076062 -0.092952
C84   C     C_R   0.429023 0.364913 0.422697 -0.081393
C85   C     C_R   0.136103 0.071961 0.925055 -0.092716
C86   C     C_R   0.069068 0.867238 0.081043 -0.089396
C87   C     C_R   0.927154 0.135858 0.924990 -0.092823
C88   C     C_R   0.291373 0.289997 0.698154 0.076282
C89   C     C_R   0.703983 0.723317 0.305739 0.070539
C90   C     C_R   0.287984 0.710221 0.696094 0.075543
C91   C     C_R   0.737594 0.281171 0.325559 0.067451
C92   C     C_R   0.708732 0.707636 0.698194 0.076830
C93   C     C_R   0.300863 0.277889 0.302724 0.067861
C94   C     C_R   0.706916 0.289395 0.698386 0.078841
C95   C     C_R   0.571789 0.636970 0.573348 -0.093389
C96   C     C_R   0.273961 0.707308 0.313153 0.070897
C97   C     C_R   0.782810 0.802210 0.199872 0.071771
C98   C     C_R   0.210914 0.209382 0.802541 0.075608
C99   C     C_R   0.821127 0.200667 0.222829 0.073527
C100  C     C_R   0.209247 0.788956 0.803386 0.075530
C101  C     C_R   0.221696 0.199115 0.196609 0.067479
C102  C     C_R   0.788127 0.787631 0.804017 0.075499
C103  C     C_R   0.189604 0.789868 0.213560 0.069752
C104  C     C_R   0.785841 0.211314 0.805711 0.077447
C105  C     C_1   0.263796 0.261855 0.735299 0.011009
C106  C     C_R   0.363817 0.571869 0.425234 -0.088426
C107  C     C_1   0.728652 0.755320 0.269284 0.012791
C108  C     C_1   0.260117 0.737350 0.733931 0.011193
C109  C     C_1   0.773659 0.253475 0.293655 0.015497
C110  C     C_1   0.736012 0.734608 0.736409 0.011285
C111  C     C_1   0.277109 0.246217 0.265300 0.015508
C112  C     C_1   0.733304 0.261921 0.736841 0.010613
C113  C     C_1   0.241101 0.733700 0.278456 0.014459
C114  C     C_1   0.752597 0.778881 0.238376 0.012343
C115  C     C_1   0.239234 0.237177 0.765633 0.011217
C116  C     C_1   0.798864 0.228989 0.263583 0.012777
C117  C     C_R   0.636683 0.428541 0.573970 -0.091139
C118  C     C_1   0.236124 0.761415 0.765180 0.010946
C119  C     C_1   0.253205 0.222519 0.234321 0.015467
C120  C     C_1   0.759862 0.759409 0.767183 0.011063
C121  C     C_1   0.215345 0.758597 0.249781 0.012955
C122  C     C_1   0.757725 0.238500 0.768171 0.010138
C123  C     C_R   0.337405 0.337439 0.615070 -0.015144
C124  C     C_R   0.661842 0.660367 0.381930 -0.034656
C125  C     C_R   0.336798 0.663877 0.613532 -0.018223
C126  C     C_R   0.663795 0.336269 0.386261 -0.044014
C127  C     C_R   0.661580 0.665351 0.613173 -0.014443
C128  C     C_R   0.571345 0.634713 0.422409 -0.090824
C129  C     C_R   0.339249 0.338069 0.382266 -0.030064
C130  C     C_R   0.664667 0.338881 0.614473 -0.013885
C131  C     C_R   0.334371 0.663110 0.389636 -0.024802
C132  C     C_R   0.837210 0.839170 0.116578 -0.022087
C133  C     C_R   0.162418 0.162732 0.884862 -0.016922
C134  C     C_R   0.845483 0.157424 0.129823 -0.016729
C135  C     C_R   0.163625 0.836165 0.886999 -0.016033
C136  C     C_R   0.162616 0.161492 0.116234 -0.028726
C137  C     C_R   0.839490 0.834801 0.884941 -0.021380
C138  C     C_R   0.154654 0.845619 0.130261 -0.031510
C139  C     C_R   0.428052 0.363922 0.574727 -0.093671
C140  C     C_R   0.834355 0.161172 0.886457 -0.019078
C141  C     C_R   0.624984 0.374331 0.409906 0.087708
C142  C     C_R   0.374071 0.626330 0.587483 0.083402
C143  C     C_R   0.375003 0.375308 0.409899 0.084110
C144  C     C_R   0.625360 0.627284 0.586729 0.083923
C145  C     C_R   0.373460 0.626097 0.413561 0.083008
C146  C     C_R   0.626871 0.375153 0.587800 0.085399
C147  C     C_R   0.625607 0.624057 0.409988 0.087269
C148  C     C_R   0.374235 0.374357 0.588055 0.085228
C149  C     C_R   0.126287 0.873684 0.912952 0.083273
C150  C     C_R   0.636287 0.573123 0.574199 -0.106197
C151  C     C_R   0.877309 0.123228 0.095093 0.085014
C152  C     C_R   0.875414 0.873088 0.911701 0.084634
C153  C     C_R   0.125093 0.125503 0.089140 0.085538
C154  C     C_R   0.873012 0.124852 0.912235 0.083403
C155  C     C_R   0.122039 0.879083 0.096500 0.089358
C156  C     C_R   0.125564 0.125723 0.911780 0.084954
C157  C     C_R   0.874602 0.874768 0.088977 0.085707
C158  C     C_R   0.266296 0.334880 0.677144 -0.187159
C159  C     C_R   0.725140 0.671655 0.313559 -0.182995
C160  C     C_R   0.333676 0.734760 0.675926 -0.188114
H1    H     H_    0.671581 0.451937 0.415609 0.148096
H2    H     H_    0.324962 0.448062 0.429171 0.152088
H3    H     H_    0.450930 0.673204 0.577156 0.146348
H4    H     H_    0.555329 0.323312 0.434286 0.150484
H5    H     H_    0.327027 0.451196 0.577972 0.145607
H6    H     H_    0.676177 0.553468 0.434141 0.151543
H7    H     H_    0.549673 0.327581 0.580635 0.142560
H8    H     H_    0.448874 0.674362 0.427420 0.149453
H9    H     H_    0.173255 0.950651 0.922663 0.145200
H10   H     H_    0.827598 0.048857 0.080212 0.148054
H11   H     H_    0.952101 0.826816 0.924469 0.146942
H12   H     H_    0.327313 0.548985 0.579250 0.143879
H13   H     H_    0.051889 0.175088 0.071064 0.151949
H14   H     H_    0.827160 0.047625 0.923130 0.144785
H15   H     H_    0.174427 0.948625 0.073982 0.152482
H16   H     H_    0.048508 0.172676 0.922164 0.144927
H17   H     H_    0.949390 0.825910 0.073834 0.150064
H18   H     H_    0.171337 0.047537 0.083051 0.147404
H19   H     H_    0.827650 0.950253 0.918964 0.142832
H20   H     H_    0.954550 0.169923 0.085863 0.143654
H21   H     H_    0.049102 0.826950 0.921634 0.144442
H22   H     H_    0.828395 0.952556 0.082181 0.141649
H23   H     H_    0.453155 0.329114 0.415730 0.148465
H24   H     H_    0.172491 0.048448 0.920369 0.143813
H25   H     H_    0.044402 0.832386 0.089597 0.140211
H26   H     H_    0.950284 0.172359 0.919476 0.141894
H27   H     H_    0.228104 0.350120 0.692377 0.165061
H28   H     H_    0.758083 0.656247 0.290111 0.166320
H29   H     H_    0.349177 0.772544 0.691743 0.165070
H30   H     H_    0.669338 0.232387 0.300920 0.166884
H31   H     H_    0.776479 0.653718 0.683161 0.165674
H32   H     H_    0.244145 0.343013 0.290193 0.166019
H33   H     H_    0.653289 0.221499 0.681253 0.165302
H34   H     H_    0.548458 0.673635 0.575445 0.146735
H35   H     H_    0.336165 0.768413 0.307740 0.165784
H36   H     H_    0.211517 0.650087 0.331834 0.168085
H37   H     H_    0.765823 0.355016 0.700896 0.164166
H38   H     H_    0.352869 0.213357 0.327347 0.169124
H39   H     H_    0.643902 0.766889 0.698827 0.164645
H40   H     H_    0.799828 0.332131 0.357644 0.167982
H41   H     H_    0.223951 0.651583 0.686404 0.165289
H42   H     H_    0.652388 0.787915 0.331795 0.167252
H43   H     H_    0.351138 0.226720 0.689850 0.164827
H44   H     H_    0.718454 0.857109 0.180450 0.167837
H45   H     H_    0.327729 0.548019 0.419742 0.145750
H46   H     H_    0.274649 0.150239 0.811008 0.165024
H47   H     H_    0.872677 0.267726 0.202953 0.168661
H48   H     H_    0.149560 0.725647 0.811223 0.165295
H49   H     H_    0.286138 0.146418 0.172347 0.169621
H50   H     H_    0.721120 0.842023 0.818772 0.165103
H51   H     H_    0.141911 0.722659 0.187330 0.167958
H52   H     H_    0.841598 0.278109 0.818147 0.164537
H53   H     H_    0.726470 0.146499 0.807551 0.164667
H54   H     H_    0.241725 0.858039 0.228430 0.166796
H55   H     H_    0.853998 0.729761 0.802554 0.165153
H56   H     H_    0.673153 0.452079 0.576378 0.146729
H57   H     H_    0.157288 0.257066 0.208304 0.165727
H58   H     H_    0.272846 0.848698 0.809878 0.165099
H59   H     H_    0.760136 0.138149 0.228023 0.164851
H60   H     H_    0.149923 0.271879 0.808025 0.165030
H61   H     H_    0.845241 0.741142 0.205504 0.165300
H62   H     H_    0.547428 0.670468 0.414882 0.141335
H63   H     H_    0.451646 0.327618 0.579125 0.142837
H64   H     H_    0.673177 0.550278 0.579070 0.144668
I1    I     I_    0.229745 0.405538 0.594122 -0.303893
I2    I     I_    0.771015 0.413388 0.604393 -0.290594
I3    I     I_    0.396080 0.234576 0.430112 -0.277716
I4    I     I_    0.588276 0.771438 0.600558 -0.283614
I5    I     I_    0.760254 0.391717 0.448220 -0.295014
I6    I     I_    0.229517 0.598462 0.586197 -0.282879
I7    I     I_    0.606106 0.763957 0.432867 -0.288758
I8    I     I_    0.404049 0.229957 0.589915 -0.290976
I9    I     I_    0.731692 0.899318 0.076611 -0.272956
I10   I     I_    0.270014 0.096751 0.910324 -0.284340
I11   I     I_    0.899084 0.266744 0.093318 -0.265198
I12   I     I_    0.753526 0.564209 0.359029 -0.330138
I13   I     I_    0.097488 0.729045 0.912057 -0.275337
I14   I     I_    0.266300 0.103818 0.068954 -0.272488
I15   I     I_    0.731290 0.895525 0.918838 -0.279830
I16   I     I_    0.104974 0.738155 0.082266 -0.279704
I17   I     I_    0.895645 0.269734 0.918412 -0.280711
I18   I     I_    0.728476 0.087427 0.903440 -0.301053
I19   I     I_    0.241901 0.941060 0.151747 -0.351285
I20   I     I_    0.916411 0.729768 0.895919 -0.302658
I21   I     I_    0.078130 0.260721 0.126972 -0.319569
I22   I     I_    0.271033 0.903879 0.909160 -0.304363
I23   I     I_    0.406346 0.770860 0.594024 -0.291680
I24   I     I_    0.739499 0.084132 0.130658 -0.311622
I25   I     I_    0.093099 0.270052 0.905658 -0.304960
I26   I     I_    0.914645 0.734518 0.116004 -0.310015
I27   I     I_    0.565078 0.255347 0.349654 -0.338257
I28   I     I_    0.770049 0.605561 0.579622 -0.298459
I29   I     I_    0.242132 0.425100 0.369067 -0.325307
I30   I     I_    0.606432 0.230429 0.577355 -0.308458
I31   I     I_    0.410915 0.768237 0.393284 -0.308221
I32   I     I_    0.231178 0.599848 0.431160 -0.275526
N1    N     N_R   0.592620 0.447430 0.448130 -0.052393
N2    N     N_R   0.407380 0.447430 0.448130 -0.055109
N3    N     N_R   0.447430 0.592620 0.551870 -0.053910
N4    N     N_R   0.552570 0.407380 0.448130 -0.055511
N5    N     N_R   0.407380 0.447430 0.551870 -0.053847
N6    N     N_R   0.592620 0.552570 0.448130 -0.055263
N7    N     N_R   0.552570 0.407380 0.551870 -0.053247
N8    N     N_R   0.447430 0.592620 0.448130 -0.054009
N9    N     N_R   0.092620 0.947430 0.948130 -0.053904
N10   N     N_R   0.907380 0.052570 0.051870 -0.054399
N11   N     N_R   0.947430 0.907380 0.948130 -0.054382
N12   N     N_R   0.407380 0.552570 0.551870 -0.053244
N13   N     N_R   0.052570 0.092620 0.051870 -0.055267
N14   N     N_R   0.907380 0.052570 0.948130 -0.053828
N15   N     N_R   0.092620 0.947430 0.051870 -0.055407
N16   N     N_R   0.052570 0.092620 0.948130 -0.053795
N17   N     N_R   0.947430 0.907380 0.051870 -0.054410
N18   N     N_R   0.092620 0.052570 0.051870 -0.052632
N19   N     N_R   0.907380 0.947430 0.948130 -0.052989
N20   N     N_R   0.947430 0.092620 0.051870 -0.052597
N21   N     N_R   0.052570 0.907380 0.948130 -0.053408
N22   N     N_R   0.907380 0.947430 0.051870 -0.052387
N23   N     N_R   0.447430 0.407380 0.448130 -0.052476
N24   N     N_R   0.092620 0.052570 0.948130 -0.053357
N25   N     N_R   0.052570 0.907380 0.051870 -0.052016
N26   N     N_R   0.947430 0.092620 0.948130 -0.053021
N27   N     N_R   0.552570 0.592620 0.551870 -0.053769
N28   N     N_R   0.407380 0.552570 0.448130 -0.052276
N29   N     N_R   0.592620 0.447430 0.551870 -0.054036
N30   N     N_R   0.552570 0.592620 0.448130 -0.051923
N31   N     N_R   0.447430 0.407380 0.551870 -0.053130
N32   N     N_R   0.592620 0.552570 0.551870 -0.053489
Ni1   Ni    Ni4+2 0.591800 0.500000 0.500000 0.241661
Ni2   Ni    Ni4+2 0.408200 0.500000 0.500000 0.242672
Ni3   Ni    Ni4+2 0.500000 0.408200 0.500000 0.242594
Ni4   Ni    Ni4+2 0.500000 0.591800 0.500000 0.243227
Ni5   Ni    Ni4+2 0.091800 0.000000 0.000000 0.242724
Ni6   Ni    Ni4+2 0.908200 0.000000 0.000000 0.245229
Ni7   Ni    Ni4+2 1.000000 0.908200 0.000000 0.244179
Ni8   Ni    Ni4+2 1.000000 0.091800 0.000000 0.243253

loop_
_geom_bond_atom_site_label_1
_geom_bond_atom_site_label_2
_ccdc_geom_bond_type
C138  C155  S    
C130  C146  S    
C51   C123  A    
C12   C91   A    
C158  H27   S    
C66   I24   S    
C82   H21   S    
N11   N19   A    
C60   I17   S    
C37   C160  A    
C56   I14   S    
C36   C124  A    
C160  H29   S    
C77   C156  A    
C44   C130  A    
C54   C134  A    
C14   H41   S    
N8    Ni4   S    
C7    C42   A    
C14   C90   A    
C26   C104  A    
C23   C103  A    
C47   I4    S    
C6    C94   A    
C25   C60   A    
C88   C158  A    
C33   C69   A    
C29   C64   A    
N28   Ni2   S    
C95   C144  A    
C4    H31   S    
C24   H4    S    
C17   C52   A    
C13   H3    S    
C87   H26   S    
C73   C142  A    
C124  C147  S    
C52   C132  A    
C34   I1    S    
C53   C133  A    
C99   C116  S    
C19   C99   A    
C117  C146  A    
N19   Ni6   S    
N21   Ni7   S    
C24   C141  A    
N5    Ni2   S    
C95   H34   S    
C71   H10   S    
C13   C142  A    
C55   I13   S    
C65   C135  A    
C129  C143  S    
C67   I25   S    
C56   C136  A    
C85   H24   S    
C95   N27   A    
C128  H62   S    
C103  C121  S    
C84   N23   A    
C139  H63   S    
C76   C155  A    
N27   N32   A    
N7    Ni3   S    
C76   H15   S    
N17   N22   A    
C81   H20   S    
C22   C58   A    
C128  C147  A    
C46   N6    A    
N27   Ni4   S    
C24   N4    A    
C126  C141  S    
C132  C157  S    
C37   I23   S    
C43   C131  A    
C136  C153  S    
C35   N5    A    
C134  C151  S    
C22   H50   S    
C32   C98   A    
C33   C97   A    
C36   C159  A    
C28   C63   A    
C74   C153  A    
C86   H25   S    
C53   I10   S    
N5    N31   A    
C65   I22   S    
C64   C136  A    
N7    N29   A    
C17   H44   S    
C78   H17   S    
C16   C51   A    
C2    H2    S    
N1    Ni1   S    
C62   I19   S    
C23   C59   A    
N13   N18   A    
C26   H53   S    
C27   C62   A    
C70   H9    S    
N20   Ni8   S    
N14   Ni6   S    
N22   Ni6   S    
C76   N15   A    
C30   C100  A    
C111  C119  T    
C45   I3    S    
C49   I6    S    
C144  C150  A    
N3    N12   A    
C66   C134  A    
C39   I28   S    
C27   H54   S    
C42   C131  A    
C106  N28   A    
C109  C116  T    
C30   H58   S    
N16   N24   A    
C75   H14   S    
C63   C137  A    
C150  N32   A    
C38   C126  A    
C9    H37   S    
C89   C159  A    
C139  C148  A    
C79   H18   S    
C80   H19   S    
C50   C124  A    
C59   C138  A    
C81   C151  A    
C73   N12   A    
C79   C153  A    
C10   C45   A    
N9    Ni5   S    
C12   H40   S    
N14   N26   A    
C73   H12   S    
N11   Ni7   S    
C32   H60   S    
C60   C140  A    
C32   C67   A    
C48   I5    S    
C68   H8    S    
C19   C54   A    
N6    N30   A    
C71   N10   A    
C117  N29   A    
C58   I15   S    
C68   N8    A    
C150  H64   S    
C105  C115  T    
C25   C104  A    
C47   C127  A    
C75   N14   A    
C77   H16   S    
N6    Ni1   S    
N30   Ni4   S    
C81   N20   A    
C59   I16   S    
C13   N3    A    
C87   N26   A    
C90   C108  S    
N25   Ni7   S    
C88   C105  S    
N26   Ni8   S    
C98   C115  S    
C42   I31   S    
C63   I20   S    
C94   C112  S    
C131  C145  S    
C35   C148  A    
C82   C149  A    
C48   C126  A    
C113  C121  T    
C123  C148  S    
C97   C114  S    
C44   I2    S    
C9    C94   A    
C33   H61   S    
C43   I32   S    
C45   C129  A    
C133  C156  S    
C11   C47   A    
C8    C43   A    
C12   C48   A    
C7    C96   A    
C106  C145  A    
C26   C61   A    
C41   C130  A    
N15   N25   A    
C3    C91   A    
N17   Ni7   S    
N15   Ni5   S    
C18   C53   A    
C71   C151  A    
N10   N20   A    
C72   C152  A    
C137  C152  S    
C31   C99   A    
C1    N1    A    
N2    Ni2   S    
C28   H55   S    
C1    H1    S    
C57   C146  A    
C70   C149  A    
C52   I9    S    
C31   H59   S    
C72   H11   S    
C3    H30   S    
C10   C93   A    
C80   N19   A    
C85   C156  A    
C25   H52   S    
C86   C155  A    
C107  C114  T    
C46   C147  A    
C20   C100  A    
C89   C107  S    
C87   C154  A    
C139  N31   A    
C15   C89   A    
C61   C140  A    
C62   C138  A    
C69   I26   S    
N16   Ni8   S    
C40   I29   S    
N8    N28   A    
C96   C113  S    
C36   I12   S    
C7    H35   S    
C102  C120  S    
C61   I18   S    
C57   N7    A    
C46   H6    S    
N18   Ni5   S    
C21   C56   A    
C57   H7    S    
C49   C125  A    
N10   Ni6   S    
N1    N4    A    
N9    N21   A    
C23   H51   S    
C27   C103  A    
C21   H49   S    
C8    H36   S    
C127  C144  S    
C90   C160  A    
C11   H39   S    
C1    C141  A    
C104  C122  S    
C5    C40   A    
C16   C88   A    
C6    H33   S    
C68   C145  A    
C4    C92   A    
C31   C66   A    
C34   C123  A    
N29   Ni1   S    
C8    C96   A    
C83   N22   A    
C92   C110  S    
C106  H45   S    
N3    Ni4   S    
C67   C133  A    
C14   C49   A    
C15   C50   A    
N13   Ni8   S    
C11   C92   A    
C64   I21   S    
C3    C38   A    
C6    C41   A    
C83   C157  A    
C16   H43   S    
C21   C101  A    
C29   H57   S    
N4    Ni3   S    
C19   H47   S    
C2    C143  A    
C54   I11   S    
C20   C55   A    
C10   H38   S    
C74   N13   A    
C37   C125  A    
C77   N16   A    
C39   C127  A    
C29   C101  A    
C101  C119  S    
C108  C118  T    
C74   H13   S    
C110  C120  T    
C84   C143  A    
C135  C149  S    
C41   I30   S    
C72   N11   A    
C83   H22   S    
C159  H28   S    
C117  H56   S    
C112  C122  T    
C78   C157  A    
C38   I27   S    
C4    C39   A    
C125  C142  S    
N24   Ni5   S    
C85   N24   A    
C50   I7    S    
C34   C158  A    
C58   C137  A    
C2    N2    A    
C93   C111  S    
N23   Ni3   S    
C30   C65   A    
N31   Ni3   S    
C82   N21   A    
C20   H48   S    
N12   Ni2   S    
C15   H42   S    
C70   N9    A    
C80   C152  A    
C9    C44   A    
C51   I8    S    
C84   H23   S    
C5    H32   S    
C5    C93   A    
C79   N18   A    
C40   C129  A    
C22   C102  A    
C18   H46   S    
N32   Ni1   S    
C91   C109  S    
C128  N30   A    
C75   C154  A    
C17   C97   A    
C69   C132  A    
C55   C135  A    
C35   H5    S    
C86   N25   A    
C28   C102  A    
C100  C118  S    
N2    N23   A    
C18   C98   A    
C78   N17   A    
C140  C154  S    
