data_mof_unit_53651.cif
_audit_creation_date              2012-12-10T18:42:40-0500
_audit_creation_method            fapswitch 2.2
_symmetry_space_group_name_H-M    P1
_symmetry_Int_Tables_number       1
_space_group_crystal_system       triclinic
_cell_length_a                    10.939434
_cell_length_b                    15.195757
_cell_length_c                    13.937464
_cell_angle_alpha                 88.803429
_cell_angle_beta                  91.292189
_cell_angle_gamma                 94.847159
_cell_volume                      2307.57434107

loop_
_atom_site_label
_atom_site_type_symbol
_atom_type_description
_atom_site_fract_x
_atom_site_fract_y
_atom_site_fract_z
_atom_type_partial_charge
C1    C     C_R   0.500019 0.329846 0.501428 0.823312
C2    C     C_R   0.497498 0.670082 0.498903 0.832309
C3    C     C_R   0.871688 0.496262 0.505627 -0.071967
C4    C     C_R   0.127629 0.491107 0.496169 -0.070865
C5    C     C_R   0.944497 0.496919 0.591804 0.027281
C6    C     C_R   0.054511 0.486266 0.411075 0.009704
C7    C     C_R   0.430742 0.091564 0.579840 -0.242946
C8    C     C_R   0.465475 0.906008 0.413894 -0.249813
C9    C     C_R   0.448552 0.183275 0.584737 0.467889
C10   C     C_R   0.489888 0.817175 0.411305 0.465167
C11   C     C_R   0.497637 0.232897 0.505567 -0.112672
C12   C     C_R   0.484775 0.765911 0.497139 -0.119055
C13   C     C_R   0.544935 0.188590 0.429574 -0.267983
C14   C     C_R   0.465075 0.807362 0.583819 -0.244886
C15   C     C_R   0.535922 0.096815 0.428920 -0.164018
C16   C     C_R   0.461124 0.898435 0.586717 -0.173619
C17   C     C_R   0.474767 0.047066 0.502593 0.067291
C18   C     C_R   0.463731 0.949279 0.501308 0.076425
C19   C     C_R   0.588151 0.551212 0.107243 -0.339392
C20   C     C_R   0.423841 0.438496 0.891471 -0.329033
C21   C     C_R   0.587250 0.551097 0.208236 0.108465
C22   C     C_R   0.421948 0.441442 0.790891 0.068403
C23   C     C_R   0.261915 0.496015 0.498494 0.810106
C24   C     C_R   0.737993 0.499893 0.501855 0.808330
C25   C     C_R   0.416908 0.444630 0.208678 0.637142
C26   C     C_R   0.569925 0.565017 0.788484 0.671141
C27   C     C_R   0.410101 0.448946 0.107509 -0.332211
C28   C     C_R   0.563959 0.568458 0.890814 -0.381844
C29   C     C_R   0.496896 0.501698 0.053898 0.095513
C30   C     C_R   0.495694 0.502325 0.944412 0.117696
C31   C     C_R   0.141963 0.533644 0.154204 -0.226637
C32   C     C_R   0.797019 0.430566 0.830619 -0.270878
C33   C     C_R   0.139960 0.543147 0.253736 0.024844
C34   C     C_R   0.824764 0.430811 0.733079 0.068437
C35   C     C_R   0.097813 0.470870 0.312803 0.009956
C36   C     C_R   0.899667 0.501845 0.692411 0.004810
C37   C     C_R   0.062910 0.388334 0.270080 -0.043917
C38   C     C_R   0.955988 0.567322 0.754926 -0.108611
C39   C     C_R   0.063026 0.379136 0.169678 0.461481
C40   C     C_R   0.938542 0.560167 0.854912 0.426688
C41   C     C_R   0.099257 0.454045 0.112172 -0.241472
C42   C     C_R   0.854926 0.493915 0.891199 -0.239126
C43   C     C_R   0.928566 0.489788 0.417576 -0.206744
C44   C     C_R   0.070281 0.491777 0.584526 -0.188156
Cu1   Cu    Cu3+1 0.500000 0.499990 0.596430 1.009894
Cu2   Cu    Cu3+1 0.500000 0.500010 0.403570 1.003126
H1    H     H_    0.094403 0.451861 0.034648 0.175602
H2    H     H_    0.840066 0.488534 0.967729 0.159409
H3    H     H_    0.577950 0.065448 0.370590 0.138443
H4    H     H_    0.459077 0.928186 0.656356 0.134445
H5    H     H_    0.663024 0.588833 0.071803 0.134690
H6    H     H_    0.365777 0.387134 0.926477 0.132023
H7    H     H_    0.336103 0.410173 0.072624 0.134569
H8    H     H_    0.608457 0.623312 0.928919 0.141328
H9    H     H_    0.173058 0.588994 0.108329 0.171461
H10   H     H_    0.737449 0.377244 0.861469 0.150119
H11   H     H_    0.874234 0.485636 0.351543 0.169046
H12   H     H_    0.124586 0.490142 0.650395 0.171015
H13   H     H_    0.382643 0.056122 0.637644 0.140648
H14   H     H_    0.458997 0.942318 0.346564 0.138903
H15   H     H_    0.590437 0.224964 0.371046 0.164616
H16   H     H_    0.456901 0.769717 0.650423 0.184315
N1    N     N_R   0.500000 0.500020 0.258690 -0.234114
N2    N     N_R   0.500000 0.499980 0.741310 -0.230017
O1    O     O_R   0.500010 0.371450 0.581430 -0.554480
O2    O     O_R   0.499990 0.628550 0.418570 -0.540521
O3    O     O_R   0.500010 0.371460 0.418560 -0.603075
O4    O     O_R   0.499990 0.628540 0.581440 -0.547324
O5    O     O_R   0.319640 0.500000 0.581430 -0.597546
O6    O     O_R   0.680360 0.500000 0.418570 -0.597474
O7    O     O_R   0.319640 0.500010 0.418560 -0.555139
O8    O     O_R   0.680360 0.499990 0.581440 -0.561520
C45   C     C_1   0.687692 0.600372 0.256125 0.308768
N3    N     N_1   0.770820 0.639020 0.293082 -0.335052
C46   C     C_1   0.326995 0.387924 0.741405 0.331189
N4    N     N_1   0.248785 0.345784 0.702303 -0.267693
O9    O     O_3   0.337538 0.384216 0.256761 -0.611016
C47   C     C_3   0.382792 0.299236 0.256451 0.082022
H17   H     H_    0.362529 0.267997 0.327535 0.191719
H18   H     H_    0.484056 0.301083 0.246418 0.129556
C48   C     C_3   0.316103 0.238475 0.182817 -0.422805
H19   H     H_    0.216576 0.233986 0.197004 0.255174
H20   H     H_    0.333333 0.264463 0.109096 0.204726
C49   C     C_3   0.359348 0.145572 0.190496 -0.912893
H21   H     H_    0.459427 0.147507 0.177719 0.255904
H22   H     H_    0.309945 0.103056 0.135824 0.255746
H23   H     H_    0.339982 0.116046 0.262733 0.270037
O10   O     O_3   0.638486 0.626545 0.730933 -0.584275
C50   C     C_3   0.713039 0.692303 0.779580 0.022630
H24   H     H_    0.787916 0.716713 0.730833 0.164128
H25   H     H_    0.759800 0.665079 0.842752 0.114965
C51   C     C_3   0.641330 0.771116 0.803765 -0.366795
H26   H     H_    0.633642 0.813995 0.738906 0.220514
H27   H     H_    0.547387 0.748305 0.827310 0.222537
C52   C     C_3   0.706489 0.825818 0.882874 -0.946176
H28   H     H_    0.713422 0.784551 0.949129 0.252181
H29   H     H_    0.653455 0.882850 0.898403 0.263074
H30   H     H_    0.799971 0.851006 0.860372 0.262938
C53   C     C_1   0.174532 0.628969 0.293310 0.266810
N5    N     N_1   0.202370 0.697698 0.325094 -0.262402
C54   C     C_1   0.785990 0.353268 0.678425 0.221946
N6    N     N_1   0.756103 0.291022 0.634531 -0.312219
C55   C     C_1   0.021476 0.312718 0.329327 0.293166
N7    N     N_1   0.988412 0.252338 0.376763 -0.266653
C56   C     C_1   0.037939 0.639379 0.717988 0.235506
N8    N     N_1   0.103452 0.696923 0.688496 -0.281383
O11   O     O_3   0.013313 0.299012 0.132190 -0.624395
C57   C     C_3   0.066720 0.275671 0.045623 0.029475
H31   H     H_    0.089657 0.206003 0.053327 0.166660
H32   H     H_    0.154695 0.314442 0.028770 0.114757
C58   C     C_3   0.973309 0.280282 0.963141 -0.351244
H33   H     H_    0.900300 0.225259 0.970874 0.220017
H34   H     H_    0.929897 0.343137 0.966694 0.233879
C59   C     C_3   0.033624 0.274989 0.866158 -0.868158
H35   H     H_    0.083694 0.214522 0.862942 0.253751
H36   H     H_    0.098557 0.334227 0.854587 0.257780
H37   H     H_    0.962476 0.272924 0.808085 0.267417
O12   O     O_3   0.018009 0.606628 0.918328 -0.617526
C60   C     C_3   0.976460 0.690174 0.935299 0.032907
H38   H     H_    0.890053 0.682507 0.976512 0.131170
H39   H     H_    0.961130 0.726897 0.866755 0.148927
C61   C     C_3   0.073863 0.744348 0.994701 -0.298825
H40   H     H_    0.074081 0.718242 0.069727 0.210465
H41   H     H_    0.165963 0.738633 0.964400 0.234615
C62   C     C_3   0.049553 0.841722 0.995297 -0.922413
H42   H     H_    0.056702 0.870862 0.921667 0.257949
H43   H     H_    0.118330 0.878248 0.042700 0.261356
H44   H     H_    0.956650 0.849213 0.022384 0.262286
O13   O     O_3   0.410164 0.223657 0.665100 -0.598295
C63   C     C_3   0.493909 0.213182 0.742947 0.080504
H45   H     H_    0.544591 0.278372 0.756364 0.172646
H46   H     H_    0.563898 0.165309 0.730513 0.131494
C64   C     C_3   0.422809 0.183064 0.832742 -0.355066
H47   H     H_    0.348349 0.226848 0.844163 0.227958
H48   H     H_    0.380166 0.114784 0.822654 0.213829
C65   C     C_3   0.506650 0.184876 0.921826 -0.944930
H49   H     H_    0.581822 0.141136 0.912777 0.260657
H50   H     H_    0.452714 0.161235 0.985189 0.266118
H51   H     H_    0.546735 0.253325 0.935046 0.258053
O14   O     O_3   0.520783 0.782089 0.325090 -0.591539
C66   C     C_3   0.634288 0.824838 0.294519 0.054045
H52   H     H_    0.710380 0.788398 0.324224 0.180008
H53   H     H_    0.653397 0.894067 0.319268 0.118631
C67   C     C_3   0.637343 0.828105 0.185087 -0.311626
H54   H     H_    0.627811 0.760118 0.156537 0.220970
H55   H     H_    0.559256 0.863884 0.156734 0.221734
C68   C     C_3   0.757247 0.876179 0.151120 -0.942549
H56   H     H_    0.771547 0.942837 0.182803 0.263222
H57   H     H_    0.753904 0.885000 0.072167 0.257726
H58   H     H_    0.835733 0.837500 0.171977 0.270702

loop_
_geom_bond_atom_site_label_1
_geom_bond_atom_site_label_2
_ccdc_geom_bond_type
C40   O12   S    
C54   N6    T    
C27   C29   A    
C45   N3    T    
C23   O5    A    
C52   H28   S    
C1    C11   S    
C49   H23   S    
C2    C12   S    
C59   H35   S    
C52   H30   S    
C24   O6    A    
C39   C41   A    
C20   C30   A    
O9    C47   S    
C57   H31   S    
C39   O11   S    
C3    C43   A    
C25   O9    S    
C68   H57   S    
C49   H22   S    
Cu2   O2    S    
C2    O4    A    
C66   H53   S    
C47   H18   S    
C14   H16   S    
C5    C36   S    
C21   C45   S    
C6    C35   S    
C15   C17   A    
C25   N1    A    
C26   N2    A    
O12   C60   S    
C68   H56   S    
C1    O3    A    
C58   H33   S    
C44   H12   S    
C7    C17   A    
C62   H44   S    
C1    O1    A    
O11   C57   S    
C31   C33   A    
C50   H25   S    
C40   C42   A    
Cu1   O8    S    
C3    C24   S    
C10   O14   S    
C22   C46   S    
C67   C68   S    
C7    H13   S    
C48   H20   S    
C48   H19   S    
C60   H39   S    
C34   C54   S    
C21   N1    A    
Cu1   O5    S    
C23   O7    A    
C68   H58   S    
O14   C66   S    
C67   H55   S    
C66   C67   S    
C37   C55   S    
C4    C23   S    
C28   H8    S    
C47   H17   S    
C65   H49   S    
C4    C44   A    
C3    C5    A    
Cu1   Cu2   S    
C51   C52   S    
C8    C18   A    
C33   C53   S    
C65   H51   S    
C63   H46   S    
C46   N4    T    
C29   C30   S    
C64   C65   S    
C53   N5    T    
Cu1   O4    S    
C51   H27   S    
C17   C18   S    
C41   H1    S    
C58   H34   S    
C42   H2    S    
C49   H21   S    
C50   C51   S    
C9    C11   A    
Cu2   O7    S    
C10   C12   A    
C4    C6    A    
C5    C44   A    
C12   C14   A    
C6    C43   A    
C13   C15   A    
Cu1   O1    S    
C64   H47   S    
C14   C16   A    
C63   C64   S    
C61   H41   S    
C19   C29   A    
C48   C49   S    
C24   O8    A    
C65   H50   S    
C64   H48   S    
O13   C63   S    
C60   C61   S    
C7    C9    A    
C52   H29   S    
C31   C41   A    
C35   C37   A    
C8    C10   A    
C20   C22   A    
C67   H54   S    
C2    O2    A    
C59   H36   S    
C60   H38   S    
C27   H7    S    
C9    O13   S    
C25   C27   A    
C56   N8    T    
Cu1   N2    S    
C26   C28   A    
C57   C58   S    
Cu2   N1    S    
C20   H6    S    
C61   C62   S    
C28   C30   A    
C63   H45   S    
C61   H40   S    
Cu2   O3    S    
C37   C39   A    
C66   H52   S    
C8    H14   S    
C38   C40   A    
C11   C13   A    
C47   C48   S    
C62   H42   S    
C38   C56   S    
C36   C38   A    
C51   H26   S    
C33   C35   A    
C57   H32   S    
C58   C59   S    
C34   C36   A    
C15   H3    S    
C16   H4    S    
Cu2   O6    S    
C59   H37   S    
C43   H11   S    
C22   N2    A    
C26   O10   S    
C19   H5    S    
C13   H15   S    
O10   C50   S    
C16   C18   A    
C55   N7    T    
C62   H43   S    
C32   C42   A    
C31   H9    S    
C50   H24   S    
C32   H10   S    
C32   C34   A    
C19   C21   A    
