data_mof_unit_49239.cif
_audit_creation_date              2012-12-10T19:58:02-0500
_audit_creation_method            fapswitch 2.2
_symmetry_space_group_name_H-M    P1
_symmetry_Int_Tables_number       1
_space_group_crystal_system       triclinic
_cell_length_a                    21.088516
_cell_length_b                    20.924273
_cell_length_c                    14.162803
_cell_angle_alpha                 90.156167
_cell_angle_beta                  90.012216
_cell_angle_gamma                 90.00633
_cell_volume                      6249.48148433

loop_
_atom_site_label
_atom_site_type_symbol
_atom_type_description
_atom_site_fract_x
_atom_site_fract_y
_atom_site_fract_z
_atom_type_partial_charge
C1    C     C_R   0.085380 0.412816 0.499883 0.926333
C2    C     C_R   0.160806 0.740729 0.432387 0.504551
C3    C     C_3   0.019646 0.105755 0.613998 -0.956081
C4    C     C_3   0.220498 0.871087 0.715465 0.128626
C5    C     C_3   0.203413 0.941092 0.735136 -0.370558
C6    C     C_3   0.132548 0.953655 0.722735 -0.806568
C7    C     C_3   0.626227 0.339368 0.385046 0.069675
C8    C     C_3   0.554873 0.331975 0.367384 -0.370926
C9    C     C_3   0.519744 0.394522 0.385817 -0.956021
C10   C     C_3   0.738028 0.194799 0.739518 0.124583
C11   C     C_3   0.770796 0.134146 0.775322 -0.371628
C12   C     C_3   0.842937 0.140995 0.775661 -0.792536
C13   C     C_R   0.208521 0.702645 0.580243 0.452851
C14   C     C_3   0.325522 0.676912 0.404061 0.077370
C15   C     C_3   0.392809 0.665253 0.367300 -0.359533
C16   C     C_3   0.415850 0.598195 0.392072 -0.956705
C17   C     C_3   0.738219 0.805568 0.260596 0.124623
C18   C     C_3   0.770963 0.866275 0.224935 -0.371685
C19   C     C_3   0.843106 0.859472 0.224638 -0.792546
C20   C     C_3   0.325803 0.323123 0.596123 0.077370
C21   C     C_3   0.393321 0.334413 0.632266 -0.360062
C22   C     C_3   0.416487 0.401477 0.607768 -0.956388
C23   C     C_3   0.220536 0.129154 0.284413 0.128682
C24   C     C_R   0.804570 0.282846 0.432861 0.500320
C25   C     C_3   0.203385 0.059171 0.264645 -0.370581
C26   C     C_3   0.132510 0.046645 0.276993 -0.806542
C27   C     C_3   0.626236 0.660713 0.614662 0.069760
C28   C     C_3   0.554895 0.668202 0.632309 -0.371071
C29   C     C_3   0.519642 0.605742 0.613695 -0.956102
C30   C     C_R   0.208621 0.297516 0.419783 0.452900
C31   C     C_R   0.804679 0.717180 0.567208 0.500666
C32   C     C_R   0.757872 0.656950 0.435285 0.480888
C33   C     C_R   0.160988 0.259385 0.567644 0.504665
C34   C     C_R   0.257726 0.843300 0.564534 0.480778
C35   C     C_R   0.660863 0.240689 0.432352 0.504522
C36   C     C_R   0.708535 0.202622 0.580250 0.452894
C37   C     C_R   0.913208 0.585593 0.500107 0.921114
C38   C     C_R   0.304522 0.782883 0.432842 0.500276
C39   C     C_R   0.708691 0.797598 0.419819 0.452942
C40   C     C_R   0.304676 0.217197 0.567144 0.500441
C41   C     C_R   0.257811 0.156860 0.435379 0.480838
C42   C     C_R   0.661004 0.759395 0.567602 0.504742
C43   C     C_R   0.810719 0.383261 0.563917 -0.323219
C44   C     C_R   0.122816 0.686856 0.429456 -0.302867
C45   C     C_R   0.169049 0.649240 0.576548 -0.336779
C46   C     C_R   0.856077 0.323725 0.432470 -0.312328
C47   C     C_R   0.169110 0.350882 0.423490 -0.336703
C48   C     C_R   0.913208 0.414402 0.499880 0.921099
C49   C     C_R   0.856117 0.676226 0.567631 -0.312646
C50   C     C_R   0.810807 0.616917 0.435888 -0.323275
C51   C     C_R   0.122960 0.313221 0.570590 -0.303009
C52   C     C_R   0.310711 0.883277 0.563927 -0.323195
C53   C     C_R   0.622858 0.186828 0.429428 -0.302839
C54   C     C_R   0.669050 0.149228 0.576559 -0.336771
C55   C     C_R   0.356042 0.823746 0.432456 -0.312287
C56   C     C_R   0.669162 0.850948 0.423528 -0.336639
C57   C     C_R   0.356139 0.176274 0.567547 -0.312399
C58   C     C_R   0.310757 0.116841 0.435981 -0.323260
C59   C     C_R   0.085369 0.587199 0.500130 0.926324
C60   C     C_R   0.622958 0.813218 0.570554 -0.303046
C61   C     C_R   0.859780 0.372277 0.499663 -0.153432
C62   C     C_R   0.127171 0.641359 0.501154 -0.165282
C63   C     C_R   0.127243 0.358713 0.498881 -0.165183
C64   C     C_R   0.859824 0.627765 0.500298 -0.153509
C65   C     C_R   0.359765 0.872289 0.499662 -0.153451
C66   C     C_R   0.627184 0.141346 0.501150 -0.165269
C67   C     C_R   0.627259 0.858734 0.498882 -0.165100
C68   C     C_R   0.359814 0.127755 0.500301 -0.153486
C69   C     C_R   0.984546 0.444602 0.105007 -0.282293
C70   C     C_R   0.585382 0.912821 0.499883 0.926347
C71   C     C_R   0.984538 0.555393 0.894982 -0.282289
C72   C     C_R   0.015412 0.555400 0.105453 -0.280460
C73   C     C_R   0.015420 0.444607 0.894558 -0.280465
C74   C     C_R   0.484536 0.944605 0.105007 -0.282289
C75   C     C_R   0.484547 0.055395 0.894982 -0.282291
C76   C     C_R   0.515422 0.055397 0.105453 -0.280460
C77   C     C_R   0.515412 0.944604 0.894557 -0.280472
C78   C     C_R   0.755358 0.293455 0.498163 -0.034344
C79   C     C_R   0.205510 0.746568 0.505444 -0.050170
C80   C     C_R   0.205661 0.253583 0.494572 -0.050209
C81   C     C_R   0.413209 0.085595 0.500107 0.921094
C82   C     C_R   0.755498 0.706693 0.501772 -0.034286
C83   C     C_R   0.255318 0.793493 0.498159 -0.034338
C84   C     C_R   0.705550 0.246531 0.505431 -0.050160
C85   C     C_R   0.705712 0.753637 0.494569 -0.050281
C86   C     C_R   0.255457 0.206648 0.501792 -0.034299
C87   C     C_R   0.985057 0.445589 0.204287 0.018147
C88   C     C_R   0.985050 0.554406 0.795704 0.018155
C89   C     C_R   0.014916 0.554415 0.204720 0.023216
C90   C     C_R   0.014925 0.445591 0.795290 0.023218
C91   C     C_R   0.485048 0.945591 0.204286 0.018155
C92   C     C_R   0.413205 0.914404 0.499880 0.921070
C93   C     C_R   0.485059 0.054408 0.795704 0.018150
C94   C     C_R   0.514925 0.054412 0.204720 0.023225
C95   C     C_R   0.514916 0.945588 0.795290 0.023210
C96   C     C_R   0.999977 0.500000 0.053367 0.136725
C97   C     C_R   0.999977 0.500000 0.946633 0.136736
C98   C     C_R   0.499977 0.000000 0.053367 0.136725
C99   C     C_R   0.499978 0.000000 0.946633 0.136734
C100  C     C_3   0.720485 0.371093 0.715426 0.128608
C101  C     C_3   0.703384 0.441102 0.735033 -0.370530
C102  C     C_3   0.632518 0.453647 0.722603 -0.806623
C103  C     C_R   0.585370 0.087197 0.500129 0.926337
C104  C     C_3   0.126142 0.839415 0.385150 0.069639
C105  C     C_3   0.054769 0.831989 0.367688 -0.371006
C106  C     C_3   0.019644 0.894539 0.386112 -0.955855
C107  C     C_3   0.238057 0.694790 0.739491 0.124551
C108  C     C_3   0.270854 0.634139 0.775242 -0.371606
C109  C     C_3   0.342993 0.641009 0.775538 -0.792541
C110  C     C_3   0.825611 0.176882 0.404098 0.077370
C111  C     C_3   0.892937 0.165290 0.367445 -0.359567
C112  C     C_3   0.916013 0.098243 0.392208 -0.956743
C113  C     C_3   0.238098 0.305445 0.260531 0.124537
C114  C     C_R   0.757744 0.343272 0.564523 0.480784
C115  C     C_3   0.270855 0.366138 0.224844 -0.371608
C116  C     C_3   0.342996 0.359312 0.224516 -0.792606
C117  C     C_3   0.825871 0.823044 0.596569 0.077423
C118  C     C_3   0.893634 0.833859 0.632031 -0.360760
C119  C     C_3   0.916891 0.901009 0.608242 -0.956008
C120  C     C_3   0.720649 0.629286 0.284264 0.128617
C121  C     C_3   0.703495 0.559304 0.264487 -0.370592
C122  C     C_3   0.632614 0.546787 0.276782 -0.806507
C123  C     C_3   0.126240 0.160725 0.614839 0.069734
C124  C     C_3   0.054901 0.168231 0.632491 -0.371071
H1    H     H_    0.971219 0.400843 0.069303 0.134265
H2    H     H_    0.089607 0.680927 0.371666 0.170119
H3    H     H_    0.527621 0.410688 0.459665 0.271133
H4    H     H_    0.468157 0.387245 0.374528 0.263429
H5    H     H_    0.536397 0.432160 0.336621 0.263564
H6    H     H_    0.685687 0.190839 0.749052 0.082963
H7    H     H_    0.752867 0.235434 0.785040 0.137427
H8    H     H_    0.754433 0.124235 0.848418 0.176627
H9    H     H_    0.757563 0.092699 0.730368 0.209559
H10   H     H_    0.860855 0.148701 0.702832 0.276213
H11   H     H_    0.864717 0.096658 0.803835 0.230361
H12   H     H_    0.857476 0.181815 0.821061 0.241590
H13   H     H_    0.172465 0.612462 0.629827 0.165204
H14   H     H_    0.294369 0.637362 0.379589 0.174612
H15   H     H_    0.325525 0.674941 0.482862 0.146470
H16   H     H_    0.393698 0.671015 0.289313 0.237991
H17   H     H_    0.425593 0.700895 0.399064 0.211015
H18   H     H_    0.413259 0.590432 0.469477 0.269104
H19   H     H_    0.465807 0.592240 0.368855 0.266902
H20   H     H_    0.386257 0.561679 0.355847 0.265281
H21   H     H_    0.685879 0.809495 0.251004 0.082981
H22   H     H_    0.753093 0.764983 0.215021 0.137441
H23   H     H_    0.754602 0.876240 0.151844 0.176649
H24   H     H_    0.893672 0.316788 0.381286 0.162576
H25   H     H_    0.757709 0.907675 0.269956 0.209565
H26   H     H_    0.861019 0.851685 0.297461 0.276302
H27   H     H_    0.864873 0.903859 0.196607 0.230432
H28   H     H_    0.857667 0.818718 0.179139 0.241577
H29   H     H_    0.294940 0.362735 0.621150 0.174682
H30   H     H_    0.325414 0.325309 0.517343 0.146489
H31   H     H_    0.394581 0.328370 0.710193 0.237953
H32   H     H_    0.425818 0.298777 0.599877 0.210979
H33   H     H_    0.413524 0.409525 0.530454 0.269118
H34   H     H_    0.466585 0.407168 0.630486 0.266900
H35   H     H_    0.172475 0.387665 0.370213 0.165191
H36   H     H_    0.387219 0.437969 0.644597 0.265251
H37   H     H_    0.270902 0.138477 0.264875 0.088764
H38   H     H_    0.192019 0.159834 0.236634 0.140618
H39   H     H_    0.217040 0.047190 0.190906 0.176202
H40   H     H_    0.230164 0.027125 0.312581 0.212685
H41   H     H_    0.118074 0.054933 0.351463 0.277873
H42   H     H_    0.121998 0.996199 0.258259 0.226113
H43   H     H_    0.104460 0.078288 0.229988 0.243539
H44   H     H_    0.644231 0.620827 0.658818 0.173183
H45   H     H_    0.634962 0.646532 0.539836 0.159844
H46   H     H_    0.893658 0.683026 0.618971 0.162684
H47   H     H_    0.546767 0.683162 0.706692 0.234382
H48   H     H_    0.535424 0.705676 0.585025 0.213881
H49   H     H_    0.527469 0.589660 0.539802 0.271181
H50   H     H_    0.468072 0.613097 0.625002 0.263366
H51   H     H_    0.536230 0.568010 0.662788 0.263630
H52   H     H_    0.813618 0.576479 0.388359 0.158937
H53   H     H_    0.089768 0.319117 0.628385 0.170083
H54   H     H_    0.313541 0.923768 0.611360 0.158912
H55   H     H_    0.589662 0.180896 0.371623 0.170108
H56   H     H_    0.672445 0.112460 0.629856 0.165215
H57   H     H_    0.971205 0.599147 0.930677 0.134264
H58   H     H_    0.393632 0.816804 0.381265 0.162583
H59   H     H_    0.672540 0.887751 0.370284 0.165162
H60   H     H_    0.393723 0.183147 0.618796 0.162627
H61   H     H_    0.313546 0.076366 0.388515 0.158920
H62   H     H_    0.589737 0.819082 0.628318 0.170048
H63   H     H_    0.973216 0.402680 0.242886 0.125834
H64   H     H_    0.973203 0.597311 0.757096 0.125809
H65   H     H_    0.026737 0.597336 0.243651 0.124442
H66   H     H_    0.026754 0.402675 0.756367 0.124423
H67   H     H_    0.473199 0.902684 0.242886 0.125836
H68   H     H_    0.028727 0.599160 0.070104 0.134280
H69   H     H_    0.473218 0.097315 0.757096 0.125836
H70   H     H_    0.526755 0.097331 0.243650 0.124435
H71   H     H_    0.526738 0.902670 0.756366 0.124434
H72   H     H_    0.770841 0.361754 0.735021 0.088791
H73   H     H_    0.691942 0.340471 0.763243 0.140636
H74   H     H_    0.717046 0.453149 0.808755 0.176223
H75   H     H_    0.730183 0.473089 0.687044 0.212701
H76   H     H_    0.618078 0.445283 0.648142 0.277846
H77   H     H_    0.622042 0.504117 0.741205 0.226129
H78   H     H_    0.604448 0.422070 0.769665 0.243567
H79   H     H_    0.028742 0.400851 0.929915 0.134262
H80   H     H_    0.144136 0.879222 0.340841 0.173225
H81   H     H_    0.134980 0.853684 0.459915 0.159948
H82   H     H_    0.046521 0.816896 0.293387 0.234382
H83   H     H_    0.035303 0.794632 0.415176 0.213878
H84   H     H_    0.027642 0.910789 0.459890 0.271102
H85   H     H_    0.968041 0.887228 0.375040 0.263508
H86   H     H_    0.036194 0.932131 0.336763 0.263543
H87   H     H_    0.185721 0.690812 0.749053 0.082971
H88   H     H_    0.252896 0.735418 0.785027 0.137421
H89   H     H_    0.254516 0.624205 0.848343 0.176631
H90   H     H_    0.471202 0.900848 0.069303 0.134266
H91   H     H_    0.257621 0.592698 0.730274 0.209553
H92   H     H_    0.360889 0.648738 0.702701 0.276209
H93   H     H_    0.364795 0.596672 0.803673 0.230393
H94   H     H_    0.357534 0.681823 0.820950 0.241585
H95   H     H_    0.794511 0.137309 0.379552 0.174615
H96   H     H_    0.825550 0.174893 0.482898 0.146462
H97   H     H_    0.893881 0.171080 0.289465 0.237980
H98   H     H_    0.925668 0.200948 0.399293 0.211004
H99   H     H_    0.913366 0.090452 0.469603 0.269093
H100  H     H_    0.965993 0.092339 0.369076 0.266916
H101  H     H_    0.471221 0.099151 0.930677 0.134271
H102  H     H_    0.886479 0.061715 0.355904 0.265273
H103  H     H_    0.185757 0.309389 0.250972 0.082974
H104  H     H_    0.252945 0.264852 0.214951 0.137438
H105  H     H_    0.254482 0.376104 0.151760 0.176645
H106  H     H_    0.257625 0.407547 0.269865 0.209556
H107  H     H_    0.360923 0.351532 0.297334 0.276247
H108  H     H_    0.364771 0.403687 0.196458 0.230429
H109  H     H_    0.357534 0.318545 0.179025 0.241593
H110  H     H_    0.795333 0.862705 0.622301 0.174861
H111  H     H_    0.825060 0.825546 0.517825 0.146410
H112  H     H_    0.528744 0.099155 0.070104 0.134274
H113  H     H_    0.895318 0.827279 0.709843 0.237980
H114  H     H_    0.925831 0.798345 0.598699 0.210889
H115  H     H_    0.913500 0.909606 0.531096 0.269078
H116  H     H_    0.967141 0.906362 0.630387 0.266897
H117  H     H_    0.887977 0.937346 0.646012 0.265208
H118  H     H_    0.771022 0.638606 0.264766 0.088735
H119  H     H_    0.692152 0.659967 0.236459 0.140620
H120  H     H_    0.717172 0.547321 0.190757 0.176210
H121  H     H_    0.730253 0.527253 0.312440 0.212669
H122  H     H_    0.618154 0.555083 0.351240 0.277861
H123  H     H_    0.528727 0.900847 0.929915 0.134266
H124  H     H_    0.622103 0.496340 0.258052 0.226119
H125  H     H_    0.604584 0.578429 0.229750 0.243540
H126  H     H_    0.144236 0.120866 0.659046 0.173189
H127  H     H_    0.134957 0.146495 0.540030 0.159889
H128  H     H_    0.046782 0.183253 0.706849 0.234375
H129  H     H_    0.035427 0.205666 0.585143 0.213885
H130  H     H_    0.027480 0.089602 0.540140 0.271165
H131  H     H_    0.968075 0.113125 0.625275 0.263359
H132  H     H_    0.036225 0.068071 0.663174 0.263646
H133  H     H_    0.270857 0.861734 0.735033 0.088799
H134  H     H_    0.813537 0.423759 0.611338 0.158898
H135  H     H_    0.191959 0.840452 0.763268 0.140640
H136  H     H_    0.217086 0.953107 0.808864 0.176216
H137  H     H_    0.230213 0.973091 0.687166 0.212703
H138  H     H_    0.118097 0.945325 0.648271 0.277828
H139  H     H_    0.122083 0.004119 0.741388 0.226124
H140  H     H_    0.104477 0.922062 0.769775 0.243575
H141  H     H_    0.644291 0.379181 0.340811 0.173200
H142  H     H_    0.634977 0.353614 0.459845 0.159917
H143  H     H_    0.546712 0.316941 0.293036 0.234376
H144  H     H_    0.535340 0.294588 0.414757 0.213896
N1    N     N_R   1.000000 0.500000 0.252470 -0.093732
N2    N     N_R   1.000000 0.500000 0.747530 -0.093723
N3    N     N_R   0.500000 1.000000 0.252470 -0.093731
N4    N     N_R   0.500000 1.000000 0.747530 -0.093728
O1    O     O_R   0.065470 0.434530 0.579480 -0.629068
O2    O     O_R   0.434530 0.065470 0.420520 -0.621477
O3    O     O_R   0.434530 0.065470 0.579480 -0.628458
O4    O     O_R   0.565470 0.934530 0.420520 -0.621376
O5    O     O_R   0.434530 0.934530 0.420520 -0.628421
O6    O     O_R   0.565470 0.065470 0.579480 -0.621367
O7    O     O_R   0.565470 0.065470 0.420520 -0.629078
O8    O     O_R   0.434530 0.934530 0.579480 -0.621458
O9    O     O_3   0.704872 0.354288 0.621275 -0.641760
O10   O     O_3   0.159051 0.783353 0.357840 -0.622077
O11   O     O_3   0.257433 0.708287 0.645856 -0.638600
O12   O     O_R   0.934530 0.565470 0.420520 -0.621506
O13   O     O_3   0.800984 0.234393 0.366336 -0.622334
O14   O     O_3   0.257507 0.291913 0.354152 -0.638583
O15   O     O_3   0.801064 0.765497 0.633947 -0.622274
O16   O     O_3   0.705013 0.646025 0.378424 -0.641705
O17   O     O_3   0.159267 0.216728 0.642149 -0.622045
O18   O     O_3   0.204866 0.854320 0.621307 -0.641770
O19   O     O_3   0.659140 0.283299 0.357786 -0.622065
O20   O     O_3   0.757432 0.208265 0.645886 -0.638586
O21   O     O_3   0.300920 0.734437 0.366308 -0.622350
O22   O     O_3   0.757606 0.792039 0.354228 -0.638517
O23   O     O_R   0.934530 0.565470 0.579480 -0.628484
O24   O     O_3   0.301114 0.265600 0.633753 -0.622312
O25   O     O_3   0.204931 0.145883 0.378588 -0.641705
O26   O     O_3   0.659255 0.716701 0.642060 -0.621992
O27   O     O_R   0.065470 0.434530 0.420520 -0.621374
O28   O     O_R   0.934530 0.434530 0.420520 -0.628420
O29   O     O_R   0.065470 0.565470 0.579480 -0.621351
O30   O     O_R   0.065470 0.565470 0.420520 -0.629060
O31   O     O_R   0.934530 0.434530 0.579480 -0.621459
O32   O     O_R   0.565470 0.934530 0.579480 -0.629065
Zn1   Zn    Zn3+2 1.000000 0.500000 0.606140 0.933070
Zn2   Zn    Zn3+2 1.000000 0.500000 0.393860 0.933070
Zn3   Zn    Zn3+2 0.500000 0.000000 0.606140 0.933073
Zn4   Zn    Zn3+2 0.500000 1.000000 0.393860 0.933079

loop_
_geom_bond_atom_site_label_1
_geom_bond_atom_site_label_2
_ccdc_geom_bond_type
C121  H120  S    
C13   C45   A    
C124  H129  S    
C13   C79   A    
C26   H41   S    
C101  C102  S    
O28   Zn2   S    
C38   C83   A    
C35   C53   A    
C117  C118  S    
C50   C64   A    
C71   H57   S    
C17   H21   S    
C111  C112  S    
N4    Zn3   S    
C103  O7    A    
C29   H50   S    
C8    H144  S    
C109  H92   S    
C11   H8    S    
C71   C88   A    
C33   C80   A    
O2    Zn4   S    
C123  C124  S    
C74   C98   A    
C47   H35   S    
C120  C121  S    
C73   C97   A    
C41   C86   A    
C73   H79   S    
C44   H2    S    
C4    H133  S    
C31   C82   A    
C20   H30   S    
C6    H138  S    
C89   N1    A    
C68   C81   S    
C104  H80   S    
C28   C29   S    
C16   H20   S    
C102  H77   S    
C31   C49   A    
C73   C90   A    
C81   O2    A    
C91   N3    A    
C11   H9    S    
C43   C114  A    
C47   C63   A    
C49   H46   S    
C110  O13   S    
C119  H116  S    
C113  H103  S    
N2    Zn1   S    
C107  H87   S    
C118  H114  S    
C117  H111  S    
C25   H40   S    
C76   C98   A    
C115  C116  S    
C106  H86   S    
C1    C63   S    
C45   C62   A    
C25   H39   S    
C19   H26   S    
C108  C109  S    
C106  H84   S    
C50   H52   S    
C18   C19   S    
C111  H97   S    
C105  H82   S    
C40   C86   A    
C92   O5    A    
C7    H141  S    
C118  C119  S    
C115  H106  S    
C80   C86   S    
C2    C79   A    
C114  O9    S    
C104  O10   S    
C3    H132  S    
O12   Zn2   S    
C28   H48   S    
O32   Zn3   S    
C46   H24   S    
C38   C55   A    
C14   H14   S    
C60   C67   A    
C2    C44   A    
C8    C9    S    
C12   H11   S    
C100  O9    S    
C38   O21   S    
C19   H27   S    
C107  C108  S    
C23   H37   S    
C6    H139  S    
C109  H94   S    
C117  O15   S    
C18   H25   S    
C110  H96   S    
C27   H45   S    
C1    O1    A    
C108  H89   S    
C23   O25   S    
C51   C63   A    
C27   H44   S    
C122  H122  S    
C23   H38   S    
C30   C80   A    
C100  H73   S    
C48   O31   A    
O8    Zn3   S    
C121  H121  S    
C69   H1    S    
C37   O23   A    
C49   C64   A    
C15   H17   S    
C21   C22   S    
C116  H108  S    
C58   H61   S    
C5    H137  S    
C112  H100  S    
C27   O26   S    
C90   N2    A    
C41   O25   S    
C29   H51   S    
C8    H143  S    
C52   H54   S    
C53   H55   S    
C45   H13   S    
C104  C105  S    
C55   C65   A    
C34   O18   S    
C105  H83   S    
C3    H131  S    
C17   O22   S    
C100  H72   S    
C35   O19   S    
C26   H43   S    
C9    H4    S    
C112  H102  S    
C20   H29   S    
C46   C61   A    
C6    H140  S    
C30   C47   A    
C7    C8    S    
C16   H19   S    
C70   O4    A    
C123  H126  S    
O31   Zn1   S    
C18   H23   S    
O1    Zn1   S    
C101  H74   S    
C13   O11   S    
C113  H104  S    
C87   H63   S    
C107  H88   S    
C42   O26   S    
C44   C62   A    
C25   C26   S    
C104  H81   S    
C106  H85   S    
C91   H67   S    
C77   C95   A    
C5    H136  S    
C110  C111  S    
C113  C115  S    
C77   H123  S    
C120  H119  S    
C74   C91   A    
C92   O8    A    
C69   C96   A    
C16   H18   S    
C10   H6    S    
C123  H127  S    
C53   C66   A    
C75   H101  S    
C102  H76   S    
C113  O14   S    
C71   C97   A    
C51   H53   S    
C28   H47   S    
C33   O17   S    
C39   C56   A    
O29   Zn1   S    
C35   C84   A    
C72   H68   S    
C96   C97   S    
C39   O22   S    
C75   C99   A    
C19   H28   S    
C21   H31   S    
C81   O3    A    
C76   H112  S    
C42   C85   A    
C120  H118  S    
N3    Zn4   S    
C20   C21   S    
C110  H95   S    
C119  H117  S    
C37   O12   A    
C32   C50   A    
C121  C122  S    
C65   C92   S    
C118  H113  S    
C88   N2    A    
O23   Zn1   S    
C60   H62   S    
C4    H135  S    
C9    H5    S    
C116  H107  S    
C12   H12   S    
C20   O24   S    
C7    H142  S    
O5    Zn4   S    
C40   O24   S    
C34   C83   A    
C39   C85   A    
C57   C68   A    
C42   C60   A    
C82   C85   S    
O3    Zn3   S    
C36   O20   S    
C24   C78   A    
C37   C64   S    
C32   C82   A    
C3    C124  S    
C43   C61   A    
C122  H124  S    
C15   H16   S    
C90   H66   S    
C58   C68   A    
C120  O16   S    
C24   O13   S    
C78   C114  A    
C59   C62   S    
C95   H71   S    
C40   C57   A    
C94   H70   S    
C70   O32   A    
C66   C103  S    
C1    O27   A    
C31   O15   S    
C10   H7    S    
C29   H49   S    
C4    C5    S    
C32   O16   S    
C69   C87   A    
C41   C58   A    
C10   O20   S    
C11   C12   S    
C101  H75   S    
O27   Zn2   S    
C9    H3    S    
C54   C66   A    
C22   H33   S    
C76   C94   A    
C33   C51   A    
C56   C67   A    
C22   H34   S    
C105  C106  S    
O30   Zn2   S    
C34   C52   A    
C17   C18   S    
C67   C70   S    
C24   C46   A    
C59   O30   A    
C95   N4    A    
C17   H22   S    
C102  H78   S    
C3    H130  S    
C107  O11   S    
O4    Zn4   S    
C55   H58   S    
C7    O19   S    
C87   N1    A    
C122  H125  S    
C79   C83   S    
C72   C89   A    
C119  H115  S    
O7    Zn4   S    
C5    C6    S    
C93   N4    A    
C22   H36   S    
C117  H110  S    
C36   C84   A    
C75   C93   A    
C94   N3    A    
C100  C101  S    
C112  H99   S    
C21   H32   S    
C54   H56   S    
C77   C99   A    
C23   C25   S    
C123  O17   S    
C116  H109  S    
C4    O18   S    
C115  H105  S    
C108  H91   S    
C109  H93   S    
C10   C11   S    
C2    O10   S    
N1    Zn2   S    
C72   C96   A    
C78   C84   S    
C88   H64   S    
C14   H15   S    
C124  H128  S    
C98   C99   S    
C26   H42   S    
C93   H69   S    
C27   C28   S    
C30   O14   S    
C48   C61   S    
C89   H65   S    
C14   C15   S    
C43   H134  S    
C12   H10   S    
C36   C54   A    
C103  O6    A    
C59   O29   A    
C56   H59   S    
C48   O28   A    
C111  H98   S    
C57   H60   S    
C74   H90   S    
C52   C65   A    
C15   C16   S    
O6    Zn3   S    
C14   O21   S    
