data_mof_unit_37700.cif
_audit_creation_date              2012-12-10T20:50:10-0500
_audit_creation_method            fapswitch 2.2
_symmetry_space_group_name_H-M    P1
_symmetry_Int_Tables_number       1
_space_group_crystal_system       triclinic
_cell_length_a                    19.143358
_cell_length_b                    8.888861
_cell_length_c                    8.09288
_cell_angle_alpha                 89.992141
_cell_angle_beta                  90.064449
_cell_angle_gamma                 89.994355
_cell_volume                      1377.10500259

loop_
_atom_site_label
_atom_site_type_symbol
_atom_type_description
_atom_site_fract_x
_atom_site_fract_y
_atom_site_fract_z
_atom_type_partial_charge
C1    C     C_R   0.499979 0.218011 0.500005 0.915981
C2    C     C_R   0.249754 0.543316 0.370232 0.430824
C3    C     C_R   0.184633 0.376642 0.623928 0.350253
C4    C     C_R   0.817374 0.383346 0.380981 0.351178
C5    C     C_R   0.820046 0.513530 0.648341 0.302388
C6    C     C_R   0.178675 0.512455 0.359122 0.361903
C7    C     C_R   0.145548 0.433356 0.488970 -0.298916
C8    C     C_R   0.854488 0.437254 0.518644 -0.236108
C9    C     C_R   0.289367 0.481008 0.500046 -0.462269
C10   C     C_R   0.710781 0.484129 0.501008 -0.410681
C11   C     C_R   0.930202 0.433109 0.514308 0.394057
C12   C     C_R   0.499908 0.781999 0.499993 0.900527
C13   C     C_R   0.070147 0.431842 0.495478 0.295689
C14   C     C_3   0.310482 0.189848 0.734864 0.132418
C15   C     C_3   0.354323 0.133787 0.880237 -0.310922
C16   C     C_3   0.368631 0.965245 0.867525 -0.936805
C17   C     C_3   0.692194 0.189666 0.274888 0.076314
C18   C     C_3   0.649231 0.126743 0.131545 -0.310536
C19   C     C_3   0.637241 0.957831 0.150416 -0.926907
C20   C     C_3   0.706058 0.780330 0.694183 0.101839
C21   C     C_3   0.762088 0.886750 0.762056 -0.273550
C22   C     C_3   0.751776 0.047057 0.698915 -1.002410
C23   C     C_R   0.365036 0.497736 0.500112 0.951313
C24   C     C_3   0.293229 0.778271 0.310879 0.098237
C25   C     C_3   0.237805 0.887533 0.245674 -0.270697
C26   C     C_3   0.249710 0.046669 0.310768 -0.987793
C27   C     C_R   0.634986 0.498464 0.499994 0.954292
C28   C     C_1   0.499897 0.065303 0.500000 -0.210523
C29   C     C_1   0.499860 0.934755 0.499987 -0.241609
C30   C     C_R   0.256908 0.396062 0.625379 0.406772
C31   C     C_R   0.744367 0.400518 0.376104 0.309857
C32   C     C_R   0.749299 0.545805 0.633112 0.429210
H1    H     H_    0.340766 0.173178 0.618657 0.099149
H2    H     H_    0.597948 0.185172 0.126071 0.243183
H3    H     H_    0.677250 0.147951 0.013775 0.234147
H4    H     H_    0.687860 0.896855 0.151272 0.266255
H5    H     H_    0.605269 0.915938 0.045504 0.272258
H6    H     H_    0.609339 0.933770 0.267402 0.267431
H7    H     H_    0.654257 0.818325 0.739873 0.162954
H8    H     H_    0.703913 0.789020 0.556453 0.093912
H9    H     H_    0.759987 0.886692 0.899181 0.239170
H10   H     H_    0.814620 0.847092 0.723529 0.260956
H11   H     H_    0.762051 0.051379 0.564236 0.259958
H12   H     H_    0.261537 0.122304 0.729722 0.168025
H13   H     H_    0.788982 0.123896 0.761948 0.284438
H14   H     H_    0.697689 0.086466 0.723104 0.258556
H15   H     H_    0.345181 0.814996 0.264825 0.163874
H16   H     H_    0.295800 0.785312 0.448689 0.094808
H17   H     H_    0.239332 0.889007 0.108481 0.241908
H18   H     H_    0.185128 0.849422 0.284977 0.259858
H19   H     H_    0.240621 0.049565 0.446029 0.252898
H20   H     H_    0.212508 0.125490 0.250644 0.294660
H21   H     H_    0.303858 0.084657 0.284614 0.256850
H22   H     H_    0.103725 0.300341 0.748230 0.351691
H23   H     H_    0.404794 0.195508 0.883471 0.238816
H24   H     H_    0.822778 0.303476 0.155907 0.373364
H25   H     H_    0.897374 0.502733 0.804805 0.346621
H26   H     H_    0.097243 0.516160 0.212873 0.356416
H27   H     H_    0.326070 0.156762 0.997313 0.242390
H28   H     H_    0.318862 0.901123 0.867864 0.268904
H29   H     H_    0.400737 0.928406 0.974507 0.271997
H30   H     H_    0.397373 0.939674 0.752067 0.271112
H31   H     H_    0.661786 0.175605 0.391331 0.126809
H32   H     H_    0.741724 0.124366 0.283473 0.148363
N1    N     N_1   0.500000 0.500000 0.073640 -0.021980
N2    N     N_1   0.500000 0.500000 0.926360 -0.022329
N3    N     N_R   0.035674 0.561667 0.525897 -0.134294
N4    N     N_R   0.964717 0.303128 0.482476 -0.102836
N5    N     N_R   0.966581 0.562335 0.534947 -0.150826
N6    N     N_R   0.034003 0.302372 0.473657 -0.155509
O1    O     O_R   0.500000 0.285350 0.636850 -0.631197
O2    O     O_3   0.706249 0.343233 0.244790 -0.596501
O3    O     O_3   0.717376 0.632237 0.754017 -0.566551
O4    O     O_3   0.280571 0.631341 0.249038 -0.562034
O5    O     O_3   0.154993 0.306201 0.759525 -0.715593
O6    O     O_3   0.854070 0.318510 0.251965 -0.729720
O7    O     O_3   0.853851 0.561358 0.789958 -0.710875
O8    O     O_3   0.143239 0.566205 0.222178 -0.704265
O9    O     O_R   0.500000 0.714650 0.363150 -0.623031
O10   O     O_R   0.500000 0.714650 0.636850 -0.622780
O11   O     O_R   0.500000 0.285350 0.363150 -0.630267
O12   O     O_R   0.398140 0.500000 0.636920 -0.572628
O13   O     O_R   0.601860 0.500000 0.363080 -0.567403
O14   O     O_R   0.601860 0.500000 0.636920 -0.591909
O15   O     O_R   0.398140 0.500000 0.363080 -0.588739
O16   O     O_3   0.295128 0.343663 0.758980 -0.556334
Zn1   Zn    Zn3+2 0.500000 0.500000 0.682780 1.000449
Zn2   Zn    Zn3+2 0.500000 0.500000 0.317220 1.002095

loop_
_geom_bond_atom_site_label_1
_geom_bond_atom_site_label_2
_ccdc_geom_bond_type
C10   C27   S    
H24   O6    S    
C23   O12   A    
C12   C29   S    
O14   Zn1   S    
C4    C8    A    
C14   H1    S    
C1    O1    A    
C28   C29   T    
O10   Zn1   S    
C3    C7    A    
C19   H4    S    
C17   H32   S    
C20   H8    S    
C6    O8    S    
C13   N6    A    
C1    O11   A    
O12   Zn1   S    
C12   O9    A    
C18   C19   S    
C16   H28   S    
C25   H18   S    
C19   H5    S    
C10   C31   A    
C1    C28   S    
C30   O16   S    
C3    O5    S    
C18   H3    S    
C2    O4    S    
C5    C32   A    
O13   Zn2   S    
C21   C22   S    
C2    C6    A    
C16   H30   S    
O9    Zn2   S    
C4    C31   A    
H25   O7    S    
C24   C25   S    
C14   O16   S    
C32   O3    S    
C20   H7    S    
C9    C23   S    
C25   C26   S    
H22   O5    S    
N3    N5    A    
C24   H16   S    
C3    C30   A    
C19   H6    S    
C26   H20   S    
C22   H11   S    
C17   C18   S    
C18   H2    S    
C9    C30   A    
C21   H9    S    
C31   O2    S    
C22   H14   S    
O1    Zn1   S    
C16   H29   S    
C5    O7    S    
C26   H21   S    
N2    Zn1   S    
C11   N4    A    
N1    Zn2   S    
C14   H12   S    
C13   N3    A    
O15   Zn2   S    
C27   O14   A    
C24   H15   S    
C15   H27   S    
C5    C8    A    
C11   N5    A    
C6    C7    A    
C27   O13   A    
C26   H19   S    
C17   H31   S    
C24   O4    S    
C8    C11   S    
C12   O10   A    
C20   O3    S    
C25   H17   S    
C4    O6    S    
O11   Zn2   S    
H26   O8    S    
C21   H10   S    
C10   C32   A    
C7    C13   S    
C22   H13   S    
C20   C21   S    
C17   O2    S    
N4    N6    A    
N1    N2    T    
C23   O15   A    
C14   C15   S    
C2    C9    A    
C15   C16   S    
C15   H23   S    
