data_mof_unit_21260.cif
_audit_creation_date              2012-12-11T14:14:19-0500
_audit_creation_method            fapswitch 2.2
_symmetry_space_group_name_H-M    P1
_symmetry_Int_Tables_number       1
_space_group_crystal_system       triclinic
_cell_length_a                    17.426157
_cell_length_b                    7.238298
_cell_length_c                    16.719356
_cell_angle_alpha                 89.999969
_cell_angle_beta                  99.834528
_cell_angle_gamma                 90.000147
_cell_volume                      2077.91786967

loop_
_atom_site_label
_atom_site_type_symbol
_atom_type_description
_atom_site_fract_x
_atom_site_fract_y
_atom_site_fract_z
_atom_type_partial_charge
O1    O     O_R   0.414560 0.494370 0.416770 -0.541108
O2    O     O_R   0.585440 0.994370 0.583230 -0.541101
O3    O     O_R   0.578370 0.819590 0.429320 -0.546523
O4    O     O_R   0.421630 0.319590 0.570680 -0.546517
C1    C     C_R   0.602938 0.655263 0.412903 0.722090
C2    C     C_R   0.397061 0.155263 0.587095 0.722076
O5    O     O_R   0.414740 0.823790 0.407360 -0.536613
O6    O     O_R   0.585260 0.323790 0.592640 -0.536617
O7    O     O_R   0.420650 0.998510 0.561120 -0.540288
O8    O     O_R   0.579350 0.498510 0.438880 -0.540290
C3    C     C_R   0.388156 0.655687 0.384946 0.749515
C4    C     C_R   0.611844 0.155687 0.615054 0.749519
O9    O     O_3   0.502130 0.662240 0.550470 -0.378870
O10   O     O_3   0.497870 0.162240 0.449530 -0.378873
V1    V     V_3+5 0.499600 0.935390 0.490640 1.382850
V2    V     V_3+5 0.500400 0.435390 0.509360 1.382845
C5    C     C_2   0.785035 0.274686 0.785153 0.161409
C6    C     C_2   0.214966 0.774686 0.214847 0.161408
C7    C     C_2   0.814111 0.118184 0.824620 -0.345515
C8    C     C_2   0.185889 0.618184 0.175380 -0.345514
H1    H     H_    0.780503 0.991457 0.814308 0.110566
H2    H     H_    0.219496 0.491456 0.185693 0.110566
C9    C     C_2   0.705398 0.277488 0.734997 0.169092
C10   C     C_2   0.294602 0.777485 0.265002 0.169097
C11   C     C_2   0.683119 0.146263 0.677844 -0.340954
C12   C     C_2   0.316881 0.646263 0.322157 -0.340943
H3    H     H_    0.721554 0.029700 0.673855 0.108049
H4    H     H_    0.278445 0.529702 0.326146 0.108045
C13   C     C_R   0.333865 0.145769 0.635906 -0.093844
C14   C     C_R   0.666136 0.645769 0.364094 -0.093821
C15   C     C_R   0.162264 0.120936 0.858445 -0.068953
C16   C     C_R   0.837736 0.620934 0.141556 -0.068957
C17   C     C_R   0.300559 0.156758 0.852587 -0.198346
C18   C     C_R   0.699443 0.656771 0.147414 -0.198359
C19   C     C_R   0.240422 0.141677 0.898003 0.088552
C20   C     C_R   0.759579 0.641683 0.101998 0.088558
C21   C     C_R   0.146107 0.108218 0.771087 0.069937
C22   C     C_R   0.853893 0.608202 0.228914 0.069939
C23   C     C_R   0.209838 0.117187 0.726628 0.037004
C24   C     C_R   0.790163 0.617170 0.273372 0.037013
C25   C     C_R   0.287066 0.148330 0.767304 0.072330
C26   C     C_R   0.712937 0.648347 0.232698 0.072297
C27   C     C_R   0.349286 0.168220 0.721730 0.073619
C28   C     C_R   0.650720 0.668268 0.278272 0.073626
C29   C     C_R   0.257662 0.107692 0.596110 0.107897
C30   C     C_R   0.742335 0.607646 0.403889 0.107888
C31   C     C_R   0.197501 0.095763 0.641159 -0.208923
C32   C     C_R   0.802497 0.595715 0.358840 -0.208929
H5    H     H_    0.358869 0.171067 0.886275 0.140361
H6    H     H_    0.641131 0.671070 0.113728 0.140375
H7    H     H_    0.140454 0.068430 0.606772 0.117200
H8    H     H_    0.859542 0.568351 0.393226 0.117197
O11   O     O_R   0.920750 0.773600 0.061260 -0.532929
O12   O     O_R   0.079250 0.273600 0.938740 -0.532931
O13   O     O_R   0.085340 0.439850 0.092570 -0.544389
O14   O     O_R   0.914660 0.939850 0.907430 -0.544386
C33   C     C_R   0.113883 0.608825 0.112949 0.746430
C34   C     C_R   0.886116 0.108824 0.887051 0.746434
O15   O     O_R   0.921720 0.444130 0.070790 -0.543140
O16   O     O_R   0.078280 0.944130 0.929210 -0.543140
O17   O     O_R   0.914480 0.269530 0.916840 -0.533111
O18   O     O_R   0.085520 0.769530 0.083160 -0.533111
C35   C     C_R   0.899119 0.612636 0.089354 0.719635
C36   C     C_R   0.100882 0.112636 0.910647 0.719640
O19   O     O_3   0.997840 0.601520 0.949550 -0.378052
O20   O     O_3   0.002160 0.101520 0.050450 -0.378052
V3    V     V_3+5 0.000400 0.328340 0.009360 1.379620
V4    V     V_3+5 0.999600 0.828340 0.990640 1.379622
C37   C     C_3   0.829753 0.455243 0.790475 -0.683931
H9    H     H_    0.801402 0.555958 0.744641 0.183242
H10   H     H_    0.831964 0.519369 0.851083 0.211577
H11   H     H_    0.889348 0.432970 0.777574 0.198490
C38   C     C_3   0.170249 0.955244 0.209524 -0.683932
H12   H     H_    0.198600 0.055959 0.255358 0.183246
H13   H     H_    0.168038 0.019369 0.148916 0.211577
H14   H     H_    0.110654 0.932973 0.222425 0.198490
C39   C     C_3   0.064443 0.088413 0.719555 -0.398670
C40   C     C_3   0.992854 0.093690 0.758936 -0.763693
H15   H     H_    0.990456 0.966835 0.795204 0.243378
H16   H     H_    0.992368 0.222359 0.794502 0.225032
H17   H     H_    0.940049 0.094244 0.711101 0.208518
H18   H     H_    0.056470 0.203354 0.674713 0.189634
H19   H     H_    0.061953 0.955064 0.686157 0.186761
C41   C     C_3   0.935557 0.588385 0.280446 -0.398665
C42   C     C_3   0.007146 0.593684 0.241066 -0.763693
H20   H     H_    0.009548 0.466837 0.204794 0.243379
H21   H     H_    0.007630 0.722360 0.205503 0.225030
H22   H     H_    0.059951 0.594238 0.288901 0.208518
H23   H     H_    0.943530 0.703311 0.325295 0.189635
H24   H     H_    0.938047 0.455024 0.313835 0.186758
C43   C     C_3   0.652522 0.435943 0.748903 -0.725121
H25   H     H_    0.674969 0.508380 0.806757 0.193593
H26   H     H_    0.648842 0.538505 0.699036 0.219104
H27   H     H_    0.593772 0.383514 0.753679 0.194446
C44   C     C_3   0.347481 0.935935 0.251094 -0.725142
H28   H     H_    0.325035 0.008369 0.193239 0.193595
H29   H     H_    0.351162 0.038500 0.300960 0.219103
H30   H     H_    0.406230 0.883499 0.246318 0.194471
C45   C     C_3   0.432054 0.212606 0.763410 -0.377149
C46   C     C_3   0.477137 0.037063 0.791918 -0.767385
H31   H     H_    0.447777 0.959559 0.835399 0.227031
H32   H     H_    0.481730 0.946823 0.739199 0.231636
H33   H     H_    0.536850 0.073956 0.822476 0.216822
H34   H     H_    0.464335 0.288009 0.722118 0.174306
H35   H     H_    0.432493 0.310249 0.814585 0.173224
C47   C     C_3   0.567962 0.712765 0.236595 -0.377164
C48   C     C_3   0.522829 0.537281 0.208098 -0.767440
H36   H     H_    0.463150 0.574264 0.177473 0.216828
H37   H     H_    0.552204 0.459612 0.164678 0.227055
H38   H     H_    0.518148 0.447158 0.260829 0.231611
H39   H     H_    0.535706 0.788252 0.277885 0.174344
H40   H     H_    0.567546 0.810379 0.185414 0.173230
C49   C     C_3   0.237735 0.083181 0.504543 -0.357806
C50   C     C_3   0.227086 0.269459 0.461290 -0.761676
H41   H     H_    0.179114 0.348071 0.481546 0.225052
H42   H     H_    0.281375 0.352142 0.474003 0.234244
H43   H     H_    0.212114 0.247094 0.394742 0.208260
H44   H     H_    0.283033 0.001504 0.481170 0.187844
H45   H     H_    0.182881 0.003071 0.487875 0.173390
C51   C     C_3   0.762260 0.583099 0.495455 -0.357799
C52   C     C_3   0.772905 0.769361 0.538723 -0.761681
H46   H     H_    0.820875 0.847992 0.518473 0.225052
H47   H     H_    0.718615 0.852040 0.526018 0.234239
H48   H     H_    0.787878 0.746970 0.605269 0.208262
H49   H     H_    0.716963 0.501403 0.518819 0.187856
H50   H     H_    0.817116 0.502992 0.512118 0.173387
C53   C     C_3   0.263131 0.146308 0.989947 -0.355279
C54   C     C_3   0.278641 0.343675 0.020573 -0.740152
H51   H     H_    0.326705 0.406463 0.993948 0.220487
H52   H     H_    0.225388 0.429277 0.004228 0.234415
H53   H     H_    0.295786 0.342504 0.087650 0.205459
H54   H     H_    0.218111 0.083717 0.020970 0.167123
H55   H     H_    0.316496 0.061967 0.008819 0.173195
C55   C     C_3   0.736869 0.646315 0.010053 -0.355273
C56   C     C_3   0.721348 0.843678 0.979429 -0.740156
H56   H     H_    0.673282 0.906446 0.006056 0.220486
H57   H     H_    0.774597 0.929299 0.995775 0.234411
H58   H     H_    0.704203 0.842510 0.912352 0.205458
H59   H     H_    0.781892 0.583742 0.979029 0.167124
H60   H     H_    0.683508 0.561959 0.991182 0.173196

loop_
_geom_bond_atom_site_label_1
_geom_bond_atom_site_label_2
_ccdc_geom_bond_type
C56   H58   S    
C22   C24   A    
C5    C37   S    
C25   C27   A    
C38   H12   S    
C44   H28   S    
O1    C3    A    
O2    C4    A    
C54   H51   S    
C2    O7    A    
C50   H41   S    
C44   H30   S    
C56   H56   S    
C23   C25   A    
C47   H40   S    
C39   C40   S    
O5    C3    A    
C5    C9    S    
C41   H24   S    
C6    C10   S    
C16   C20   A    
C7    H1    S    
C10   C12   D    
C1    C14   S    
C42   H20   S    
C17   C19   A    
C51   H50   S    
C47   C48   S    
C39   H19   S    
C17   H5    S    
C56   H57   S    
C37   H10   S    
O11   V4    S    
C53   H54   S    
C52   H48   S    
O15   V3    S    
C49   H45   S    
C18   C26   A    
C48   H36   S    
C16   C22   A    
C18   C20   A    
C34   O17   A    
O5    V1    S    
O20   V3    S    
O6    V2    S    
C13   C27   A    
C48   H37   S    
C14   C28   A    
C26   C28   A    
C47   H39   S    
C29   C31   A    
C7    C34   S    
C45   H35   S    
C30   C32   A    
C18   H6    S    
C42   H21   S    
C33   O18   A    
C41   C42   S    
O4    C2    A    
C10   C44   S    
C55   H59   S    
C40   H15   S    
C31   H7    S    
O12   V3    S    
C3    C12   S    
O14   V4    S    
C21   C39   S    
C46   H33   S    
C15   C21   A    
C13   C29   A    
O4    V2    S    
C37   H11   S    
C43   H26   S    
O17   V3    S    
C50   H42   S    
C45   C46   S    
O6    C4    A    
O19   V4    S    
C46   H32   S    
C40   H16   S    
C30   C51   S    
O1    V2    S    
C19   C53   S    
O2    V1    S    
C52   H46   S    
C8    H2    S    
C6    C38   S    
C28   C47   S    
O13   C33   A    
C48   H38   S    
C9    C43   S    
C41   H23   S    
C38   H13   S    
C53   C54   S    
C54   H53   S    
C43   H25   S    
O3    V1    S    
C51   C52   S    
C23   C31   A    
C49   C50   S    
C42   H22   S    
C24   C32   A    
C22   C41   S    
C51   H49   S    
O15   C35   A    
C15   C36   S    
C14   C30   A    
C53   H55   S    
C16   C35   S    
C27   C45   S    
O3    C1    A    
C20   C55   S    
O13   V3    S    
C44   H29   S    
C55   C56   S    
C54   H52   S    
C11   H3    S    
C12   H4    S    
O18   V4    S    
C4    C11   S    
O16   C36   A    
C17   C25   A    
O7    V1    S    
C1    O8    A    
C21   C23   A    
O8    V2    S    
C43   H27   S    
C55   H60   S    
O11   C35   A    
C40   H17   S    
O12   C36   A    
C39   H18   S    
C15   C19   A    
C24   C26   A    
C46   H31   S    
C5    C7    D    
O14   C34   A    
C45   H34   S    
C6    C8    D    
C9    C11   D    
C37   H9    S    
C52   H47   S    
C50   H43   S    
C49   H44   S    
C29   C49   S    
C32   H8    S    
C2    C13   S    
C38   H14   S    
O16   V4    S    
O9    V2    S    
O10   V1    S    
C8    C33   S    
