data_mof_unit_46913.cif
_audit_creation_date              2012-12-11T16:08:54-0500
_audit_creation_method            fapswitch 2.2
_symmetry_space_group_name_H-M    P1
_symmetry_Int_Tables_number       1
_space_group_crystal_system       triclinic
_cell_length_a                    12.976414
_cell_length_b                    13.273839
_cell_length_c                    27.725148
_cell_angle_alpha                 94.92626
_cell_angle_beta                  90.067938
_cell_angle_gamma                 119.314046
_cell_volume                      4143.53232604

loop_
_atom_site_label
_atom_site_type_symbol
_atom_type_description
_atom_site_fract_x
_atom_site_fract_y
_atom_site_fract_z
_atom_type_partial_charge
C1    C     C_R   0.627938 0.895784 0.427278 0.547091
C2    C     C_R   0.182125 0.747980 0.298627 0.012539
C3    C     C_R   0.170166 0.743388 0.198056 -0.037991
C4    C     C_R   0.601067 0.221887 0.440531 0.552365
C5    C     C_R   0.181672 0.657263 0.219210 -0.084916
C6    C     C_R   0.185213 0.658014 0.269269 0.393021
C7    C     C_R   0.156163 0.736547 0.148166 -0.115018
C8    C     C_R   0.125467 0.811069 0.127118 0.009601
C9    C     C_R   0.194541 0.937858 0.357372 -0.100993
C10   C     C_R   0.173822 0.929389 0.307195 0.025089
C11   C     C_R   0.173161 0.836700 0.277694 -0.048172
C12   C     C_R   0.661205 0.422806 0.237717 -0.160315
C13   C     C_R   0.159482 0.014091 0.285592 0.385731
C14   C     C_R   0.144849 0.006675 0.235201 -0.086457
C15   C     C_R   0.147824 0.916798 0.205792 -0.033942
C16   C     C_R   0.268952 0.875911 0.425624 0.544716
C17   C     C_R   0.164495 0.832855 0.227181 0.026464
C18   C     C_R   0.127590 0.905015 0.155573 -0.122953
C19   C     C_R   0.210468 0.852863 0.377665 -0.043617
C20   C     C_R   0.748007 0.945462 0.355973 -0.118469
C21   C     C_R   0.751668 0.935560 0.306035 0.005490
C22   C     C_R   0.751628 0.921212 0.205266 0.037807
C23   C     C_R   0.653263 0.407013 0.287057 -0.101710
C24   C     C_R   0.837612 0.021069 0.232733 -0.085444
C25   C     C_R   0.838640 0.027538 0.282966 -0.105461
C26   C     C_R   0.756109 0.911120 0.155326 -0.092806
C27   C     C_R   0.682119 0.804947 0.128210 0.001288
C28   C     C_R   0.627557 0.898203 0.564630 0.545362
C29   C     C_R   0.567790 0.758377 0.352360 -0.100915
C30   C     C_R   0.573858 0.743863 0.302033 0.011204
C31   C     C_R   0.663499 0.835280 0.278753 0.001376
C32   C     C_R   0.489451 0.642742 0.274229 0.399803
C33   C     C_R   0.493693 0.633166 0.223757 -0.100398
C34   C     C_R   0.672098 0.320981 0.304295 -0.016805
C35   C     C_R   0.580780 0.724984 0.200481 -0.057283
C36   C     C_R   0.664721 0.827319 0.228146 0.040751
C37   C     C_R   0.590292 0.714066 0.150332 -0.133561
C38   C     C_R   0.651767 0.861604 0.378942 -0.024433
C39   C     C_R   0.742238 0.301918 0.651047 -0.096249
C40   C     C_R   0.603442 0.227938 0.578224 0.541253
C41   C     C_R   0.756407 0.326501 0.701426 0.049775
C42   C     C_R   0.771493 0.355106 0.803245 0.021050
C43   C     C_R   0.861224 0.348159 0.777557 -0.120359
C44   C     C_R   0.852944 0.332397 0.726934 -0.093682
C45   C     C_R   0.687457 0.352377 0.205233 0.045469
C46   C     C_R   0.779588 0.372981 0.853888 -0.131520
C47   C     C_R   0.689534 0.381336 0.878782 -0.018422
C48   C     C_R   0.563181 0.317384 0.651649 -0.046211
C49   C     C_R   0.572398 0.335874 0.701843 -0.027490
C50   C     C_R   0.668185 0.338116 0.726998 -0.011063
C51   C     C_R   0.483094 0.344108 0.727330 0.419384
C52   C     C_R   0.271624 0.879371 0.563390 0.545567
C53   C     C_R   0.486505 0.350404 0.777632 0.390307
C54   C     C_R   0.581248 0.352321 0.802947 -0.061623
C55   C     C_R   0.673757 0.348593 0.777742 -0.018694
C56   C     C_1   0.695774 0.371335 0.154644 0.013880
C57   C     C_R   0.587511 0.363109 0.853170 -0.102285
C58   C     C_R   0.641779 0.290606 0.626567 -0.006611
C59   C     C_1   0.221381 0.862535 0.610013 0.024990
C60   C     C_R   0.073013 0.747331 0.717998 0.413930
C61   C     C_R   0.058269 0.737660 0.767674 -0.067811
C62   C     C_R   0.233725 0.925764 0.785706 -0.109674
C63   C     C_R   0.248518 0.935617 0.736050 -0.155082
C64   C     C_1   0.633999 0.269756 0.394937 0.011876
C65   C     C_R   0.168716 0.846260 0.702064 0.046734
C66   C     C_R   0.139177 0.826261 0.801605 -0.020817
C67   C     C_1   0.654503 0.297771 0.354298 -0.030652
C68   C     C_1   0.122827 0.814081 0.852528 -0.042212
C69   C     C_1   0.192052 0.853383 0.651352 0.027523
C70   C     C_1   0.099915 0.797075 0.894176 -0.000884
C71   C     C_1   0.647426 0.860447 0.608914 0.018049
C72   C     C_R   0.687516 0.901651 0.734904 -0.168981
C73   C     C_R   0.698192 0.885131 0.783273 -0.117834
C74   C     C_R   0.684410 0.699149 0.758104 -0.043946
C75   C     C_R   0.673479 0.715557 0.709458 0.434760
C76   C     C_R   0.699380 0.251080 0.271944 -0.060990
C77   C     C_R   0.675152 0.817250 0.697838 0.046926
C78   C     C_1   0.703966 0.396387 0.113490 0.008211
C79   C     C_R   0.696474 0.783956 0.795049 -0.016221
C80   C     C_1   0.710477 0.769903 0.845080 -0.035955
C81   C     C_1   0.661172 0.836499 0.648513 0.025383
C82   C     C_1   0.725436 0.761795 0.887166 0.004453
C83   C     C_R   0.065082 0.772919 0.079153 0.547013
C84   C     C_R   0.716971 0.441427 0.067319 0.546255
C85   C     C_R   0.720067 0.782728 0.080871 0.555947
C86   C     C_R   0.056514 0.766252 0.941218 0.539410
C87   C     C_R   0.710452 0.434656 0.928798 0.535371
C88   C     C_R   0.707347 0.266784 0.222503 0.405720
C89   C     C_R   0.194324 0.753947 0.348541 -0.094167
C90   C     C_R   0.748683 0.754422 0.936925 0.559456
Cr1   Cr    Cr6+3 0.416430 0.829200 0.492370 1.069039
Cr2   Cr    Cr6+3 0.674630 0.087020 0.504170 1.049111
Cr3   Cr    Cr6+3 0.408920 0.083740 0.503490 1.064444
Cr4   Cr    Cr6+3 0.914010 0.832750 0.013970 1.032630
Cr5   Cr    Cr6+3 0.922310 0.578600 0.003000 1.034862
Cr6   Cr    Cr6+3 0.656280 0.574630 0.003870 1.041335
F1    F     F_    0.158630 0.103345 0.313122 -0.624076
F2    F     F_    0.403910 0.552772 0.295820 -0.572714
F3    F     F_    0.733389 0.198220 0.191639 -0.637405
F4    F     F_    0.397921 0.356120 0.801570 -0.594879
F5    F     F_    0.390435 0.342163 0.703545 -0.576784
F6    F     F_    0.995564 0.659559 0.685657 -0.605107
F7    F     F_    0.661067 0.632696 0.674002 -0.594632
F8    F     F_    0.193557 0.571895 0.288940 -0.581267
H1    H     H_    0.712821 0.183400 0.284882 0.136155
H2    H     H_    0.804390 0.283400 0.631548 0.137467
H3    H     H_    0.921465 0.323971 0.707758 0.138691
H4    H     H_    0.516908 0.367787 0.872259 0.205061
H5    H     H_    0.646150 0.489575 0.224826 0.127804
H6    H     H_    0.984392 0.660584 0.779683 0.137563
H7    H     H_    0.296376 0.994999 0.811581 0.142977
H8    H     H_    0.323374 0.012047 0.724146 0.129742
H9    H     H_    0.688547 0.980327 0.726388 0.123151
H10   H     H_    0.708054 0.951429 0.811499 0.137460
H11   H     H_    0.683650 0.620808 0.766916 0.134524
H12   H     H_    0.131287 0.071209 0.219192 0.138414
H13   H     H_    0.630887 0.460706 0.311574 0.157631
H14   H     H_    0.156799 0.665113 0.126259 0.137520
H15   H     H_    0.203503 0.686569 0.364250 0.211857
H16   H     H_    0.184728 0.587574 0.196979 0.142672
H17   H     H_    0.105159 0.963607 0.139269 0.126919
H18   H     H_    0.532199 0.632305 0.129292 0.131385
H19   H     H_    0.429235 0.553844 0.202911 0.145455
H20   H     H_    0.936982 0.353560 0.796615 0.131301
H21   H     H_    0.487399 0.311885 0.632541 0.208742
H22   H     H_    0.205284 0.013305 0.380112 0.193543
H23   H     H_    0.825685 0.982459 0.138246 0.146222
H24   H     H_    0.814411 0.024663 0.376341 0.154866
H25   H     H_    0.905421 0.093040 0.215391 0.149702
H26   H     H_    0.906083 0.105246 0.303755 0.163920
H27   H     H_    0.494354 0.693165 0.370383 0.196992
H28   H     H_    0.858291 0.386527 0.873580 0.134622
O1    O     O_R   0.296680 0.802170 0.437540 -0.511185
O2    O     O_R   0.637200 0.461990 0.052510 -0.509896
O3    O     O_R   0.664790 0.681920 0.057970 -0.496538
O4    O     O_R   0.525380 0.838530 0.443500 -0.497225
O5    O     O_R   0.815840 0.852920 0.961840 -0.497732
O6    O     O_R   0.012100 0.822630 0.963670 -0.509775
O7    O     O_R   0.037010 0.668460 0.953040 -0.503404
O8    O     O_R   0.813390 0.478970 0.949660 -0.501259
O9    O     O_R   0.632250 0.456930 0.945520 -0.521757
O10   O     O_R   0.660200 0.677230 0.958780 -0.481906
O11   O     O_3   0.830870 0.661990 0.006950 -0.273808
O12   O     O_R   0.662610 0.183990 0.557860 -0.501135
O13   O     O_R   0.702130 0.995190 0.446810 -0.513194
O14   O     O_R   0.661770 0.181390 0.458760 -0.494409
O15   O     O_R   0.499820 0.198480 0.455280 -0.490512
O16   O     O_R   0.311660 0.976250 0.449080 -0.497080
O17   O     O_R   0.297580 0.804960 0.544440 -0.492649
O18   O     O_R   0.526220 0.841130 0.542590 -0.486968
O19   O     O_R   0.703030 0.997990 0.553710 -0.507483
O20   O     O_R   0.500730 0.201280 0.562180 -0.511751
O21   O     O_R   0.312500 0.978850 0.548170 -0.495075
O22   O     O_3   0.499990 0.999990 0.500010 -0.261338
O23   O     O_R   0.820790 0.857990 0.068830 -0.516298
O24   O     O_R   0.016700 0.827330 0.062850 -0.502225
O25   O     O_R   0.041970 0.673520 0.060040 -0.513853
O26   O     O_R   0.817980 0.483660 0.048840 -0.485766

loop_
_geom_bond_atom_site_label_1
_geom_bond_atom_site_label_2
_ccdc_geom_bond_type
C15   C18   A    
C66   C68   S    
C63   C65   A    
C28   O18   A    
C76   H1    S    
C39   H2    S    
Cr5   O26   S    
C1    O13   A    
C35   C36   A    
C87   O8    A    
C7    C8    A    
C39   C41   A    
C29   H27   S    
C53   C54   A    
Cr5   O11   S    
C21   C31   A    
C12   C23   A    
C84   O2    A    
Cr5   O8    S    
C29   C30   A    
Cr4   O11   S    
Cr3   O22   S    
C35   C37   A    
C20   H24   S    
C3    C7    A    
C46   H28   S    
C5    C6    A    
C14   H12   S    
C16   O1    A    
C8    C83   S    
C56   C78   T    
C40   O20   A    
Cr3   O16   S    
C42   C46   A    
C63   H8    S    
C27   C85   S    
Cr6   O9    S    
C46   C47   A    
C61   C66   A    
C9    C19   A    
C62   H7    S    
C89   H15   S    
C45   C56   S    
Cr4   O23   S    
C49   C51   A    
Cr1   O1    S    
C29   C38   A    
Cr3   O15   S    
C6    F8    S    
C1    O4    A    
C9    C10   A    
C76   C88   A    
C48   H21   S    
C13   C14   A    
Cr1   O4    S    
C75   F7    S    
C7    H14   S    
C2    C6    A    
C60   F6    S    
C61   H6    S    
C24   H25   S    
C12   H5    S    
Cr6   O3    S    
C53   F4    S    
C40   C58   S    
C74   C75   A    
C62   C66   A    
C5    H16   S    
Cr2   O14   S    
C64   C67   T    
C45   C88   A    
C24   C25   A    
Cr1   O22   S    
C80   C82   T    
Cr1   O17   S    
C84   O26   A    
C52   O17   A    
Cr6   O2    S    
C83   O24   A    
C52   O21   A    
C4    O15   A    
C72   H9    S    
C8    C18   A    
C73   H10   S    
C37   H18   S    
C60   C61   A    
C51   C53   A    
C47   C87   S    
C2    C89   A    
C43   C44   A    
C72   C77   A    
C19   C89   A    
C52   C59   S    
C42   C55   A    
C47   C57   A    
C20   C38   A    
C83   O25   A    
C77   C81   S    
C23   C34   A    
C4    O14   A    
Cr2   O19   S    
C14   C15   A    
C73   C79   A    
C85   O23   A    
C87   O9    A    
C25   H26   S    
C75   C77   A    
C90   O10   A    
C1    C38   S    
C59   C69   T    
C86   O7    A    
Cr4   O24   S    
C48   C49   A    
C85   O3    A    
C60   C65   A    
C74   C79   A    
C40   O12   A    
C26   C27   A    
Cr4   O6    S    
C41   C44   A    
C22   C24   A    
C28   C71   S    
C42   C43   A    
C70   C86   S    
C41   C50   A    
C90   O5    A    
C44   H3    S    
C15   C17   A    
C21   C25   A    
C54   C55   A    
C11   C17   A    
Cr2   O13   S    
Cr5   O25   S    
C50   C55   A    
C72   C73   A    
C3    C5    A    
C10   C13   A    
C34   C67   S    
C23   H13   S    
Cr1   O18   S    
Cr2   O22   S    
C48   C58   A    
C12   C45   A    
C51   F5    S    
C22   C36   A    
C4    C64   S    
Cr5   O7    S    
C9    H22   S    
C82   C90   S    
C16   O16   A    
C32   C33   A    
Cr3   O21   S    
Cr6   O11   S    
C30   C32   A    
C39   C58   A    
C30   C31   A    
C27   C37   A    
C16   C19   S    
C65   C69   S    
C74   H11   S    
C33   C35   A    
C32   F2    S    
C3    C17   A    
C26   H23   S    
C13   F1    S    
Cr2   O12   S    
C88   F3    S    
C10   C11   A    
C86   O6    A    
C18   H17   S    
Cr6   O10   S    
C79   C80   S    
C78   C84   S    
C57   H4    S    
C20   C21   A    
C28   O19   A    
C68   C70   T    
C49   C50   A    
C22   C26   A    
C33   H19   S    
Cr4   O5    S    
C31   C36   A    
Cr3   O20   S    
C2    C11   A    
C62   C63   A    
C43   H20   S    
C34   C76   A    
C71   C81   T    
C54   C57   A    
