data_mof_unit_25181.cif
_audit_creation_date              2012-12-10T17:35:35-0500
_audit_creation_method            fapswitch 2.2
_symmetry_space_group_name_H-M    P1
_symmetry_Int_Tables_number       1
_space_group_crystal_system       triclinic
_cell_length_a                    10.754896
_cell_length_b                    12.44139
_cell_length_c                    13.201277
_cell_angle_alpha                 117.443492
_cell_angle_beta                  76.667179
_cell_angle_gamma                 100.809295
_cell_volume                      1518.60597593

loop_
_atom_site_label
_atom_site_type_symbol
_atom_type_description
_atom_site_fract_x
_atom_site_fract_y
_atom_site_fract_z
_atom_type_partial_charge
C1    C     C_R   0.518008 0.854925 0.284853 0.884780
C2    C     C_3   0.121518 0.999574 0.501409 0.030638
C3    C     C_3   0.075685 0.127185 0.585615 -0.425953
C4    C     C_3   0.040795 0.905786 0.543437 -0.365648
C5    C     C_R   0.606830 0.288882 0.005420 -0.121086
C6    C     C_R   0.514683 0.229625 0.832887 -0.211720
C7    C     C_R   0.505071 0.815951 0.079670 -0.087322
C8    C     C_R   0.517105 0.737832 0.961162 -0.248834
C9    C     C_R   0.540603 0.616089 0.918218 0.458953
C10   C     C_R   0.550482 0.571120 0.996520 -0.011609
C11   C     C_R   0.571271 0.656804 0.109167 -0.013407
C12   C     C_R   0.738886 0.001322 0.503267 0.774950
C13   C     C_R   0.553547 0.445572 0.964709 0.097522
C14   C     C_R   0.604432 0.411946 0.034230 -0.007715
C15   C     C_R   0.659775 0.502211 0.127643 -0.282362
C16   C     C_R   0.648101 0.625473 0.162636 0.430321
C17   C     C_R   0.503705 0.353031 0.868312 -0.198155
C18   C     C_R   0.565478 0.197134 0.904472 0.434268
C19   C     C_R   0.531335 0.775442 0.157008 -0.171679
C20   C     C_R   0.732765 0.364956 0.366299 0.307380
C21   C     C_R   0.316065 0.764141 0.637161 0.080034
C22   C     C_R   0.267425 0.673166 0.670376 -0.317050
C23   C     C_R   0.492000 0.145128 0.713407 0.770944
C24   C     C_R   0.331348 0.568858 0.627347 0.040798
C25   C     C_R   0.449235 0.553620 0.543582 -0.044726
C26   C     C_R   0.493546 0.654263 0.515263 0.276227
C27   C     C_R   0.527431 0.449622 0.485342 -0.083623
C28   C     C_R   0.651271 0.460716 0.419368 -0.001252
C29   C     C_R   0.691436 0.566101 0.405118 -0.228354
C30   C     C_R   0.608923 0.653336 0.442392 -0.125107
C31   C     C_R   0.490626 0.334255 0.485677 0.531471
C32   C     C_R   0.693056 0.260551 0.381387 0.015292
C33   C     C_R   0.260300 0.000757 0.500992 0.759760
C34   C     C_3   0.952746 0.968551 0.381753 -0.352922
C35   C     C_3   0.096701 0.964477 0.377806 0.256580
C36   C     C_3   0.932305 0.128875 0.586464 -0.354067
C37   C     C_3   0.897099 0.903845 0.544205 -0.136780
C38   C     C_3   0.876397 0.000820 0.505782 -0.028013
Cu1   Cu    Cu3+1 0.529690 0.098270 0.475420 0.982804
Cu2   Cu    Cu3+1 0.470310 0.901730 0.524580 0.957166
H1    H     H_    0.942630 0.037098 0.352772 0.153857
H2    H     H_    0.060012 0.928497 0.630877 0.175823
H3    H     H_    0.878225 0.160412 0.676073 0.211305
H4    H     H_    0.091204 0.152729 0.674725 0.194825
H5    H     H_    0.714884 0.476887 0.170781 0.128929
H6    H     H_    0.646560 0.263620 0.059006 0.181598
H7    H     H_    0.455925 0.375619 0.818502 0.229549
H8    H     H_    0.506792 0.771770 0.901461 0.164273
H9    H     H_    0.912151 0.879637 0.319817 0.224985
H10   H     H_    0.756090 0.188788 0.345496 0.170360
H11   H     H_    0.785601 0.580574 0.359896 0.150107
H12   H     H_    0.265852 0.844765 0.673544 0.151954
H13   H     H_    0.179719 0.686369 0.733398 0.172332
H14   H     H_    0.638312 0.721767 0.414044 0.231514
H15   H     H_    0.152995 0.031394 0.346597 0.154348
H16   H     H_    0.922804 0.196586 0.556273 0.205511
H17   H     H_    0.132469 0.196540 0.558443 0.243381
H18   H     H_    0.866055 0.812507 0.478233 0.143325
H19   H     H_    0.071180 0.812779 0.485713 0.207438
N1    N     N_R   0.574690 0.246280 0.438200 -0.252210
N2    N     N_R   0.426100 0.754320 0.561190 -0.212612
O1    O     O_R   0.537340 0.972510 0.318130 -0.556136
O2    O     O_R   0.487200 0.806530 0.359650 -0.570159
O3    O     O_R   0.707380 0.082980 0.479220 -0.588242
O4    O     O_R   0.657240 0.917000 0.520740 -0.596427
O5    O     O_R   0.512800 0.193470 0.640350 -0.577674
O6    O     O_R   0.462660 0.027490 0.681870 -0.587267
O7    O     O_R   0.342760 0.083000 0.479260 -0.550822
O8    O     O_R   0.292620 0.917020 0.520780 -0.598655
O9    O     O_3   0.580225 0.079437 0.879642 -0.665560
H20   H     H_    0.593141 0.030038 0.795311 0.350733
C39   C     C_2   0.473291 0.940882 0.115897 0.902139
O10   O     O_2   0.533403 0.999359 0.064010 -0.546832
O11   O     O_R   0.372921 0.990669 0.206240 -0.778110
H21   H     H_    0.361628 0.076539 0.222414 0.338800
O12   O     O_3   0.571315 0.545758 0.800368 -0.709562
H22   H     H_    0.568461 0.593839 0.758479 0.340874
O13   O     O_3   0.726797 0.716176 0.233539 -0.779481
H23   H     H_    0.794064 0.678552 0.243133 0.310110
O14   O     O_3   0.852065 0.370529 0.301306 -0.712098
H24   H     H_    0.844266 0.403070 0.247606 0.317846
O15   O     O_3   0.367197 0.304466 0.523581 -0.727386
H25   H     H_    0.371312 0.287833 0.589095 0.351672
C40   C     C_2   0.268464 0.491665 0.685395 0.898635
O16   O     O_2   0.162100 0.439104 0.666740 -0.583980
O17   O     O_R   0.323097 0.488165 0.769542 -0.783015
H26   H     H_    0.266064 0.437810 0.807793 0.317547
O18   O     O_3   0.131411 0.846706 0.299907 -0.716791
H27   H     H_    0.226405 0.851032 0.283714 0.344070
C41   C     C_2   0.820605 0.916223 0.660518 0.852847
O19   O     O_2   0.841304 0.005777 0.749718 -0.587132
O20   O     O_R   0.730075 0.821478 0.665653 -0.757351
H28   H     H_    0.687431 0.837804 0.747696 0.344314

loop_
_geom_bond_atom_site_label_1
_geom_bond_atom_site_label_2
_ccdc_geom_bond_type
C2    C35   S    
C18   O9    S    
C24   C25   A    
Cu1   O7    S    
C1    O1    A    
C7    C8    A    
Cu1   O3    S    
C30   H14   S    
C11   C19   A    
C29   C30   A    
Cu2   O2    S    
C37   C41   S    
C23   O5    A    
C28   C29   A    
C26   N2    A    
C40   O17   S    
C20   C32   A    
C12   O3    A    
C6    C23   S    
C15   C16   A    
C34   C35   S    
C35   O18   S    
C23   O6    A    
Cu1   O1    S    
C8    C9    A    
Cu2   O6    S    
O9    H20   S    
C9    O12   S    
C9    C10   A    
C21   N2    A    
C37   H18   S    
C33   O8    A    
O18   H27   S    
C21   C22   A    
C34   H1    S    
C1    O2    A    
C22   H13   S    
C6    C18   A    
C3    H4    S    
C1    C19   S    
Cu2   O8    S    
C20   O14   S    
C27   C31   A    
C40   O16   D    
C39   O11   S    
O11   H21   S    
Cu1   Cu2   S    
O17   H26   S    
O14   H24   S    
C5    C18   A    
C20   C28   A    
C25   C26   A    
C35   H15   S    
Cu2   N2    S    
C31   N1    A    
C2    C4    S    
C8    H8    S    
C37   C38   S    
C36   H16   S    
C11   C16   A    
C41   O20   S    
O12   H22   S    
C31   O15   S    
C32   H10   S    
C5    C14   A    
C5    H6    S    
C3    H17   S    
C2    C33   S    
C26   C30   A    
C7    C19   A    
Cu2   O4    S    
Cu1   O5    S    
C22   C24   A    
C15   H5    S    
C7    C39   S    
C29   H11   S    
C6    C17   A    
C34   H9    S    
C34   C38   S    
C17   H7    S    
C39   O10   D    
C10   C13   A    
C25   C27   A    
C12   O4    A    
C13   C17   A    
C36   C38   S    
C2    C3    S    
C24   C40   S    
O13   H23   S    
C41   O19   D    
C4    H2    S    
C3    C36   S    
Cu1   N1    S    
C4    H19   S    
O20   H28   S    
C16   O13   S    
C12   C38   S    
C10   C11   A    
C4    C37   S    
O15   H25   S    
C27   C28   A    
C32   N1    A    
C14   C15   A    
C36   H3    S    
C13   C14   A    
C21   H12   S    
C33   O7    A    
