data_mof_unit_45385.cif
_audit_creation_date              2012-12-11T14:48:05-0500
_audit_creation_method            fapswitch 2.2
_symmetry_space_group_name_H-M    P1
_symmetry_Int_Tables_number       1
_space_group_crystal_system       triclinic
_cell_length_a                    11.518431
_cell_length_b                    11.542093
_cell_length_c                    19.557755
_cell_angle_alpha                 90.375793
_cell_angle_beta                  89.924187
_cell_angle_gamma                 60.061829
_cell_volume                      2253.10959933

loop_
_atom_site_label
_atom_site_type_symbol
_atom_type_description
_atom_site_fract_x
_atom_site_fract_y
_atom_site_fract_z
_atom_type_partial_charge
C1    C     C_R   0.640434 0.117193 0.599299 0.544838
C2    C     C_1   0.641147 0.703841 0.667976 0.010105
C3    C     C_1   0.126679 0.199294 0.859260 0.004190
C4    C     C_1   0.171342 0.170272 0.727700 -0.029312
C5    C     C_1   0.150082 0.182605 0.798917 -0.029841
C6    C     C_1   0.195092 0.160721 0.667363 0.007615
C7    C     C_1   0.678535 0.191590 0.860736 0.004159
C8    C     C_1   0.658567 0.167158 0.729028 -0.029110
C9    C     C_1   0.665660 0.181068 0.800319 -0.029729
C10   C     C_1   0.653002 0.149490 0.668663 0.006683
C11   C     C_R   0.589927 0.624422 0.307059 -0.184696
C12   C     C_R   0.612492 0.745875 0.598624 0.551231
C13   C     C_R   0.590951 0.610629 0.237886 -0.149910
C14   C     C_R   0.669862 0.644400 0.197228 -0.010291
C15   C     C_R   0.753202 0.685658 0.226280 -0.157572
C16   C     C_R   0.751834 0.703373 0.297114 0.245681
C17   C     C_R   0.662977 0.677628 0.336531 0.056978
C18   C     C_R   0.089899 0.293299 0.313519 0.000407
C19   C     C_R   0.065552 0.316301 0.243992 -0.105477
C20   C     C_R   0.121810 0.209808 0.196931 0.054717
C21   C     C_R   0.198398 0.078542 0.219742 -0.152310
C22   C     C_R   0.227947 0.055000 0.288861 -0.169025
C23   C     C_R   0.240832 0.145245 0.598160 0.561486
C24   C     C_R   0.178105 0.162513 0.335638 0.039077
C25   C     C_R   0.780713 0.132024 0.311390 -0.164538
C26   C     C_R   0.794266 0.152743 0.243159 -0.143513
C27   C     C_R   0.684418 0.197815 0.198460 -0.005799
C28   C     C_R   0.556838 0.231236 0.223179 -0.015527
C29   C     C_R   0.544912 0.209093 0.292125 -0.096345
C30   C     C_R   0.657486 0.155257 0.335272 0.002111
C31   C     C_R   0.081715 0.231509 0.928557 0.546968
C32   C     C_R   0.683889 0.604779 0.929467 0.546222
C33   C     C_R   0.708333 0.206991 0.930078 0.544602
C34   C     C_R   0.644160 0.113262 0.402763 0.541611
C35   C     C_R   0.079950 0.238068 0.126238 0.549910
C36   C     C_R   0.683909 0.608000 0.126556 0.548845
C37   C     C_R   0.709903 0.213165 0.127743 0.518194
C38   C     C_R   0.619559 0.736825 0.403318 0.573560
C39   C     C_R   0.242521 0.140323 0.401973 0.587101
C40   C     C_1   0.670634 0.646655 0.860080 0.004497
C41   C     C_1   0.654789 0.683674 0.728394 -0.029264
C42   C     C_1   0.663650 0.666754 0.799640 -0.030373
Cr1   Cr    Cr6+3 0.404720 0.198220 0.499960 1.055811
Cr2   Cr    Cr6+3 0.698290 0.897110 0.500380 1.079038
Cr3   Cr    Cr6+3 0.396970 0.904720 0.499610 1.035143
Cr4   Cr    Cr6+3 0.926180 0.152240 0.028110 1.023630
Cr5   Cr    Cr6+3 0.921340 0.452070 0.027460 1.036129
Cr6   Cr    Cr6+3 0.626260 0.447120 0.028700 1.027121
H1    H     H_    0.524812 0.601605 0.337142 0.147331
H2    H     H_    0.891786 0.132040 0.224949 0.145400
H3    H     H_    0.449063 0.226824 0.311443 0.176373
H4    H     H_    0.531189 0.570662 0.216603 0.160319
H5    H     H_    0.819003 0.701161 0.193011 0.116535
H6    H     H_    0.998360 0.417163 0.226698 0.117416
H7    H     H_    0.237873 0.995228 0.184012 0.123196
H8    H     H_    0.295974 0.953615 0.305083 0.138807
H9    H     H_    0.866844 0.093832 0.344792 0.126897
O1    O     O_R   0.267740 0.231990 0.575440 -0.490260
O2    O     O_R   0.685970 0.784630 0.430010 -0.433512
O3    O     O_R   0.502530 0.766960 0.423990 -0.540221
O4    O     O_R   0.288330 0.026310 0.429250 -0.512871
O5    O     O_3   0.499990 0.000020 0.499980 -0.275110
O6    O     O_R   0.821500 0.119550 0.952820 -0.503306
O7    O     O_R   0.037130 0.162750 0.957360 -0.492981
O8    O     O_R   0.056440 0.344950 0.951330 -0.503236
O9    O     O_R   0.797900 0.560570 0.957460 -0.493756
O10   O     O_R   0.596140 0.579600 0.952720 -0.503467
O11   O     O_R   0.639070 0.321380 0.958660 -0.494624
O12   O     O_R   0.527280 0.186680 0.570530 -0.496262
O13   O     O_R   0.821240 0.124490 0.104360 -0.521273
O14   O     O_R   0.036900 0.167320 0.097830 -0.514522
O15   O     O_R   0.056190 0.349890 0.102870 -0.497531
O16   O     O_R   0.797670 0.565150 0.097930 -0.509932
O17   O     O_R   0.595880 0.584540 0.104260 -0.522429
O18   O     O_R   0.638830 0.325960 0.099140 -0.511946
O19   O     O_3   0.824590 0.350480 0.028090 -0.256660
O20   O     O_R   0.728090 0.003480 0.576380 -0.505026
O21   O     O_R   0.682970 0.789220 0.570490 -0.491196
O22   O     O_R   0.499290 0.771920 0.575530 -0.505633
O23   O     O_R   0.285330 0.030900 0.569730 -0.494635
O24   O     O_R   0.270980 0.227040 0.423900 -0.486368
O25   O     O_R   0.530280 0.182090 0.430050 -0.513349
O26   O     O_R   0.731330 0.998530 0.424830 -0.497802
C43   C     C_2   0.438335 0.281844 0.177788 0.213554
H10   H     H_    0.449832 0.278197 0.122674 0.125651
O27   O     O_2   0.325550 0.328869 0.201588 -0.533486
O28   O     O_3   0.837664 0.737754 0.330979 -0.556440
C44   C     C_3   0.892565 0.800255 0.290709 0.004904
H11   H     H_    0.906893 0.868128 0.325375 0.180959
H12   H     H_    0.823779 0.865150 0.250004 0.129335
C45   C     C_3   0.032383 0.698421 0.263622 -0.280807
H13   H     H_    0.100138 0.649139 0.307552 0.175164
H14   H     H_    0.029060 0.619319 0.232669 0.172428
C46   C     C_3   0.090634 0.766624 0.220039 -0.462297
H15   H     H_    0.025931 0.814619 0.174999 0.160972
H16   H     H_    0.192227 0.691193 0.201723 0.168854
H17   H     H_    0.098718 0.843811 0.250585 0.143029
C47   C     C_2   0.023226 0.407762 0.361395 0.235454
H18   H     H_    0.001725 0.505276 0.345054 0.152036
O29   O     O_2   0.990223 0.394234 0.418827 -0.488701

loop_
_geom_bond_atom_site_label_1
_geom_bond_atom_site_label_2
_ccdc_geom_bond_type
C23   O1    A    
O28   C44   S    
Cr3   O3    S    
C18   C47   S    
C28   C43   S    
C1    O20   A    
C41   C42   S    
Cr6   O19   S    
C19   C20   A    
Cr2   O26   S    
C2    C12   S    
Cr4   O19   S    
C26   C27   A    
C18   C24   A    
C15   H5    S    
C28   C29   A    
C43   O27   D    
Cr5   O19   S    
C26   H2    S    
C14   C36   S    
Cr2   O2    S    
C15   C16   A    
C12   O22   A    
Cr3   O5    S    
C24   C39   S    
C31   O8    A    
C18   C19   A    
Cr1   O1    S    
C20   C35   S    
C8    C9    S    
C12   O21   A    
C16   O28   S    
C13   C14   A    
C23   O23   A    
Cr5   O9    S    
C44   H11   S    
C40   C42   T    
C37   O18   A    
C35   O14   A    
Cr1   O12   S    
C21   C22   A    
C7    C33   S    
Cr6   O18   S    
C25   H9    S    
C39   O4    A    
C30   C34   S    
Cr6   O17   S    
C43   H10   S    
Cr5   O16   S    
C4    C6    T    
C45   H13   S    
C21   H7    S    
C16   C17   A    
C22   H8    S    
C46   H17   S    
Cr2   O5    S    
C25   C26   A    
C1    O12   A    
Cr4   O7    S    
C46   H16   S    
C29   C30   A    
C11   H1    S    
C45   H14   S    
C13   H4    S    
C44   C45   S    
C33   O6    A    
Cr3   O22   S    
Cr6   O11   S    
C3    C31   S    
C39   O24   A    
Cr4   O14   S    
C36   O17   A    
C32   O10   A    
C38   O3    A    
C19   H6    S    
C44   H12   S    
C35   O15   A    
C47   O29   D    
Cr1   O24   S    
C22   C24   A    
C34   O26   A    
C32   O9    A    
C29   H3    S    
C25   C30   A    
C7    C9    T    
C11   C17   A    
C31   O7    A    
C1    C10   S    
C4    C5    S    
C3    C5    T    
Cr2   O20   S    
Cr4   O6    S    
Cr2   O21   S    
C2    C41   T    
C45   C46   S    
C11   C13   A    
C27   C37   S    
C6    C23   S    
Cr3   O4    S    
Cr3   O23   S    
C17   C38   S    
C32   C40   S    
Cr6   O10   S    
C46   H15   S    
Cr5   O15   S    
Cr4   O13   S    
C36   O16   A    
C38   O2    A    
C20   C21   A    
Cr1   O5    S    
C8    C10   T    
C47   H18   S    
C27   C28   A    
Cr1   O25   S    
C14   C15   A    
C34   O25   A    
C37   O13   A    
Cr5   O8    S    
C33   O11   A    
