data_mof_unit_22290.cif
_audit_creation_date              2012-12-11T16:53:46-0500
_audit_creation_method            fapswitch 2.2
_symmetry_space_group_name_H-M    P1
_symmetry_Int_Tables_number       1
_space_group_crystal_system       triclinic
_cell_length_a                    14.922288
_cell_length_b                    14.817853
_cell_length_c                    17.208851
_cell_angle_alpha                 108.50091
_cell_angle_beta                  105.484179
_cell_angle_gamma                 108.773362
_cell_volume                      3114.50422245

loop_
_atom_site_label
_atom_site_type_symbol
_atom_type_description
_atom_site_fract_x
_atom_site_fract_y
_atom_site_fract_z
_atom_type_partial_charge
C1    C     C_R   0.086701 0.282851 0.070551 -0.127986
C2    C     C_R   0.060001 0.494002 0.257463 0.582517
C3    C     C_R   0.264745 0.794595 0.180573 -0.143385
C4    C     C_R   0.939752 0.520311 0.748372 -0.106533
C5    C     C_R   0.697338 0.408530 0.996766 0.611165
C6    C     C_R   0.313318 0.795462 0.260761 0.030213
C7    C     C_R   0.636834 0.431430 0.936581 -0.099000
C8    C     C_R   0.967798 0.433133 0.258669 -0.263102
C9    C     C_R   0.998104 0.818848 0.973653 0.060645
C10   C     C_R   0.405149 0.471568 0.877446 0.188473
C11   C     C_R   0.361631 0.431179 0.929487 0.056048
C12   C     C_R   0.032679 0.575097 0.745765 0.000776
C13   C     C_R   0.378804 0.347063 0.940530 -0.224918
C14   C     C_R   0.459817 0.328439 0.924423 -0.220572
C15   C     C_R   0.524802 0.396891 0.900692 0.071541
C16   C     C_R   0.765855 0.200184 0.815804 -0.179698
C17   C     C_R   0.484573 0.452557 0.861465 0.172646
C18   C     C_3   0.536223 0.558928 0.863848 -0.656478
C19   C     C_3   0.451526 0.580611 0.882765 -0.356032
C20   C     C_R   0.950428 0.430398 0.336777 -0.024738
C21   C     C_R   0.047189 0.576483 0.665963 -0.038402
C22   C     C_R   0.129058 0.524167 0.567797 -0.327474
C23   C     C_R   0.741726 0.192288 0.730442 -0.026973
C24   C     C_R   0.136541 0.572762 0.654121 0.622215
C25   C     C_R   0.960347 0.552734 0.592813 -0.310510
C26   C     C_R   0.954444 0.507827 0.506821 0.140896
C27   C     C_R   0.037238 0.487916 0.494077 -0.120553
C28   C     C_R   0.270178 0.548288 0.959704 0.638690
C29   C     C_R   0.028990 0.437514 0.407429 0.632596
C30   C     C_R   0.865732 0.445225 0.348358 -0.265763
C31   C     C_R   0.866372 0.480905 0.433233 -0.219331
C32   C     C_R   0.665385 0.098197 0.651342 -0.053762
C33   C     C_R   0.393728 0.884858 0.340417 0.098555
C34   C     C_R   0.302009 0.474144 0.972152 -0.103720
C35   C     C_R   0.436829 0.045587 0.465541 -0.176416
C36   C     C_R   0.375298 0.972017 0.377107 -0.176317
C37   C     C_R   0.475767 0.872247 0.389264 -0.241649
C38   C     C_R   0.537850 0.945296 0.477793 0.126708
C39   C     C_R   0.516606 0.031341 0.516322 0.160019
C40   C     C_R   0.774435 0.294720 0.736808 0.583451
C41   C     C_R   0.577801 0.104225 0.604257 -0.311608
C42   C     C_R   0.684861 0.010704 0.616886 0.636182
C43   C     C_R   0.620080 0.933600 0.528639 -0.414976
C44   C     C_R   0.087176 0.109130 0.128682 0.049250
C45   C     C_R   0.265806 0.696111 0.255455 -0.119272
C46   C     C_R   0.996931 0.102906 0.070116 0.086790
C47   C     C_R   0.902192 0.014790 0.043726 -0.231370
C48   C     C_R   0.897685 0.946118 0.085108 -0.163316
C49   C     C_R   0.987656 0.962315 0.151601 -0.014772
C50   C     C_R   0.082697 0.038161 0.166353 0.025657
C51   C     C_3   0.170848 0.121973 0.253281 0.560391
C52   C     C_R   0.259979 0.443977 0.029296 -0.229979
C53   C     C_3   0.175076 0.200654 0.212731 -0.689021
C54   C     C_R   0.109913 0.603563 0.825170 0.001835
C55   C     C_R   0.914972 0.198810 0.995222 -0.107408
C56   C     C_R   0.703957 0.493341 0.912786 -0.259974
C57   C     C_R   0.000160 0.187636 0.040743 0.037281
C58   C     C_3   0.802943 0.223331 0.154263 -0.204807
C59   C     C_3   0.159225 0.648968 0.384173 -0.242246
C60   C     C_3   0.656655 0.407121 0.113088 -0.205816
C61   C     C_3   0.084660 0.310349 0.391117 -0.315840
C62   C     C_3   0.298435 0.704963 0.744149 -0.314655
C63   C     C_3   0.746343 0.928289 0.693214 -0.259328
C64   C     C_3   0.306497 0.093141 0.216120 -0.223464
C65   C     C_3   0.352257 0.723119 0.994640 -0.398035
C66   C     C_3   0.787008 0.280075 0.604108 -0.263891
C67   C     C_R   0.890613 0.395561 0.175053 0.517334
C68   C     C_R   0.083658 0.804670 0.013389 -0.129319
C69   C     C_R   0.912420 0.720925 0.937908 -0.116117
H1    H     H_    0.164049 0.308522 0.118000 0.114356
H2    H     H_    0.823533 0.883672 0.068867 0.124755
H3    H     H_    0.245930 0.234627 0.201980 0.201867
H4    H     H_    0.186848 0.666054 0.852199 0.181973
H5    H     H_    0.834429 0.147624 0.975384 0.097341
H6    H     H_    0.293633 0.667132 0.302345 0.162170
H7    H     H_    0.796368 0.232669 0.218772 0.142902
H8    H     H_    0.875469 0.216454 0.155619 0.122963
H9    H     H_    0.736881 0.147292 0.100855 0.154239
H10   H     H_    0.163936 0.861509 0.040323 0.082299
H11   H     H_    0.833791 0.700303 0.895862 0.095651
H12   H     H_    0.683648 0.510409 0.855793 0.158738
H13   H     H_    0.107665 0.634815 0.419405 0.139614
H14   H     H_    0.138198 0.692583 0.345884 0.123750
H15   H     H_    0.239538 0.701415 0.436454 0.167968
H16   H     H_    0.288652 0.856465 0.159605 0.090344
H17   H     H_    0.601508 0.441117 0.097597 0.116548
H18   H     H_    0.734567 0.472616 0.162621 0.115100
H19   H     H_    0.628447 0.356447 0.145203 0.177240
H20   H     H_    0.479198 0.271786 0.942889 0.188976
H21   H     H_    0.612517 0.614383 0.921675 0.216128
H22   H     H_    0.483329 0.645373 0.951621 0.205306
H23   H     H_    0.338219 0.303424 0.970234 0.139619
H24   H     H_    0.402025 0.589187 0.827299 0.251022
H25   H     H_    0.066287 0.303192 0.448240 0.139009
H26   H     H_    0.155338 0.298451 0.397537 0.184545
H27   H     H_    0.020172 0.246970 0.325977 0.137540
H28   H     H_    0.802955 0.437061 0.293317 0.166187
H29   H     H_    0.195318 0.514629 0.559172 0.200713
H30   H     H_    0.801853 0.494627 0.441986 0.139334
H31   H     H_    0.266768 0.763834 0.759930 0.131815
H32   H     H_    0.321633 0.702909 0.687509 0.148681
H33   H     H_    0.369518 0.732555 0.804264 0.181142
H34   H     H_    0.863377 0.501232 0.703302 0.160620
H35   H     H_    0.563012 0.171469 0.633821 0.173778
H36   H     H_    0.704596 0.848021 0.635215 0.138688
H37   H     H_    0.698784 0.939075 0.732300 0.118457
H38   H     H_    0.818318 0.933084 0.738249 0.177159
H39   H     H_    0.420772 0.111829 0.494660 0.142789
H40   H     H_    0.308694 0.978368 0.339551 0.183115
H41   H     H_    0.830383 0.002232 0.995624 0.118827
H42   H     H_    0.144663 0.137765 0.308659 0.015550
H43   H     H_    0.363154 0.172984 0.230763 0.147586
H44   H     H_    0.250156 0.050053 0.144645 0.125763
H45   H     H_    0.533890 0.552659 0.797142 0.213405
H46   H     H_    0.351519 0.048091 0.226324 0.148909
H47   H     H_    0.151010 0.260961 0.245010 0.209329
H48   H     H_    0.411573 0.735434 0.057329 0.150963
H49   H     H_    0.291759 0.744463 0.009392 0.154005
H50   H     H_    0.391991 0.778495 0.970577 0.177718
H51   H     H_    0.733211 0.195502 0.557721 0.164285
H52   H     H_    0.866983 0.289462 0.636539 0.141955
H53   H     H_    0.790401 0.323725 0.562338 0.172073
H54   H     H_    0.270378 0.389134 0.055504 0.131981
H55   H     H_    0.894286 0.562040 0.602198 0.141215
H56   H     H_    0.745170 0.136130 0.834848 0.134376
H57   H     H_    0.636642 0.867985 0.498900 0.158140
H58   H     H_    0.487626 0.803008 0.359472 0.123800
N1    N     N_R   0.055640 0.348550 0.045600 -0.044108
N2    N     N_R   0.811290 0.303400 0.871650 -0.078743
N3    N     N_R   0.205180 0.552990 0.997660 -0.105233
N4    N     N_R   0.814810 0.361830 0.823710 -0.098676
N5    N     N_R   0.201660 0.494570 0.045600 -0.064895
N6    N     N_R   0.068420 0.560530 0.871650 -0.068348
N7    N     N_R   0.948050 0.295860 0.997660 -0.036588
N8    N     N_R   0.185190 0.638170 0.176290 -0.039486
N9    N     N_R   0.798340 0.505430 0.954400 -0.073476
N10   N     N_R   0.931580 0.439470 0.128350 -0.133273
N11   N     N_R   0.051950 0.704140 0.002340 -0.046994
N12   N     N_R   0.944360 0.651450 0.954400 -0.039410
N13   N     N_R   0.039170 0.492150 0.176290 -0.142999
N14   N     N_R   0.188710 0.696600 0.128350 -0.046717
N15   N     N_R   0.794820 0.447010 0.002340 -0.097022
N16   N     N_R   0.960830 0.507850 0.823710 -0.051430
Ni1   Ni    Ni4+2 0.119330 0.493420 0.109950 0.214725
Ni2   Ni    Ni4+2 0.880670 0.506580 0.890050 0.207891
Ni3   Ni    Ni4+2 0.872590 0.372590 0.000000 0.252902
Ni4   Ni    Ni4+2 0.127410 0.627410 0.000000 0.192016
O1    O     O_3   0.795306 0.306729 0.134310 -0.568347
O2    O     O_3   0.156390 0.553550 0.328421 -0.582960
O3    O     O_3   0.661861 0.343932 0.034894 -0.595782
O4    O     O_3   0.106010 0.411140 0.393257 -0.577898
O5    O     O_3   0.226984 0.603155 0.725481 -0.611986
O6    O     O_3   0.774172 0.008716 0.664911 -0.610476
O7    O     O_3   0.259115 0.101802 0.277526 -0.615104
O8    O     O_3   0.308021 0.617975 0.926505 -0.630070
O9    O     O_3   0.750339 0.323096 0.667574 -0.645181

loop_
_geom_bond_atom_site_label_1
_geom_bond_atom_site_label_2
_ccdc_geom_bond_type
N5    Ni1   S    
C51   O7    S    
C69   N12   A    
C22   H29   S    
C6    C45   A    
C62   H33   S    
C3    H16   S    
N15   Ni3   S    
C68   N11   A    
C35   C36   A    
C3    N14   A    
C59   H13   S    
C3    C6    A    
C18   H45   S    
C4    N16   A    
C60   H19   S    
C61   H27   S    
C58   H7    S    
C56   H12   S    
C39   C41   A    
C20   C30   A    
C30   H28   S    
C26   C27   A    
C8    C20   S    
C62   O5    S    
C59   H14   S    
N1    N7    A    
N8    Ni1   S    
C30   C31   A    
C52   H54   S    
C58   O1    S    
C64   H43   S    
C27   C29   A    
C10   C17   A    
C23   C40   A    
C4    H34   S    
C64   O7    S    
C33   C36   A    
C15   C17   A    
C18   C19   S    
N9    N15   A    
C35   H39   S    
C24   O5    S    
C58   H8    S    
C55   H5    S    
C44   C53   S    
C28   O8    S    
C32   C41   A    
C1    N1    A    
N6    Ni4   S    
C31   H30   S    
C4    C12   A    
C16   H56   S    
N11   Ni4   S    
N9    Ni2   S    
C19   H24   S    
C53   H47   S    
C62   H32   S    
C2    O2    S    
C7    C15   S    
C28   C34   A    
C26   C31   A    
C64   H46   S    
C66   H51   S    
C13   C14   A    
C58   H9    S    
C7    C56   A    
C43   H57   S    
C56   N9    A    
C60   H18   S    
C44   C46   A    
C50   C51   S    
C20   C29   A    
C59   O2    S    
C32   C42   A    
N7    Ni3   S    
N10   N13   A    
N6    N16   A    
C45   N8    A    
C18   H21   S    
N10   Ni3   S    
C42   O6    S    
C59   H15   S    
C63   O6    S    
N11   N12   A    
C5    C7    A    
C60   H17   S    
C61   H25   S    
C25   C26   A    
C54   N6    A    
C12   C21   S    
C33   C37   A    
C5    O3    S    
C51   C53   S    
C52   N5    A    
N3    N5    A    
C14   H20   S    
C37   C38   A    
C1    C57   A    
C29   O4    S    
C54   H4    S    
C61   O4    S    
C47   C48   A    
C10   C19   S    
C65   H49   S    
C66   H53   S    
C17   C18   S    
C65   H50   S    
C66   H52   S    
C60   O3    S    
C63   H37   S    
C16   N2    A    
N1    Ni1   S    
N2    Ni3   S    
C62   H31   S    
C48   C49   A    
C40   N4    A    
C16   C23   A    
C22   C27   A    
C55   C57   A    
C46   C57   S    
C22   C24   A    
C63   H36   S    
C42   C43   A    
C48   H2    S    
C63   H38   S    
C47   H41   S    
C36   H40   S    
C44   C50   A    
N16   Ni2   S    
C21   C25   A    
C46   C47   A    
N12   Ni2   S    
C51   H42   S    
C64   H44   S    
N3    Ni4   S    
C11   C34   S    
C2    C8    A    
N13   Ni1   S    
C9    C69   A    
C61   H26   S    
C6    C33   S    
C55   N7    A    
C34   C52   A    
C1    H1    S    
C41   H35   S    
C45   H6    S    
C2    N13   A    
C23   C32   S    
C9    C68   A    
C38   C43   A    
C13   H23   S    
C66   O9    S    
C11   C13   A    
C5    N15   A    
C38   C39   A    
C68   H10   S    
C35   C39   A    
N4    Ni2   S    
C28   N3    A    
C67   N10   A    
C25   H55   S    
C19   H22   S    
C10   C11   A    
N14   Ni4   S    
N8    N14   A    
C8    C67   A    
C65   O8    S    
C49   C50   A    
C21   C24   A    
C67   O1    S    
C65   H48   S    
C14   C15   A    
C40   O9    S    
C69   H11   S    
C37   H58   S    
C53   H3    S    
C12   C54   A    
N2    N4    A    
