data_mof_unit_7903.cif
_audit_creation_date              2012-12-11T16:34:10-0500
_audit_creation_method            fapswitch 2.2
_symmetry_space_group_name_H-M    P1
_symmetry_Int_Tables_number       1
_space_group_crystal_system       triclinic
_cell_length_a                    8.630822
_cell_length_b                    17.323338
_cell_length_c                    26.937823
_cell_angle_alpha                 95.964854
_cell_angle_beta                  93.248157
_cell_angle_gamma                 83.131196
_cell_volume                      3973.04971568

loop_
_atom_site_label
_atom_site_type_symbol
_atom_type_description
_atom_site_fract_x
_atom_site_fract_y
_atom_site_fract_z
_atom_type_partial_charge
Ba1   Ba    Ba6+2 0.856110 0.463800 0.523550 1.775465
Ba2   Ba    Ba6+2 0.333710 0.536130 0.476450 1.742692
C1    C     C_3   0.715060 0.168337 0.642845 -0.199191
C2    C     C_3   0.681903 0.251542 0.627750 0.414749
C3    C     C_3   0.512319 0.708758 0.644828 0.564709
C4    C     C_3   0.514845 0.779811 0.687045 0.256458
C5    C     C_3   0.004786 0.806609 0.352971 0.708320
C6    C     C_3   0.051125 0.888340 0.350281 -0.265709
C7    C     C_3   0.553156 0.731697 0.362822 0.382439
C8    C     C_3   0.545026 0.811095 0.342923 -0.265453
C9    C     C_R   0.008268 0.439460 0.178469 0.645728
C10   C     C_R   0.908919 0.574563 0.178583 0.730007
C11   C     C_2   0.739696 0.518468 0.267303 0.418090
C12   C     C_3   0.209905 0.215505 0.648706 0.770345
C13   C     C_3   0.699188 0.515910 0.321796 -0.109642
C14   C     C_1   0.979755 0.488038 0.342941 0.032985
C15   C     C_2   0.017741 0.491718 0.296023 -0.111840
C16   C     C_2   0.893911 0.507971 0.255180 0.168965
C17   C     C_R   0.014827 0.504739 0.102120 -0.074112
C18   C     C_R   0.044549 0.436865 0.127555 -0.040716
C19   C     C_R   0.100125 0.366568 0.100555 -0.000373
C20   C     C_R   0.942955 0.573290 0.127577 -0.063072
C21   C     C_2   0.840326 0.519324 0.357558 -0.379186
C22   C     C_2   0.339334 0.465910 0.638643 -0.182419
C23   C     C_3   0.275908 0.128914 0.644568 -0.304890
C24   C     C_R   0.177085 0.431710 0.976290 -0.052887
C25   C     C_R   0.058890 0.568274 0.973676 0.043242
C26   C     C_R   0.131707 0.497649 0.949136 0.021760
C27   C     C_R   0.276915 0.368435 0.952480 0.376739
C28   C     C_R   0.288660 0.361892 0.900617 -0.060310
C29   C     C_R   0.234806 0.424262 0.872634 -0.109200
C30   C     C_R   0.166627 0.494149 0.897443 -0.078413
C31   C     C_R   0.137308 0.560832 0.870924 -0.021330
C32   C     C_R   0.173306 0.555960 0.819623 0.593181
C33   C     C_R   0.262824 0.420118 0.821214 0.648903
C34   C     C_3   0.210977 0.299229 0.415135 0.314035
C35   C     C_2   0.430274 0.451193 0.729474 0.070073
C36   C     C_3   0.455655 0.424406 0.674428 -0.034305
C37   C     C_1   0.204836 0.503608 0.654660 0.033955
C38   C     C_2   0.163508 0.503226 0.701812 -0.039200
C39   C     C_2   0.282325 0.480799 0.742914 0.258558
C40   C     C_R   0.126505 0.433143 0.026041 0.055010
C41   C     C_R   0.052842 0.503256 0.050799 0.051360
C42   C     C_R   0.010194 0.570235 0.024150 0.033467
C43   C     C_R   0.133718 0.364488 0.050450 0.010177
C44   C     C_R   0.893768 0.637308 0.100552 -0.001823
C45   C     C_3   0.260049 0.214552 0.396098 -0.280015
C46   C     C_R   0.049649 0.635864 0.947762 -0.098644
C47   C     C_R   0.082550 0.631923 0.897285 -0.053202
C48   C     C_R   0.913169 0.634111 0.048926 0.035661
C49   C     C_R   0.425008 0.274139 0.520426 -0.354061
C50   C     C_R   0.558048 0.249594 0.492312 -0.036692
C51   C     C_R   0.603734 0.167846 0.481199 0.344300
C52   C     C_R   0.511322 0.113917 0.497921 -0.069505
C53   C     C_R   0.367372 0.139881 0.520269 -0.074657
C54   C     C_R   0.326432 0.221008 0.533262 -0.027462
C55   C     C_R   0.574376 0.825588 0.496334 -0.136885
C56   C     C_3   0.023420 0.725705 0.610923 0.245164
C57   C     C_R   0.637371 0.747769 0.498985 0.061035
C58   C     C_R   0.873008 0.774919 0.460435 -0.019450
C59   C     C_R   0.811264 0.853753 0.460879 -0.117648
C60   C     C_R   0.662758 0.879152 0.479092 -0.021654
C61   C     C_1   0.606183 0.961308 0.484315 0.076301
C62   C     C_1   0.561315 0.030338 0.490123 0.134445
C63   C     C_R   0.790892 0.723037 0.483025 -0.215433
C64   C     C_3   0.071178 0.803785 0.638769 -0.290978
C65   C     C_3   0.704086 0.358519 0.373956 0.342520
C66   C     C_3   0.749465 0.322100 0.321823 0.291162
H1    H     H_    0.737341 0.253279 0.591673 0.046145
H2    H     H_    0.352947 0.211622 0.368920 0.197951
H3    H     H_    0.304886 0.180422 0.427207 0.049340
H4    H     H_    0.158970 0.187640 0.377425 0.132989
H5    H     H_    0.077240 0.714299 0.574328 0.012970
H6    H     H_    0.147955 0.793116 0.671918 0.157964
H7    H     H_    0.974078 0.846725 0.653467 0.101989
H8    H     H_    0.128377 0.835419 0.612544 0.154066
H9    H     H_    0.811515 0.375564 0.394617 -0.061925
H10   H     H_    0.617312 0.410593 0.371385 -0.001710
H11   H     H_    0.657087 0.128518 0.614594 0.057746
H12   H     H_    0.840267 0.271629 0.325352 0.024491
H13   H     H_    0.800701 0.364629 0.301642 -0.037603
H14   H     H_    0.553270 0.264999 0.622135 -0.140975
H15   H     H_    0.639211 0.784340 0.697897 0.058581
H16   H     H_    0.842396 0.149137 0.642797 0.175510
H17   H     H_    0.328709 0.110288 0.680527 0.177941
H18   H     H_    0.890114 0.811873 0.370000 -0.161390
H19   H     H_    0.155369 0.885682 0.327609 0.123719
H20   H     H_    0.953289 0.925956 0.333294 0.130895
H21   H     H_    0.078895 0.915324 0.388466 0.068692
H22   H     H_    0.674169 0.715371 0.377693 -0.072603
H23   H     H_    0.469482 0.737081 0.393259 0.049314
H24   H     H_    0.578329 0.855410 0.373128 0.054702
H25   H     H_    0.424429 0.829093 0.328666 0.134148
H26   H     H_    0.625602 0.808306 0.312011 0.200232
H27   H     H_    0.139158 0.480751 0.286373 0.165527
H28   H     H_    0.113839 0.312145 0.117700 0.150477
H29   H     H_    0.356726 0.310819 0.882904 0.172113
H30   H     H_    0.161387 0.307719 0.030737 0.148053
H31   H     H_    0.826399 0.688190 0.118815 0.148673
H32   H     H_    0.023431 0.693569 0.966360 0.091891
H33   H     H_    0.303073 0.252703 0.643673 -0.153446
H34   H     H_    0.068713 0.685577 0.879286 0.129026
H35   H     H_    0.043427 0.521448 0.711449 0.151805
H36   H     H_    0.818569 0.530023 0.396813 0.068995
H37   H     H_    0.355133 0.452037 0.598924 0.057949
H38   H     H_    0.461645 0.845884 0.511631 0.131701
H39   H     H_    0.879664 0.895471 0.447869 0.104046
H40   H     H_    0.389207 0.336026 0.528344 0.066268
H41   H     H_    0.182435 0.091193 0.632717 0.131476
H42   H     H_    0.370371 0.118322 0.617855 0.035822
H43   H     H_    0.317165 0.327218 0.427924 -0.002934
H44   H     H_    0.132590 0.301194 0.446639 0.058748
N1    N     N_R   0.940349 0.507879 0.203599 -0.426315
N2    N     N_R   0.236493 0.485843 0.795122 -0.432549
O1    O     O_2   0.910880 0.540430 0.617910 -0.345129
O2    O     O_3   0.635880 0.303899 0.397342 -0.578287
O3    O     O_3   0.080695 0.227409 0.614775 -0.606327
O4    O     O_2   0.278810 0.459550 0.382060 -0.434628
O5    O     O_3   0.046820 0.459570 0.442260 -0.515801
O6    O     O_3   0.514050 0.597710 0.411540 -0.514857
O7    O     O_3   0.130915 0.335586 0.375797 -0.611258
O8    O     O_3   0.627090 0.591350 0.524530 -0.454329
O9    O     O_3   0.103080 0.636600 0.435820 -0.477895
O10   O     O_2   0.193602 0.772952 0.472940 -0.484299
O11   O     O_3   0.125463 0.761373 0.377870 -0.603870
O12   O     O_3   0.142880 0.540370 0.557740 -0.531343
O13   O     O_3   0.562610 0.408580 0.475460 -0.503302
O14   O     O_2   0.365880 0.685750 0.523280 -0.462865
O15   O     O_3   0.566396 0.733946 0.601061 -0.651181
O16   O     O_2   0.370109 0.555121 0.326369 -0.387512
O17   O     O_3   0.512132 0.676575 0.323813 -0.511658
O18   O     O_2   0.034314 0.380305 0.200089 -0.536589
O19   O     O_2   0.315370 0.357853 0.799861 -0.524583
O20   O     O_2   0.847990 0.634853 0.200350 -0.446199
O21   O     O_2   0.150761 0.614371 0.797217 -0.581508
O22   O     O_3   0.675650 0.402220 0.588450 -0.469259
O23   O     O_2   0.783291 0.452189 0.677947 -0.378222
O24   O     O_3   0.060663 0.661696 0.639911 -0.594827
O25   O     O_3   0.743911 0.304825 0.664492 -0.549091
O26   O     O_2   0.823810 0.314230 0.476690 -0.404153
O27   O     O_3   0.086630 0.363340 0.564170 -0.477661
O28   O     O_2   0.009383 0.229295 0.521996 -0.412606
P1    P     P_3+3 0.078810 0.562990 0.610370 1.028574
P2    P     P_3+3 0.645380 0.325580 0.462150 1.075863
P3    P     P_3+3 0.133492 0.261125 0.559451 0.955861
P4    P     P_3+3 0.110900 0.436950 0.389630 1.035682
P5    P     P_3+3 0.069775 0.739304 0.435965 0.937164
P6    P     P_3+3 0.663648 0.399058 0.652533 1.108316
P7    P     P_3+3 0.543962 0.688191 0.538838 1.008364
P8    P     P_3+3 0.526439 0.584465 0.346202 1.111633
C67   C     C_3   0.854946 0.739909 0.604965 -0.232258
H45   H     H_    0.805518 0.765046 0.640726 0.143731
H46   H     H_    0.820669 0.781376 0.576625 0.035732
H47   H     H_    0.814013 0.682588 0.597522 0.163397
S1    S     S_3+6 0.585837 0.289199 0.285353 0.012947
O29   O     O_2   0.439354 0.342161 0.297765 -0.229579
O30   O     O_2   0.613733 0.289097 0.230782 -0.206078
O31   O     O_3   0.563283 0.198103 0.297616 -0.468046
H48   H     H_    0.664217 0.166764 0.289876 0.343795
C68   C     C_3   0.654149 0.161770 0.694218 -0.272475
H49   H     H_    0.723444 0.192762 0.724135 0.206773
H50   H     H_    0.531620 0.188572 0.696258 0.139983
H51   H     H_    0.660999 0.099362 0.701136 0.165744
C69   C     C_3   0.358034 0.683650 0.633233 -0.207958
H52   H     H_    0.302284 0.727579 0.610265 0.091032
H53   H     H_    0.362758 0.627383 0.609352 0.086975
H54   H     H_    0.304757 0.676941 0.668570 0.093618
S2    S     S_3+6 0.625190 0.625055 0.666505 -0.144761
O32   O     O_2   0.543360 0.595626 0.707265 -0.409162
O33   O     O_2   0.630530 0.563802 0.622996 -0.282200
O34   O     O_3   0.803731 0.643726 0.689126 -0.508591
H55   H     H_    0.791449 0.661765 0.724938 0.338234
S3    S     S_3+6 0.446402 0.874977 0.666321 -0.092748
O35   O     O_2   0.400225 0.870800 0.611567 -0.329958
O36   O     O_2   0.308793 0.912851 0.695231 -0.263312
O37   O     O_3   0.591360 0.932185 0.677225 -0.489240
H56   H     H_    0.669042 0.911692 0.652011 0.326697
C70   C     C_3   0.444153 0.770909 0.737237 -0.349100
H57   H     H_    0.458910 0.823538 0.763587 0.170584
H58   H     H_    0.318055 0.764719 0.733613 0.135483
H59   H     H_    0.506366 0.721022 0.755447 0.145426
S4    S     S_3+6 0.975528 0.758819 0.292045 -0.004660
O38   O     O_2   0.881233 0.813355 0.258950 -0.251187
O39   O     O_2   0.129772 0.730282 0.269425 -0.215860
O40   O     O_3   0.877015 0.682684 0.297846 -0.491989
H60   H     H_    0.929308 0.657901 0.326783 0.291081
S5    S     S_3+6 0.144056 0.242172 0.710410 -0.031378
O41   O     O_2   0.090781 0.328219 0.717119 -0.264632
O42   O     O_2   0.010853 0.197454 0.718699 -0.306617
O43   O     O_3   0.291017 0.219341 0.751934 -0.510286
H61   H     H_    0.239929 0.208370 0.782052 0.386619
C71   C     C_3   0.564846 0.439162 0.767537 -0.252462
H62   H     H_    0.661365 0.471585 0.758988 0.152810
H63   H     H_    0.533867 0.462151 0.806054 0.094746
H64   H     H_    0.607688 0.376034 0.766769 0.140207
S6    S     S_3+6 0.426074 0.310400 0.984863 -0.064859
O44   O     O_2   0.377548 0.230476 0.987513 -0.273291
O45   O     O_2   0.573491 0.301789 0.956599 -0.260705
O46   O     O_3   0.463726 0.352400 0.042775 -0.498384
H65   H     H_    0.541258 0.314237 0.058356 0.388904
S7    S     S_3+6 0.585431 0.518692 0.220467 0.000847
O47   O     O_2   0.522044 0.601817 0.213860 -0.220280
O48   O     O_2   0.640884 0.478784 0.171369 -0.285056
O49   O     O_3   0.441474 0.471650 0.238059 -0.456996
H66   H     H_    0.355326 0.480319 0.212633 0.359880
C72   C     C_3   0.803442 0.692333 0.021967 -0.385369
H67   H     H_    0.689417 0.703905 0.040166 0.142714
H68   H     H_    0.853074 0.748797 0.023428 0.136568
H69   H     H_    0.774458 0.669380 0.982999 0.126841
C73   C     C_3   0.255797 0.079834 0.525094 -0.325626
H70   H     H_    0.147934 0.103385 0.544091 0.161794
H71   H     H_    0.221147 0.053960 0.487229 0.152244
H72   H     H_    0.313707 0.032153 0.546523 0.121478
S8    S     S_3+6 0.765116 0.127085 0.443600 -0.071064
O50   O     O_2   0.881228 0.080579 0.475770 -0.316340
O51   O     O_2   0.703466 0.071801 0.402430 -0.324902
O52   O     O_3   0.860807 0.189699 0.417013 -0.489869
H73   H     H_    0.890666 0.162659 0.384150 0.340513
C74   C     C_3   0.879004 0.646513 0.496106 -0.228687
H74   H     H_    0.999832 0.653868 0.508072 0.115113
H75   H     H_    0.857020 0.625242 0.530626 0.082104
H76   H     H_    0.866939 0.599854 0.465656 0.116989

loop_
_geom_bond_atom_site_label_1
_geom_bond_atom_site_label_2
_ccdc_geom_bond_type
C25   C46   A    
C66   H12   S    
C53   C54   A    
C38   C39   S    
C51   S8    S    
S1    O30   D    
S7    O47   D    
O23   P6    D    
C17   C18   A    
C65   H9    S    
C39   N2    S    
C41   C42   A    
C66   S1    S    
C1    H11   S    
C9    O18   D    
C33   O19   D    
C53   C73   S    
C70   H57   S    
Ba2   O4    S    
C57   P7    S    
C55   C60   A    
Ba2   O9    S    
C56   C67   S    
O5    P4    S    
O15   P7    S    
C28   H29   S    
C35   C36   S    
C11   C16   D    
C33   N2    Am   
C3    C4    S    
C66   H13   S    
O3    P3    S    
C69   H52   S    
Ba1   Ba2   S    
O24   P1    S    
C28   C29   A    
S8    O51   D    
C3    S2    S    
C5    H18   S    
C8    H26   S    
C31   C47   A    
C64   H6    S    
C10   C20   A    
O12   P1    S    
C22   C37   D    
C34   C45   S    
C14   P4    S    
C49   C54   A    
Ba1   O5    S    
C67   H47   S    
C54   P3    S    
Ba1   O8    S    
S5    O43   S    
O2    P2    S    
C25   C42   A    
C56   C64   S    
S2    O34   S    
C29   C30   A    
C49   H40   S    
O16   P8    D    
C22   C36   S    
C67   H45   S    
C15   H27   S    
C58   P5    S    
Ba1   O22   S    
C2    O25   S    
C7    C8    S    
Ba2   P4    S    
C23   H41   S    
Ba2   O13   S    
C56   O24   S    
S2    O33   D    
C55   H38   S    
C8    H24   S    
O46   H65   S    
C10   O20   D    
C4    C70   S    
S1    O31   S    
S3    O36   D    
O49   H66   S    
S7    O48   D    
O28   P3    D    
C7    H23   S    
C65   H10   S    
S6    O46   S    
C9    N1    Am   
C16   N1    S    
C2    H1    S    
C17   C41   A    
C31   C32   A    
C19   C43   A    
Ba2   O8    S    
C46   H32   S    
O10   P5    D    
O1    P1    D    
O25   P6    S    
C65   C66   S    
C71   H64   S    
O26   P2    D    
O4    P4    D    
C17   C20   A    
Ba1   O27   S    
Ba1   O12   S    
S6    O45   D    
C68   H51   S    
O11   P5    S    
C47   H34   S    
C63   C74   S    
Ba2   O6    S    
C72   H67   S    
C14   C15   D    
C12   H33   S    
C1    H16   S    
C8    H25   S    
O52   H73   S    
S3    O35   D    
C9    C18   A    
C49   C50   A    
C58   C59   A    
C6    H20   S    
S4    O40   S    
C71   H63   S    
C65   O2    S    
O8    P7    S    
C45   H2    S    
C34   H44   S    
C60   C61   S    
Ba1   P1    S    
C74   H75   S    
C21   H36   S    
C26   C30   A    
C12   O3    S    
C64   H8    S    
C34   H43   S    
C23   H17   S    
C15   C16   S    
C50   P2    S    
C5    O11   S    
O34   H55   S    
C45   H3    S    
O22   P6    S    
Ba1   O26   S    
C23   H42   S    
Ba2   O12   S    
S2    O32   D    
C20   C44   A    
O9    P5    S    
C58   C63   A    
C14   C21   D    
C73   H71   S    
C11   C13   S    
O31   H48   S    
S7    O49   S    
C29   C33   A    
C55   C57   A    
O43   H61   S    
C40   C41   A    
C13   C21   S    
C1    C2    S    
C27   S6    S    
C48   C72   S    
S1    O29   D    
C50   C51   A    
C24   C40   A    
C10   N1    Am   
S3    O37   S    
C42   C48   A    
C74   H74   S    
C52   C53   A    
O37   H56   S    
C4    H15   S    
C5    S4    S    
S8    O50   D    
O6    P8    S    
C69   H54   S    
Ba1   O13   S    
C37   P1    S    
S6    O44   D    
S8    O52   S    
C7    H22   S    
C70   H58   S    
Ba2   O5    S    
C51   C52   A    
C6    H21   S    
C4    S3    S    
O27   P3    S    
C32   N2    Am   
C73   H72   S    
C3    C69   S    
C44   C48   A    
C24   C26   A    
C43   H30   S    
C6    H19   S    
C30   C31   A    
C44   H31   S    
C69   H53   S    
C34   O7    S    
S5    O41   D    
Ba1   P2    S    
C71   H62   S    
C38   H35   S    
C12   S5    S    
C72   H69   S    
O40   H60   S    
C1    C68   S    
C52   C62   S    
C32   O21   D    
C7    O17   S    
C46   C47   A    
C64   H7    S    
C3    O15   S    
C11   S7    S    
C72   H68   S    
O13   P2    S    
C67   H46   S    
C12   C23   S    
C35   C39   D    
C59   C60   A    
C59   H39   S    
C68   H49   S    
S4    O39   D    
C45   H4    S    
S5    O42   D    
C70   H59   S    
C5    C6    S    
C36   P6    S    
C27   C28   A    
C61   C62   T    
C37   C38   D    
O14   P7    D    
C35   C71   S    
C2    H14   S    
C18   C19   A    
C24   C27   A    
C73   H70   S    
C25   C26   A    
O7    P4    S    
O17   P8    S    
C22   H37   S    
Ba1   O1    S    
C40   C43   A    
C13   P8    S    
C57   C63   A    
C19   H28   S    
S4    O38   D    
C56   H5    S    
C68   H50   S    
C74   H76   S    
Ba2   O14   S    
