data_mof_unit_22124.cif
_audit_creation_date              2012-12-10T18:42:34-0500
_audit_creation_method            fapswitch 2.2
_symmetry_space_group_name_H-M    P1
_symmetry_Int_Tables_number       1
_space_group_crystal_system       triclinic
_cell_length_a                    8.590343
_cell_length_b                    10.640927
_cell_length_c                    9.859847
_cell_angle_alpha                 89.863133
_cell_angle_beta                  98.620189
_cell_angle_gamma                 90.127648
_cell_volume                      891.09551314

loop_
_atom_site_label
_atom_site_type_symbol
_atom_type_description
_atom_site_fract_x
_atom_site_fract_y
_atom_site_fract_z
_atom_type_partial_charge
C1    C     C_R   0.495492 0.260341 0.499521 0.844472
C2    C     C_R   0.610816 0.067994 0.589201 -0.126978
C3    C     C_R   0.507262 0.872143 0.500260 -0.143365
C4    C     C_R   0.492739 0.127857 0.499740 -0.143365
C5    C     C_R   0.598658 0.577513 0.084517 -0.050961
C6    C     C_R   0.401341 0.422487 0.915482 -0.050960
C7    C     C_R   0.598600 0.577499 0.940744 -0.050111
C8    C     C_R   0.401400 0.422501 0.059256 -0.050110
C9    C     C_2   0.247254 0.124821 0.320457 0.405624
C10   C     C_2   0.752748 0.875179 0.679542 0.405620
C11   C     C_R   0.504508 0.739659 0.500479 0.844472
C12   C     C_R   0.201145 0.499996 0.464107 0.955267
C13   C     C_R   0.798855 0.500004 0.535893 0.955267
C14   C     C_2   0.036016 0.499901 0.444808 -0.373756
C15   C     C_2   0.963983 0.500099 0.555192 -0.373755
C16   C     C_R   0.379161 0.061467 0.409961 -0.018253
C17   C     C_R   0.620839 0.938533 0.590038 -0.018253
C18   C     C_R   0.389184 0.932006 0.410799 -0.126978
H1    H     H_    0.974175 0.499669 0.340087 0.185059
H2    H     H_    0.322522 0.360472 0.103512 0.137522
H3    H     H_    0.025825 0.500331 0.659913 0.185059
H4    H     H_    0.302497 0.876792 0.344771 0.187909
H5    H     H_    0.697504 0.123208 0.655228 0.187910
H6    H     H_    0.677626 0.639524 0.148984 0.139859
H7    H     H_    0.322374 0.360476 0.851016 0.139860
H8    H     H_    0.225612 0.224393 0.330954 0.064152
H9    H     H_    0.774386 0.775606 0.669049 0.064154
H10   H     H_    0.677478 0.639528 0.896488 0.137520
N1    N     N_R   0.499960 0.499970 0.857200 -0.088855
N2    N     N_R   0.500040 0.500030 0.142800 -0.088855
O1    O     O_R   0.499990 0.316750 0.614620 -0.611433
O2    O     O_2   0.840398 0.934049 0.765846 -0.551803
O3    O     O_R   0.500010 0.683250 0.385380 -0.611433
O4    O     O_R   0.499990 0.316780 0.385290 -0.622363
O5    O     O_R   0.500010 0.683220 0.614710 -0.622364
O6    O     O_R   0.271750 0.499990 0.587840 -0.611681
O7    O     O_R   0.728250 0.500010 0.412160 -0.611681
O8    O     O_R   0.271750 0.500010 0.358510 -0.630231
O9    O     O_R   0.728250 0.499990 0.641490 -0.630231
O10   O     O_2   0.159609 0.065952 0.234147 -0.551804
Zn1   Zn    Zn3+2 0.500000 0.499980 0.653120 0.959926
Zn2   Zn    Zn3+2 0.500000 0.500020 0.346880 0.959926

loop_
_geom_bond_atom_site_label_1
_geom_bond_atom_site_label_2
_ccdc_geom_bond_type
C10   H9    S    
C4    C16   A    
C2    C4    A    
O8    Zn2   S    
C7    N1    A    
C12   O6    A    
C13   O7    A    
O4    Zn2   S    
C1    O1    A    
C1    C4    S    
C8    N2    A    
C2    H5    S    
C11   O5    A    
O9    Zn1   S    
C2    C17   A    
O6    Zn1   S    
C8    H2    S    
C5    H6    S    
O3    Zn2   S    
C9    C16   S    
C12   C14   S    
C9    H8    S    
C3    C17   A    
C13   C15   S    
C12   O8    A    
O5    Zn1   S    
C15   H3    S    
C13   O9    A    
C6    H7    S    
C3    C11   S    
C10   C17   S    
C10   O2    D    
C11   O3    A    
C6    N1    A    
C1    O4    A    
C3    C18   A    
C16   C18   A    
C5    N2    A    
O7    Zn2   S    
C5    C7    A    
C14   C15   D    
N2    Zn2   S    
C6    C8    A    
O1    Zn1   S    
N1    Zn1   S    
C18   H4    S    
C14   H1    S    
C9    O10   D    
C7    H10   S    
