data_mof_unit_59564.cif
_audit_creation_date              2012-12-10T18:40:09-0500
_audit_creation_method            fapswitch 2.2
_symmetry_space_group_name_H-M    P1
_symmetry_Int_Tables_number       1
_space_group_crystal_system       triclinic
_cell_length_a                    15.76235
_cell_length_b                    11.558106
_cell_length_c                    10.78698
_cell_angle_alpha                 89.484599
_cell_angle_beta                  90.027478
_cell_angle_gamma                 90.729473
_cell_volume                      1964.96452111

loop_
_atom_site_label
_atom_site_type_symbol
_atom_type_description
_atom_site_fract_x
_atom_site_fract_y
_atom_site_fract_z
_atom_type_partial_charge
C1    C     C_1   0.501051 0.161097 0.501195 -0.185029
C2    C     C_1   0.501405 0.940884 0.499461 0.004726
C3    C     C_3   0.965506 0.414363 0.549289 0.365087
C4    C     C_3   0.035544 0.595818 0.429977 0.273081
C5    C     C_3   0.023970 0.406074 0.435276 0.308574
C6    C     C_3   0.976843 0.603416 0.545588 0.266679
C7    C     C_1   0.248907 0.492656 0.499339 -0.180507
C8    C     C_1   0.750953 0.510372 0.498218 -0.192868
C9    C     C_3   0.025085 0.504330 0.608251 0.372698
C10   C     C_3   0.975496 0.505496 0.369667 0.248957
C11   C     C_3   0.083356 0.495547 0.494740 -0.197668
C12   C     C_1   0.500938 0.838951 0.498868 -0.184493
C13   C     C_3   0.916398 0.513061 0.485754 -0.264279
C14   C     C_1   0.173884 0.490742 0.497527 0.140296
C15   C     C_1   0.825869 0.515004 0.492957 0.081274
C16   C     C_3   0.003248 0.260281 0.290292 0.159429
C17   C     C_3   0.011930 0.128919 0.279805 -0.381317
C18   C     C_3   0.940176 0.076871 0.202178 -0.995012
C19   C     C_3   0.994012 0.797493 0.596778 0.107641
C20   C     C_3   0.969935 0.884046 0.696659 -0.371742
C21   C     C_3   0.027918 0.990746 0.693287 -0.922727
C22   C     C_3   0.883113 0.245784 0.553377 0.108694
C23   C     C_1   0.499956 0.500031 0.069781 0.027642
C24   C     C_3   0.819435 0.181867 0.636743 -0.321321
C25   C     C_3   0.767944 0.092714 0.563870 -0.977351
C26   C     C_3   0.040941 0.751895 0.289021 0.121385
C27   C     C_3   0.075717 0.729029 0.159224 -0.287424
C28   C     C_3   0.036675 0.809697 0.062864 -1.018187
C29   C     C_3   0.880699 0.549967 0.207609 0.086100
C30   C     C_3   0.816254 0.453599 0.179489 -0.360978
C31   C     C_3   0.734032 0.502627 0.127519 -0.886112
C32   C     C_3   0.103581 0.585480 0.768880 0.105661
C33   C     C_3   0.163266 0.543715 0.871193 -0.316425
C34   C     C_1   0.499980 0.500027 0.930219 0.040689
C35   C     C_3   0.230948 0.634701 0.901853 -0.960702
C36   C     C_R   0.500296 0.281204 0.500463 0.910388
C37   C     C_R   0.500252 0.718808 0.499546 0.909978
C38   C     C_R   0.337461 0.497654 0.499925 0.899512
C39   C     C_R   0.662519 0.502517 0.499856 0.896354
C40   C     C_1   0.501471 0.059183 0.500667 0.003955
H1    H     H_    0.023705 0.300887 0.201208 0.192300
H2    H     H_    0.903217 0.911175 0.682376 0.236272
H3    H     H_    0.974478 0.842166 0.789409 0.231899
H4    H     H_    0.094458 0.965942 0.713037 0.265417
H5    H     H_    0.007349 0.053028 0.764698 0.278411
H6    H     H_    0.024972 0.033671 0.600971 0.264159
H7    H     H_    0.927316 0.181798 0.514850 0.164971
H8    H     H_    0.847219 0.287489 0.476626 0.107841
H9    H     H_    0.853768 0.137271 0.713069 0.232006
H10   H     H_    0.775462 0.245265 0.678171 0.234276
H11   H     H_    0.730880 0.136068 0.489568 0.265060
H12   H     H_    0.935195 0.280222 0.305539 0.122126
H13   H     H_    0.723100 0.046668 0.627129 0.275560
H14   H     H_    0.810641 0.028292 0.521583 0.265935
H15   H     H_    0.053012 0.844500 0.310379 0.143393
H16   H     H_    0.970976 0.739005 0.292423 0.113450
H17   H     H_    0.145669 0.742552 0.159314 0.231522
H18   H     H_    0.062553 0.638050 0.132973 0.258053
H19   H     H_    0.966447 0.800561 0.062833 0.264935
H20   H     H_    0.060605 0.787958 0.969624 0.263321
H21   H     H_    0.055129 0.900779 0.082069 0.281393
H22   H     H_    0.891199 0.601419 0.121377 0.173538
H23   H     H_    0.073980 0.108380 0.236905 0.228114
H24   H     H_    0.855314 0.611498 0.276547 0.128678
H25   H     H_    0.843600 0.393663 0.110531 0.235441
H26   H     H_    0.802136 0.403138 0.265201 0.206391
H27   H     H_    0.706826 0.566048 0.192650 0.273853
H28   H     H_    0.687306 0.431232 0.113610 0.263885
H29   H     H_    0.746043 0.546111 0.036851 0.259856
H30   H     H_    0.063766 0.655938 0.805218 0.158952
H31   H     H_    0.142887 0.621061 0.691485 0.120584
H32   H     H_    0.125873 0.522536 0.955902 0.229546
H33   H     H_    0.195370 0.463823 0.840448 0.241284
H34   H     H_    0.010250 0.088113 0.373312 0.219689
H35   H     H_    0.272420 0.651079 0.820133 0.275464
H36   H     H_    0.270810 0.603119 0.979700 0.273203
H37   H     H_    0.201199 0.717000 0.929500 0.264773
H38   H     H_    0.877487 0.100101 0.241186 0.265507
H39   H     H_    0.944334 0.981242 0.203565 0.266708
H40   H     H_    0.944608 0.108566 0.104850 0.279537
H41   H     H_    0.981958 0.838280 0.505120 0.143501
H42   H     H_    0.062647 0.777529 0.606302 0.143831
N1    N     N_1   0.499990 0.500000 0.180630 -0.080277
N2    N     N_1   0.500010 0.500000 0.819370 -0.078271
O1    O     O_R   0.499990 0.334450 0.602530 -0.607880
O2    O     O_3   0.942358 0.697870 0.609993 -0.614635
O3    O     O_3   0.929550 0.326001 0.624928 -0.584710
O4    O     O_3   0.085919 0.685580 0.376895 -0.645016
O5    O     O_3   0.959171 0.501182 0.240739 -0.658456
O6    O     O_3   0.050352 0.492412 0.733304 -0.584252
O7    O     O_R   0.500010 0.665550 0.397470 -0.609123
O8    O     O_R   0.500010 0.334450 0.397470 -0.607837
O9    O     O_R   0.499990 0.665550 0.602530 -0.608760
O10   O     O_R   0.376780 0.500000 0.602510 -0.615665
O11   O     O_R   0.623220 0.500000 0.397490 -0.621911
O12   O     O_R   0.376780 0.500000 0.397450 -0.599625
O13   O     O_R   0.623220 0.500000 0.602550 -0.601148
O14   O     O_3   0.055607 0.301478 0.387122 -0.624484
Zn1   Zn    Zn3+2 0.500000 0.500000 0.636920 0.985019
Zn2   Zn    Zn3+2 0.500000 0.500000 0.363080 0.977734

loop_
_geom_bond_atom_site_label_1
_geom_bond_atom_site_label_2
_ccdc_geom_bond_type
C22   H8    S    
C19   C20   S    
C19   O2    S    
C2    C12   T    
C26   H15   S    
C6    C9    S    
C29   O5    S    
C18   H40   S    
C31   H27   S    
C35   H35   S    
C26   C27   S    
C23   N1    T    
C3    C9    S    
C25   H13   S    
C5    C11   S    
C30   C31   S    
C11   C14   S    
C5    O14   S    
C39   O13   A    
C12   C37   S    
C33   H32   S    
C7    C14   T    
C32   O6    S    
C10   O5    S    
C18   H39   S    
C8    C39   S    
O7    Zn2   S    
C19   H42   S    
O9    Zn1   S    
C3    C13   S    
C28   H21   S    
C36   O8    A    
C22   H7    S    
C29   H24   S    
C34   N2    T    
O13   Zn1   S    
C32   H31   S    
C21   H5    S    
C28   H20   S    
C24   H10   S    
C31   H28   S    
C35   H36   S    
C37   O7    A    
C3    O3    S    
C24   C25   S    
C4    C6    S    
C27   H17   S    
O11   Zn2   S    
C16   C17   S    
C32   H30   S    
C35   H37   S    
C25   H11   S    
C29   C30   S    
O1    Zn1   S    
C21   H4    S    
C18   H38   S    
C23   C34   S    
C38   O10   A    
C17   C18   S    
C37   O9    A    
C22   O3    S    
C25   H14   S    
C4    C11   S    
C9    C11   S    
C39   O11   A    
C30   H26   S    
C33   H33   S    
C8    C15   T    
N1    Zn2   S    
C13   C15   S    
C17   H34   S    
C22   C24   S    
C4    C10   S    
C20   H3    S    
O8    Zn2   S    
C21   H6    S    
C28   H19   S    
C24   H9    S    
C29   H22   S    
N2    Zn1   S    
C16   H12   S    
C3    C5    S    
C10   C13   S    
C26   H16   S    
C9    O6    S    
C20   H2    S    
C4    O4    S    
C36   O1    A    
C6    O2    S    
C32   C33   S    
C1    C40   T    
C5    C10   S    
C17   H23   S    
C6    C13   S    
C16   O14   S    
O10   Zn1   S    
C27   H18   S    
O12   Zn2   S    
C33   C35   S    
C7    C38   S    
C30   H25   S    
C2    C40   S    
C31   H29   S    
C20   C21   S    
C26   O4    S    
C38   O12   A    
C27   C28   S    
C19   H41   S    
C16   H1    S    
C1    C36   S    
