data_mof_unit_42036.cif
_audit_creation_date              2012-12-10T16:48:44-0500
_audit_creation_method            fapswitch 2.2
_symmetry_space_group_name_H-M    P1
_symmetry_Int_Tables_number       1
_space_group_crystal_system       triclinic
_cell_length_a                    17.19846
_cell_length_b                    8.725231
_cell_length_c                    7.501135
_cell_angle_alpha                 102.901181
_cell_angle_beta                  91.129014
_cell_angle_gamma                 94.400562
_cell_volume                      1093.18916483

loop_
_atom_site_label
_atom_site_type_symbol
_atom_type_description
_atom_site_fract_x
_atom_site_fract_y
_atom_site_fract_z
_atom_type_partial_charge
C1    C     C_R   0.496634 0.200352 0.454807 0.796200
C2    C     C_R   0.503121 0.799648 0.545302 0.854809
C3    C     C_2   0.484878 0.033821 0.435768 0.122090
C4    C     C_2   0.514570 0.966271 0.564784 0.170423
C5    C     C_R   0.351626 0.502093 0.524367 0.699872
C6    C     C_R   0.648382 0.495906 0.475353 0.818241
C7    C     C_R   0.267166 0.500950 0.534872 -0.170800
C8    C     C_R   0.732486 0.486764 0.464281 -0.097705
C9    C     C_R   0.221616 0.360783 0.451291 -0.074421
C10   C     C_R   0.781702 0.615562 0.564843 -0.105336
C11   C     C_R   0.140605 0.365196 0.423752 0.013405
C12   C     C_R   0.859474 0.593009 0.606241 -0.037160
C13   C     C_R   0.106625 0.510061 0.480176 -0.025254
C14   C     C_R   0.889015 0.446080 0.532376 0.043236
C15   C     C_R   0.152122 0.649536 0.567651 0.007841
C16   C     C_R   0.840991 0.319660 0.423778 -0.013586
C17   C     C_R   0.233475 0.645550 0.592086 -0.053213
C18   C     C_R   0.761315 0.338631 0.393922 -0.094914
C19   C     C_2   0.021754 0.514537 0.459862 -0.256622
C20   C     C_2   0.973210 0.432041 0.547111 -0.160467
Cu1   Cu    Cu3+1 0.508700 0.517250 0.683000 1.164015
Cu2   Cu    Cu3+1 0.491300 0.482750 0.317000 1.170597
H1    H     H_    0.994850 0.352960 0.626289 0.175802
H2    H     H_    0.999175 0.594285 0.382729 0.179863
N1    N     N_2   0.478180 0.456750 0.041980 0.122721
N2    N     N_2   0.521820 0.543250 0.958020 0.119589
O1    O     O_R   0.505650 0.286040 0.618880 -0.540819
O2    O     O_R   0.494350 0.713960 0.381120 -0.528588
O3    O     O_R   0.490960 0.256910 0.309800 -0.540196
O4    O     O_R   0.509040 0.743090 0.690200 -0.534496
O5    O     O_R   0.394600 0.516230 0.672450 -0.564515
O6    O     O_R   0.605400 0.483770 0.327550 -0.569044
O7    O     O_R   0.379910 0.487100 0.363380 -0.547592
O8    O     O_R   0.620090 0.512900 0.636620 -0.553835
C21   C     C_2   0.261288 0.213436 0.384942 0.587468
H3    H     H_    0.310728 0.188862 0.463199 0.080991
O9    O     O_2   0.242117 0.123309 0.238724 -0.428702
C22   C     C_2   0.750636 0.772118 0.634667 0.435552
H4    H     H_    0.772910 0.848219 0.763063 0.106343
O10   O     O_2   0.700564 0.818793 0.547106 -0.461183
C23   C     C_2   0.706149 0.202492 0.301446 0.471647
H5    H     H_    0.658696 0.219776 0.212640 0.107374
O11   O     O_2   0.711433 0.070925 0.329040 -0.438506
C24   C     C_2   0.285250 0.792791 0.663346 0.497121
H6    H     H_    0.336908 0.790230 0.747565 0.099734
O12   O     O_2   0.272652 0.916509 0.622037 -0.490950
C25   C     C_2   0.113076 0.796422 0.640057 0.574792
H7    H     H_    0.063821 0.825648 0.565268 0.060628
O13   O     O_2   0.133578 0.882925 0.787721 -0.454916
C26   C     C_2   0.875935 0.170867 0.338014 0.449675
H8    H     H_    0.921860 0.128162 0.410451 0.058637
O14   O     O_2   0.856001 0.098167 0.183148 -0.498208
C27   C     C_2   0.910103 0.724129 0.725274 0.372530
H9    H     H_    0.905008 0.845385 0.716443 0.064997
O15   O     O_2   0.956813 0.697943 0.837323 -0.487993
C28   C     C_2   0.090381 0.220264 0.335715 0.449058
H10   H     H_    0.043747 0.226969 0.238889 0.088622
O16   O     O_2   0.098216 0.094478 0.376963 -0.510943
Cl1   Cl    Cl    0.420088 0.933661 0.251507 -0.495931
Cl2   Cl    Cl    0.578782 0.066648 0.750250 -0.487172
Cl3   Cl    Cl    0.407746 0.318838 0.921407 -0.387001
Cl4   Cl    Cl    0.592246 0.681172 0.078578 -0.353807

loop_
_geom_bond_atom_site_label_1
_geom_bond_atom_site_label_2
_ccdc_geom_bond_type
C2    C4    S    
Cu1   N2    S    
C15   C17   A    
Cu2   O3    S    
C14   C20   S    
C23   O11   D    
C23   H5    S    
C26   O14   D    
C19   C20   D    
C20   H1    S    
C15   C25   S    
C10   C22   S    
C6    O8    A    
C4    Cl2   S    
C1    O3    A    
C19   H2    S    
N2    Cl4   S    
C17   C24   S    
C25   O13   D    
Cu2   O2    S    
Cu1   Cu2   S    
C28   H10   S    
C22   O10   D    
Cu1   O5    S    
C9    C11   A    
Cu2   O6    S    
C21   H3    S    
C6    C8    S    
C10   C12   A    
C16   C18   A    
C21   O9    D    
C28   O16   D    
C26   H8    S    
C27   O15   D    
C13   C15   A    
Cu1   O1    S    
C22   H4    S    
C16   C26   S    
C14   C16   A    
C5    O5    A    
C2    O2    A    
C2    O4    A    
C13   C19   S    
C9    C21   S    
C3    C4    D    
C25   H7    S    
C7    C9    A    
C11   C13   A    
C24   H6    S    
C1    O1    A    
C6    O6    A    
Cu1   O4    S    
C18   C23   S    
C5    C7    S    
Cu2   O7    S    
C3    Cl1   S    
N1    Cl3   S    
Cu1   O8    S    
C24   O12   D    
C1    C3    S    
N1    N2    D    
C27   H9    S    
C8    C10   A    
C8    C18   A    
C11   C28   S    
C12   C27   S    
C12   C14   A    
C7    C17   A    
Cu2   N1    S    
C5    O7    A    
