data_mof_unit_34738.cif
_audit_creation_date              2012-12-10T17:42:38-0500
_audit_creation_method            fapswitch 2.2
_symmetry_space_group_name_H-M    P1
_symmetry_Int_Tables_number       1
_space_group_crystal_system       triclinic
_cell_length_a                    9.892663
_cell_length_b                    10.676344
_cell_length_c                    13.148726
_cell_angle_alpha                 91.218872
_cell_angle_beta                  70.13274
_cell_angle_gamma                 89.712535
_cell_volume                      1305.67485226

loop_
_atom_site_label
_atom_site_type_symbol
_atom_type_description
_atom_site_fract_x
_atom_site_fract_y
_atom_site_fract_z
_atom_type_partial_charge
C1    C     C_R   0.501690 0.740446 0.493502 0.861314
C2    C     C_R   0.432436 0.477539 0.983645 0.084409
C3    C     C_R   0.462309 0.442935 0.874280 0.076811
C4    C     C_R   0.542196 0.461042 0.028660 0.082221
C5    C     C_R   0.669282 0.392133 0.970908 0.178668
C6    C     C_R   0.686809 0.342422 0.868497 -0.250557
C7    C     C_R   0.584631 0.367148 0.820699 -0.195733
C8    C     C_R   0.529690 0.512956 0.129295 -0.262490
C9    C     C_R   0.753589 0.414951 0.122938 -0.203191
C10   C     C_R   0.369121 0.485835 0.821252 -0.110478
C11   C     C_R   0.258905 0.893499 0.466100 -0.166032
C12   C     C_R   0.420377 0.494104 0.703810 0.855445
C13   C     C_R   0.126752 0.955951 0.494008 -0.218970
C14   C     C_R   0.102935 0.065291 0.557190 -0.271394
C15   C     C_R   0.215573 0.118090 0.585401 0.543514
C16   C     C_R   0.356058 0.064844 0.540610 0.002025
C17   C     C_R   0.371257 0.942380 0.498654 0.025295
C18   C     C_R   0.498548 0.875147 0.492016 -0.093982
C19   C     C_R   0.616761 0.937128 0.503811 -0.217387
C20   C     C_R   0.611087 0.064215 0.520167 -0.235147
C21   C     C_R   0.483497 0.129307 0.533160 -0.112361
C22   C     C_R   0.797443 0.667218 0.640069 -0.152481
C23   C     C_R   0.493635 0.261557 0.513813 0.910338
C24   C     C_R   0.837081 0.747489 0.709546 -0.199939
C25   C     C_R   0.976227 0.744443 0.711018 -0.188762
C26   C     C_R   0.076811 0.661758 0.642385 -0.158795
C27   C     C_R   0.040984 0.580480 0.569876 0.156841
C28   C     C_R   0.896559 0.581704 0.569231 0.169463
C29   C     C_R   0.958720 0.421932 0.433906 -0.146303
C30   C     C_R   0.102021 0.422177 0.433751 -0.099968
C31   C     C_R   0.579761 0.499471 0.295997 0.871687
C32   C     C_R   0.775384 0.371663 0.017778 -0.204616
C33   C     C_R   0.627972 0.482495 0.179451 -0.058879
C34   C     C_R   0.233306 0.535600 0.881436 -0.208954
C35   C     C_R   0.194336 0.551506 0.992772 -0.157829
C36   C     C_R   0.293800 0.526309 0.043553 -0.201242
H1    H     H_    0.830425 0.390260 0.161670 0.151950
H2    H     H_    0.272610 0.809840 0.415786 0.174445
H3    H     H_    0.041279 0.917241 0.469511 0.162740
H4    H     H_    0.997721 0.109758 0.582963 0.143429
H5    H     H_    0.708085 0.111599 0.519335 0.167435
H6    H     H_    0.929468 0.358228 0.379965 0.143900
H7    H     H_    0.688417 0.675823 0.644768 0.207473
H8    H     H_    0.758951 0.812252 0.762850 0.148284
H9    H     H_    0.006699 0.806724 0.765409 0.140132
H10   H     H_    0.181421 0.664207 0.648261 0.202275
H11   H     H_    0.780409 0.285863 0.824589 0.131762
H12   H     H_    0.180686 0.358570 0.379686 0.149949
H13   H     H_    0.871656 0.317639 0.975219 0.123681
H14   H     H_    0.440428 0.573859 0.172809 0.145964
H15   H     H_    0.158938 0.565571 0.842157 0.157991
H16   H     H_    0.258009 0.542390 0.129982 0.132997
H17   H     H_    0.088798 0.588557 0.039344 0.149608
H18   H     H_    0.601395 0.324243 0.742027 0.168095
H19   H     H_    0.715266 0.888069 0.498328 0.168173
N1    N     N_R   0.856860 0.501200 0.500990 -0.117851
N2    N     N_R   0.142450 0.501280 0.501020 -0.113633
O1    O     O_R   0.385310 0.683220 0.500000 -0.649038
O2    O     O_R   0.614640 0.683250 0.500010 -0.638474
O3    O     O_R   0.328400 0.499950 0.653610 -0.607877
O4    O     O_R   0.557730 0.499970 0.653620 -0.637322
O5    O     O_R   0.385360 0.316750 0.499990 -0.570151
O6    O     O_R   0.614690 0.316780 0.500000 -0.637116
O7    O     O_R   0.442270 0.500030 0.346380 -0.620866
O8    O     O_R   0.671600 0.500050 0.346390 -0.612210
Zn1   Zn    Zn3+2 0.346880 0.499980 0.499990 0.951431
Zn2   Zn    Zn3+2 0.653120 0.500020 0.500010 0.920857
O9    O     O_3   0.190858 0.220463 0.656568 -0.611391
C37   C     C_3   0.094600 0.189958 0.760214 0.089727
H20   H     H_    0.992869 0.149663 0.756738 0.077335
H21   H     H_    0.063463 0.278632 0.808431 0.164132
C38   C     C_3   0.162451 0.100902 0.820374 -0.416269
H22   H     H_    0.079728 0.077242 0.898737 0.181752
H23   H     H_    0.197656 0.011931 0.773089 0.208625
C39   C     C_3   0.289666 0.159958 0.843024 -0.787403
H24   H     H_    0.372859 0.188188 0.766594 0.261968
H25   H     H_    0.338329 0.091235 0.883060 0.235486
H26   H     H_    0.252790 0.243146 0.897808 0.255463

loop_
_geom_bond_atom_site_label_1
_geom_bond_atom_site_label_2
_ccdc_geom_bond_type
C16   C21   A    
C8    H14   S    
C29   H6    S    
C35   H17   S    
C35   C36   A    
N2    Zn1   S    
C4    C8    A    
C20   H5    S    
C28   N1    A    
C1    C18   S    
C30   H12   S    
C18   C19   A    
C3    C7    A    
C1    O2    A    
C5    C6    A    
C19   H19   S    
C15   C16   A    
C30   N2    A    
C34   C35   A    
C37   H21   S    
C9    C32   A    
O2    Zn2   S    
O9    C37   S    
O1    Zn1   S    
C23   O5    A    
C19   C20   A    
C16   C17   A    
O8    Zn2   S    
C31   C33   S    
C36   H16   S    
C5    C32   A    
C23   O6    A    
O3    Zn1   S    
C22   C28   A    
C13   C14   A    
C9    C33   A    
C38   C39   S    
O6    Zn2   S    
C6    H11   S    
O5    Zn1   S    
C24   C25   A    
C38   H23   S    
C27   N2    A    
C38   H22   S    
C25   C26   A    
C34   H15   S    
O7    Zn1   S    
C11   H2    S    
C2    C4    A    
C39   H24   S    
C29   C30   A    
O4    Zn2   S    
C22   H7    S    
C9    H1    S    
C17   C18   A    
C26   C27   A    
C10   C34   A    
C39   H25   S    
C10   C12   S    
C21   C23   S    
C24   H8    S    
C22   C24   A    
C25   H9    S    
C37   C38   S    
C2    C36   A    
C31   O8    A    
C11   C17   A    
C31   O7    A    
C4    C5    A    
C6    C7    A    
C29   N1    A    
N1    Zn2   S    
C2    C3    A    
C3    C10   A    
C1    O1    A    
C12   O4    A    
C11   C13   A    
C15   O9    S    
C8    C33   A    
C37   H20   S    
C39   H26   S    
C32   H13   S    
C13   H3    S    
C26   H10   S    
C14   H4    S    
C12   O3    A    
C20   C21   A    
C27   C28   A    
C14   C15   A    
C7    H18   S    
