data_mof_unit_58662.cif
_audit_creation_date              2012-12-10T19:00:11-0500
_audit_creation_method            fapswitch 2.2
_symmetry_space_group_name_H-M    P1
_symmetry_Int_Tables_number       1
_space_group_crystal_system       triclinic
_cell_length_a                    9.545306
_cell_length_b                    10.833675
_cell_length_c                    13.446068
_cell_angle_alpha                 90.564032
_cell_angle_beta                  72.220241
_cell_angle_gamma                 90.465976
_cell_volume                      1323.97207266

loop_
_atom_site_label
_atom_site_type_symbol
_atom_type_description
_atom_site_fract_x
_atom_site_fract_y
_atom_site_fract_z
_atom_type_partial_charge
C1    C     C_R   0.499764 0.737561 0.502173 0.813507
C2    C     C_R   0.432120 0.478865 0.979774 0.087269
C3    C     C_R   0.469964 0.451408 0.871409 0.083801
C4    C     C_R   0.541115 0.465304 0.031259 0.078147
C5    C     C_R   0.680144 0.414193 0.976505 0.160306
C6    C     C_R   0.707500 0.372820 0.874066 -0.237534
C7    C     C_R   0.603077 0.388925 0.822899 -0.208241
C8    C     C_R   0.517058 0.502552 0.135282 -0.253521
C9    C     C_R   0.760861 0.436910 0.129957 -0.204545
C10   C     C_R   0.372567 0.486103 0.815079 -0.094888
C11   C     C_R   0.366696 0.934904 0.547868 0.050292
C12   C     C_R   0.421087 0.493022 0.700094 0.797549
C13   C     C_R   0.498738 0.870484 0.512454 -0.100779
C14   C     C_R   0.631602 0.936549 0.491644 -0.175132
C15   C     C_R   0.630573 0.065029 0.490768 -0.176376
C16   C     C_R   0.496761 0.128928 0.511742 -0.169765
C17   C     C_R   0.365120 0.062227 0.548813 0.102585
C18   C     C_3   0.226312 0.064302 0.519043 0.309804
C19   C     C_3   0.229031 0.923826 0.518018 -0.496266
C20   C     C_R   0.964150 0.470667 0.411392 0.245706
C21   C     C_R   0.890126 0.541703 0.584077 -0.066431
C22   C     C_R   0.038775 0.541498 0.584137 -0.004924
C23   C     C_R   0.498752 0.262211 0.502160 0.808170
C24   C     C_R   0.111647 0.472002 0.411078 0.244086
C25   C     C_3   0.143975 0.354575 0.350545 -0.472042
C26   C     C_3   0.984339 0.351350 0.352645 -0.483057
C27   C     C_R   0.578795 0.498597 0.299796 0.790677
C28   C     C_R   0.789539 0.402581 0.025636 -0.189664
C29   C     C_R   0.622858 0.483498 0.185989 -0.043396
C30   C     C_R   0.230054 0.525897 0.869743 -0.161897
C31   C     C_R   0.186703 0.538462 0.977586 -0.151990
C32   C     C_R   0.286637 0.517981 0.032191 -0.185179
Cu1   Cu    Cu3+1 0.359330 0.500020 0.500010 0.981253
Cu2   Cu    Cu3+1 0.640670 0.499980 0.499990 0.946354
H1    H     H_    0.844512 0.423000 0.167419 0.143153
H2    H     H_    0.734914 0.113488 0.467621 0.187485
H3    H     H_    0.241894 0.103174 0.440556 0.053081
H4    H     H_    0.138748 0.879022 0.580025 0.238406
H5    H     H_    0.248553 0.883467 0.438597 0.165986
H6    H     H_    0.806249 0.574404 0.652795 0.154098
H7    H     H_    0.064960 0.573266 0.652862 0.131004
H8    H     H_    0.222186 0.367990 0.271034 0.184833
H9    H     H_    0.172631 0.279834 0.395849 0.232978
H10   H     H_    0.971910 0.360731 0.273865 0.179374
H11   H     H_    0.810362 0.327967 0.833048 0.188969
H12   H     H_    0.920613 0.274423 0.399858 0.230377
H13   H     H_    0.896146 0.364311 0.983994 0.155846
H14   H     H_    0.415942 0.546072 0.179432 0.143958
H15   H     H_    0.152501 0.550186 0.828889 0.153213
H16   H     H_    0.245227 0.531083 0.115558 0.120769
H17   H     H_    0.076074 0.568341 0.018951 0.147965
H18   H     H_    0.627523 0.348917 0.745653 0.180258
H19   H     H_    0.736531 0.889614 0.469541 0.177000
N1    N     N_R   0.852320 0.499070 0.499340 -0.186987
N2    N     N_R   0.148230 0.499110 0.499340 -0.167204
O1    O     O_R   0.381190 0.680360 0.500000 -0.584025
O2    O     O_R   0.618780 0.680320 0.499990 -0.582389
O3    O     O_R   0.323230 0.500000 0.650990 -0.565506
O4    O     O_R   0.560820 0.499960 0.650980 -0.598002
O5    O     O_R   0.381220 0.319680 0.500010 -0.545793
O6    O     O_R   0.618810 0.319640 0.500000 -0.589124
O7    O     O_R   0.439180 0.500040 0.349020 -0.592464
O8    O     O_R   0.676770 0.500000 0.349010 -0.584469
S1    S     S_3+6 0.074269 0.126797 0.620682 -0.017910
O9    O     O_2   0.059609 0.063147 0.722257 -0.285327
O10   O     O_2   0.098076 0.262480 0.633327 -0.297863
O11   O     O_3   0.919326 0.105267 0.588015 -0.561514
H20   H     H_    0.844171 0.156150 0.638550 0.365947

loop_
_geom_bond_atom_site_label_1
_geom_bond_atom_site_label_2
_ccdc_geom_bond_type
C25   H8    S    
Cu1   N2    S    
Cu2   O2    S    
C2    C4    A    
C8    H14   S    
C28   H13   S    
Cu1   O3    S    
C19   H4    S    
C1    O2    A    
C27   C29   S    
C5    C28   A    
C10   C30   A    
C31   C32   A    
C17   C18   S    
C9    C29   A    
C30   C31   A    
C4    C8    A    
C12   O3    A    
S1    O9    D    
C25   H9    S    
Cu1   O1    S    
C2    C3    A    
C26   H10   S    
C3    C10   A    
C21   C22   A    
C24   N2    A    
C23   O5    A    
C11   C13   A    
C32   H16   S    
C22   N2    A    
C21   H6    S    
C27   O8    A    
Cu1   O5    S    
C5    C6    A    
C19   H5    S    
C2    C32   A    
Cu2   O8    S    
C27   O7    A    
C18   H3    S    
Cu1   Cu2   S    
C7    H18   S    
Cu2   N1    S    
C16   C23   S    
C3    C7    A    
C21   N1    A    
C10   C12   S    
C16   C17   A    
C1    O1    A    
Cu2   O4    S    
C22   H7    S    
C1    C13   S    
C8    C29   A    
C6    H11   S    
C15   C16   A    
C18   S1    S    
S1    O11   S    
C20   C24   A    
C15   H2    S    
C23   O6    A    
C14   H19   S    
C24   C25   S    
C20   N1    A    
C18   C19   S    
C9    H1    S    
C26   H12   S    
C14   C15   A    
C11   C19   S    
C25   C26   S    
C13   C14   A    
C12   O4    A    
Cu1   O7    S    
C30   H15   S    
Cu2   O6    S    
C11   C17   A    
C6    C7    A    
O11   H20   S    
C9    C28   A    
C31   H17   S    
C4    C5    A    
C20   C26   S    
S1    O10   D    
