data_mof_unit_15711.cif
_audit_creation_date              2012-12-10T17:33:58-0500
_audit_creation_method            fapswitch 2.2
_symmetry_space_group_name_H-M    P1
_symmetry_Int_Tables_number       1
_space_group_crystal_system       triclinic
_cell_length_a                    10.852077
_cell_length_b                    12.050203
_cell_length_c                    12.89879
_cell_angle_alpha                 93.359944
_cell_angle_beta                  90.238722
_cell_angle_gamma                 86.546059
_cell_volume                      1680.8128053

loop_
_atom_site_label
_atom_site_type_symbol
_atom_type_description
_atom_site_fract_x
_atom_site_fract_y
_atom_site_fract_z
_atom_type_partial_charge
C1    C     C_R   0.501162 0.522298 0.700707 0.878941
C2    C     C_R   0.543346 0.447805 0.974297 -0.013272
C3    C     C_R   0.534197 0.553718 0.026609 -0.068102
C4    C     C_R   0.741919 0.499713 0.498106 0.926936
C5    C     C_R   0.545296 0.563124 0.133572 0.494564
C6    C     C_R   0.548431 0.361263 0.138242 -0.394367
C7    C     C_R   0.553966 0.350853 0.030217 0.546547
C8    C     C_R   0.458778 0.945677 0.369432 -0.332421
C9    C     C_R   0.437632 0.834622 0.388572 0.274057
C10   C     C_R   0.515494 0.862707 0.560510 0.562246
C11   C     C_R   0.517972 0.979025 0.548062 -0.073673
C12   C     C_3   0.119016 0.504262 0.512490 -0.318008
C13   C     C_R   0.492544 0.020093 0.450309 -0.124991
C14   C     C_R   0.493782 0.136299 0.437364 0.657783
C15   C     C_R   0.548811 0.168339 0.614348 -0.130194
C16   C     C_R   0.514223 0.478624 0.300356 0.897040
C17   C     C_R   0.544956 0.055025 0.630782 -0.300007
C18   C     C_R   0.257448 0.501307 0.508274 0.972289
C19   C     C_3   0.924263 0.441637 0.607027 0.584552
C20   C     C_3   0.073870 0.432273 0.607307 0.230967
C21   C     C_3   0.933993 0.436857 0.395331 0.625362
C22   C     C_3   0.918255 0.624611 0.502514 -0.149727
C23   C     C_3   0.077577 0.452326 0.401302 0.246309
C24   C     C_3   0.878509 0.498207 0.499678 -0.345329
C25   C     C_3   0.872309 0.237545 0.573266 -0.099838
C26   C     C_3   0.091393 0.812697 0.455839 -0.288960
C27   C     C_3   0.914645 0.484428 0.199628 -0.763814
C28   C     C_3   0.209189 0.469778 0.258974 -0.306447
C29   C     C_3   0.669268 0.702987 0.181922 -0.348098
C30   C     C_3   0.452240 0.199367 0.974075 -0.371771
C31   C     C_3   0.395321 0.826635 0.870390 -0.318855
C32   C     C_3   0.340319 0.191702 0.327490 -0.373939
C33   C     C_3   0.869313 0.479542 0.797133 -0.723613
C34   C     C_3   0.060522 0.632060 0.523370 0.669801
C35   C     C_3   0.307001 0.817424 0.229012 -0.768384
C36   C     C_3   0.661622 0.811712 0.679231 -0.283602
C37   C     C_3   0.229947 0.437825 0.761251 -0.796016
C38   C     C_3   0.124062 0.236099 0.674714 -0.718758
C39   C     C_3   0.934841 0.257026 0.303874 -0.385025
C40   C     C_3   0.803994 0.786335 0.419753 -0.789655
C41   C     C_3   0.198426 0.716977 0.665804 -0.636683
C42   C     C_R   0.536915 0.467041 0.189500 -0.270643
C43   C     C_R   0.508760 0.536592 0.812981 -0.179326
C44   C     C_R   0.505832 0.649352 0.972897 -0.305329
C45   C     C_R   0.483623 0.641409 0.866003 0.524246
C46   C     C_R   0.537348 0.441091 0.867326 -0.309748
H1    H     H_    0.550924 0.286751 0.181303 0.246089
H2    H     H_    0.790582 0.228859 0.522658 0.214644
H3    H     H_    0.866280 0.171186 0.628769 0.115134
H4    H     H_    0.055407 0.841470 0.380831 0.173690
H5    H     H_    0.179456 0.853174 0.469617 0.157330
H6    H     H_    0.025220 0.843436 0.517480 0.147495
H7    H     H_    0.774809 0.471096 0.305004 0.212019
H8    H     H_    0.963196 0.561238 0.188866 0.266805
H9    H     H_    0.836310 0.485312 0.143785 0.205549
H10   H     H_    0.974925 0.410398 0.177233 0.239548
H11   H     H_    0.175299 0.400543 0.208512 0.128519
H12   H     H_    0.495008 0.728825 0.016005 0.187228
H13   H     H_    0.286273 0.436633 0.305871 0.174645
H14   H     H_    0.244627 0.532282 0.208697 0.193386
H15   H     H_    0.667233 0.792072 0.209228 0.195009
H16   H     H_    0.710588 0.695745 0.102762 0.149241
H17   H     H_    0.727936 0.655443 0.236132 0.207652
H18   H     H_    0.383013 0.253106 0.933113 0.159531
H19   H     H_    0.418031 0.183147 0.052645 0.173134
H20   H     H_    0.462651 0.118207 0.928756 0.188472
H21   H     H_    0.474686 0.867998 0.907145 0.160209
H22   H     H_    0.325152 0.807776 0.928450 0.140170
H23   H     H_    0.551242 0.360339 0.826406 0.219314
H24   H     H_    0.350188 0.886774 0.818166 0.197010
H25   H     H_    0.294776 0.111590 0.322715 0.140319
H26   H     H_    0.321939 0.231771 0.253330 0.174296
H27   H     H_    0.296959 0.245835 0.390625 0.186914
H28   H     H_    0.799181 0.566178 0.679675 0.190917
H29   H     H_    0.864113 0.551130 0.855525 0.209003
H30   H     H_    0.948711 0.422443 0.816598 0.255458
H31   H     H_    0.783855 0.434088 0.802823 0.268751
H32   H     H_    0.318314 0.711119 0.349613 0.309949
H33   H     H_    0.255434 0.753338 0.184693 0.238846
H34   H     H_    0.570499 0.224880 0.678835 0.184106
H35   H     H_    0.374718 0.848352 0.174987 0.247848
H36   H     H_    0.240334 0.886066 0.257169 0.203922
H37   H     H_    0.699765 0.732576 0.642871 0.184176
H38   H     H_    0.673933 0.807432 0.764334 0.186453
H39   H     H_    0.714555 0.881925 0.654675 0.108179
H40   H     H_    0.079261 0.548031 0.746689 0.271682
H41   H     H_    0.273325 0.508011 0.803166 0.221269
H42   H     H_    0.296978 0.393586 0.707242 0.291847
H43   H     H_    0.202328 0.382593 0.821783 0.232564
H44   H     H_    0.149064 0.280247 0.521665 0.203846
H45   H     H_    0.442363 0.975616 0.293135 0.207758
H46   H     H_    0.219256 0.221650 0.704609 0.227483
H47   H     H_    0.097761 0.153337 0.642801 0.189574
H48   H     H_    0.059869 0.264640 0.738729 0.266644
H49   H     H_    0.932345 0.168311 0.321858 0.175414
H50   H     H_    0.028020 0.266875 0.272222 0.147480
H51   H     H_    0.861211 0.272117 0.245483 0.217343
H52   H     H_    0.932972 0.672425 0.344371 0.303629
H53   H     H_    0.705294 0.770662 0.410109 0.278217
H54   H     H_    0.828702 0.841219 0.357785 0.204313
H55   H     H_    0.818129 0.831414 0.495731 0.212704
H56   H     H_    0.562248 0.028024 0.708352 0.194830
H57   H     H_    0.009733 0.743123 0.655080 0.179109
H58   H     H_    0.260204 0.642864 0.676597 0.271258
H59   H     H_    0.187323 0.761401 0.743337 0.210071
H60   H     H_    0.242235 0.772840 0.613996 0.257678
H61   H     H_    0.123515 0.368232 0.389855 0.060722
H62   H     H_    0.869309 0.669400 0.567964 0.126308
H63   H     H_    0.956807 0.215715 0.528827 0.180073
N1    N     N_R   0.523380 0.207800 0.519350 -0.144824
N2    N     N_R   0.476620 0.792180 0.480650 -0.199316
N3    N     N_2   0.867771 0.484081 0.305331 -0.285857
N4    N     N_2   0.880020 0.520519 0.693488 -0.350051
N5    N     N_2   0.369919 0.767761 0.315868 -0.204917
N6    N     N_2   0.122164 0.480487 0.706843 -0.298977
N7    N     N_2   0.122299 0.314927 0.593014 -0.265939
N8    N     N_2   0.877880 0.681628 0.409368 -0.241512
N9    N     N_2   0.078360 0.685822 0.628155 -0.385408
O1    O     O_R   0.506240 0.421700 0.658830 -0.659277
O2    O     O_3   0.114647 0.695260 0.445963 -0.535901
O3    O     O_3   0.114241 0.521576 0.322627 -0.565540
O4    O     O_3   0.547811 0.667980 0.183249 -0.572907
O5    O     O_3   0.568209 0.246361 0.979686 -0.605855
O6    O     O_3   0.436192 0.730093 0.809894 -0.553036
O7    O     O_3   0.469321 0.177450 0.341210 -0.607403
O8    O     O_3   0.534418 0.823058 0.657483 -0.542881
O9    O     O_3   0.909829 0.322810 0.396526 -0.661004
O10   O     O_R   0.491240 0.609310 0.646410 -0.537289
O11   O     O_R   0.692710 0.406190 0.506230 -0.568812
O12   O     O_R   0.677700 0.593810 0.493810 -0.640981
O13   O     O_R   0.508760 0.390690 0.353590 -0.583163
O14   O     O_R   0.493760 0.578300 0.341170 -0.573703
O15   O     O_R   0.322300 0.406190 0.506190 -0.663868
O16   O     O_R   0.307290 0.593810 0.493770 -0.586439
O17   O     O_3   0.866276 0.340798 0.631942 -0.580999
Zn1   Zn    Zn3+2 0.510020 0.374730 0.508290 0.958811
Zn2   Zn    Zn3+2 0.489980 0.625270 0.491710 0.981224

loop_
_geom_bond_atom_site_label_1
_geom_bond_atom_site_label_2
_ccdc_geom_bond_type
C9    N2    A    
C22   N8    S    
C5    C42   A    
C29   H17   S    
C34   N9    S    
C8    C13   A    
C30   H18   S    
C37   H42   S    
N1    Zn1   S    
C19   C20   S    
C1    O10   A    
C17   H56   S    
C40   H53   S    
C35   H35   S    
C27   H8    S    
C23   O3    S    
C28   H11   S    
C2    C46   A    
C31   H21   S    
C12   C23   S    
C14   O7    S    
C41   H59   S    
C35   N5    S    
C9    N5    S    
C26   O2    S    
C31   O6    S    
C26   H4    S    
C4    C24   S    
C27   H9    S    
C39   H51   S    
C19   N4    S    
C36   H37   S    
C19   O17   S    
C38   H46   S    
C18   O15   A    
C15   C17   A    
C1    O1    A    
C16   O13   A    
C46   H23   S    
C40   H55   S    
C1    C43   S    
C31   H24   S    
C2    C7    A    
C44   H12   S    
C8    C9    A    
O15   Zn1   S    
H44   N7    S    
C41   N9    S    
C21   O9    S    
C25   H63   S    
C40   N8    S    
C13   C14   A    
C15   N1    A    
C38   H48   S    
H32   N5    S    
O16   Zn2   S    
C25   O17   S    
C35   H36   S    
C33   H29   S    
C32   H25   S    
C28   H14   S    
C45   O6    S    
C34   O2    S    
C31   H22   S    
C22   C34   S    
C29   H15   S    
C3    C44   A    
C39   O9    S    
C6    H1    S    
C32   H26   S    
O13   Zn1   S    
C41   H60   S    
C32   H27   S    
C20   N7    S    
C28   O3    S    
C4    O12   A    
O14   Zn2   S    
H28   N4    S    
C5    O4    S    
H40   N6    S    
C32   O7    S    
O10   Zn2   S    
C26   H6    S    
O11   Zn1   S    
C38   N7    S    
C33   H30   S    
C15   H34   S    
C23   H61   S    
C29   O4    S    
C12   C20   S    
C4    O11   A    
C10   N2    A    
C8    H45   S    
C43   C45   A    
C25   H2    S    
C39   H49   S    
C30   H20   S    
H7    N3    S    
C27   N3    S    
C21   C23   S    
C22   C24   S    
H57   N9    S    
C12   C34   S    
C16   C42   S    
C21   N3    S    
C44   C45   A    
N2    Zn2   S    
H52   N8    S    
C28   H13   S    
C14   N1    A    
C29   H16   S    
C11   C17   A    
C27   H10   S    
C19   C24   S    
C37   H41   S    
C36   O8    S    
C7    O5    S    
C3    C5    A    
C40   H54   S    
C20   N6    S    
C6    C7    A    
C37   N6    S    
C36   H39   S    
C33   N4    S    
O1    Zn1   S    
C41   H58   S    
C37   H43   S    
C2    C3    A    
C26   H5    S    
C11   C13   A    
C33   H31   S    
C36   H38   S    
C22   H62   S    
C38   H47   S    
C35   H33   S    
C18   O16   A    
C16   O14   A    
C43   C46   A    
C25   H3    S    
C39   H50   S    
C30   H19   S    
C10   C11   A    
C30   O5    S    
C6    C42   A    
C21   C24   S    
C12   C18   S    
C10   O8    S    
O12   Zn2   S    
