data_mof_unit_68481.cif
_audit_creation_date              2012-10-26T21:06:53-0400
_audit_creation_method            fapswitch 2.2
_symmetry_space_group_name_H-M    P1
_symmetry_Int_Tables_number       1
_space_group_crystal_system       triclinic
_cell_length_a                    10.824436
_cell_length_b                    8.782638
_cell_length_c                    7.635496
_cell_angle_alpha                 103.031618
_cell_angle_beta                  95.486277
_cell_angle_gamma                 94.253324
_cell_volume                      700.512608122

loop_
_atom_site_label
_atom_site_type_symbol
_atom_type_description
_atom_site_fract_x
_atom_site_fract_y
_atom_site_fract_z
_atom_type_partial_charge
C1    C     C_R   0.495803 0.200532 0.451014 0.554776
C2    C     C_3   0.071124 0.389730 0.640185 -0.109383
C3    C     C_3   0.925446 0.379900 0.628273 -0.107533
C4    C     C_3   0.077173 0.647675 0.531527 0.083027
C5    C     C_3   0.056772 0.378889 0.306153 -0.105462
C6    C     C_3   0.120263 0.477877 0.496783 0.055303
C7    C     C_3   0.135981 0.434686 0.836897 -0.293312
C8    C     C_3   0.156459 0.607153 0.937206 -0.404743
C9    C     C_3   0.855151 0.447014 0.130824 -0.251827
C10   C     C_3   0.750002 0.329866 0.009843 -0.428123
C11   C     C_3   0.476909 0.932754 0.215389 -0.234212
C12   C     C_3   0.874206 0.472113 0.487591 0.014459
C13   C     C_3   0.471204 0.006714 0.052008 -0.431529
C14   C     C_3   0.859777 0.206586 0.588177 -0.300975
C15   C     C_3   0.908760 0.105374 0.711225 -0.472055
C16   C     C_3   0.096665 0.205049 0.262952 -0.290850
C17   C     C_3   0.161761 0.156195 0.094306 -0.454301
C18   C     C_3   0.936553 0.642805 0.541990 -0.208914
C19   C     C_3   0.910392 0.385923 0.295642 -0.074236
C20   C     C_2   0.493390 0.031681 0.414239 -0.019604
C21   C     C_2   0.505971 0.967219 0.560285 -0.147847
C22   C     C_R   0.260048 0.490559 0.499301 0.580975
C23   C     C_R   0.504058 0.799507 0.544640 0.567138
C24   C     C_R   0.737385 0.485343 0.495807 0.532570
Cl1   Cl    Cl    0.119631 0.758625 0.372958 -0.763252
Cu1   Cu    Cu3+1 0.514070 0.517380 0.684380 0.889360
Cu2   Cu    Cu3+1 0.485930 0.482620 0.315620 0.892909
H1    H     H_    0.892661 0.715399 0.456026 0.159523
H2    H     H_    0.866935 0.265209 0.266326 0.132977
H3    H     H_    0.228003 0.675284 0.884649 0.169013
H4    H     H_    0.067550 0.662417 0.940589 0.154426
H5    H     H_    0.197816 0.611927 0.076018 0.221344
H6    H     H_    0.081041 0.371805 0.915565 0.127191
H7    H     H_    0.225432 0.383009 0.842230 0.158640
H8    H     H_    0.772350 0.206968 0.986691 0.108293
H9    H     H_    0.662100 0.325682 0.069051 0.213702
H10   H     H_    0.729108 0.361144 0.879597 0.187445
H11   H     H_    0.821784 0.564639 0.171620 0.177019
H12   H     H_    0.518607 0.040350 0.696942 0.098111
H13   H     H_    0.927701 0.467160 0.046594 0.133815
H14   H     H_    0.396916 0.084837 0.047703 0.159643
H15   H     H_    0.563057 0.067529 0.042824 0.148320
H16   H     H_    0.445281 0.912054 0.930076 0.164975
H17   H     H_    0.559641 0.866073 0.198512 0.151792
H18   H     H_    0.389159 0.853199 0.194507 0.201732
H19   H     H_    0.994675 0.054604 0.666615 0.171310
H20   H     H_    0.928728 0.176611 0.849425 0.157836
H21   H     H_    0.837741 0.006448 0.708167 0.141799
H22   H     H_    0.758585 0.211257 0.597996 0.161030
H23   H     H_    0.413183 0.363134 0.949601 0.221454
H24   H     H_    0.867568 0.135824 0.452107 0.141312
H25   H     H_    0.097585 0.132633 0.970614 0.129945
H26   H     H_    0.238162 0.245663 0.089828 0.167725
H27   H     H_    0.200062 0.042654 0.096077 0.164656
H28   H     H_    0.168299 0.188683 0.368886 0.164674
H29   H     H_    0.017713 0.115362 0.256382 0.163030
H30   H     H_    0.597281 0.626308 0.050037 0.229270
H31   H     H_    0.093096 0.267594 0.602039 0.136503
H32   H     H_    0.901263 0.442546 0.760392 0.155215
H33   H     H_    0.124150 0.722109 0.659233 0.145968
H34   H     H_    0.919953 0.698084 0.682979 0.088410
H35   H     H_    0.092569 0.437644 0.206295 0.194037
N1    N     N_2   0.464720 0.456420 0.038520 -0.296801
N2    N     N_2   0.535280 0.543580 0.961480 -0.283323
O1    O     O_R   0.509140 0.286130 0.619770 -0.531965
O2    O     O_R   0.485380 0.256770 0.308360 -0.513456
O3    O     O_R   0.329570 0.514650 0.655700 -0.508394
O4    O     O_R   0.305810 0.485300 0.344290 -0.485856
O5    O     O_R   0.514620 0.743230 0.691640 -0.509386
O6    O     O_R   0.490860 0.713870 0.380230 -0.499078
O7    O     O_R   0.694190 0.514700 0.655710 -0.525530
O8    O     O_R   0.670430 0.485350 0.344300 -0.520703

loop_
_geom_bond_atom_site_label_1
_geom_bond_atom_site_label_2
_ccdc_geom_bond_type
C1    O1    A    
C2    H31   S    
C18   H34   S    
C10   H8    S    
Cu1   O7    S    
C15   H19   S    
Cu1   O1    S    
C11   C13   S    
C9    C10   S    
C12   C24   S    
C2    C7    S    
C21   H12   S    
C15   H20   S    
C4    C18   S    
C4    H33   S    
C13   H16   S    
C13   H14   S    
C4    Cl1   S    
C8    H5    S    
C16   H28   S    
C8    H3    S    
C11   H17   S    
Cu2   O2    S    
H23   N1    S    
C7    H6    S    
C23   O6    A    
C22   O4    A    
Cu1   Cu2   S    
C2    C6    S    
C3    C14   S    
Cu2   N1    S    
C16   H29   S    
C10   H10   S    
C5    C19   S    
Cu1   O3    S    
C15   H21   S    
C17   H25   S    
C13   H15   S    
Cu2   O6    S    
C5    H35   S    
C1    O2    A    
C2    C3    S    
C21   C23   S    
C24   O8    A    
C5    C6    S    
C22   O3    A    
C7    H7    S    
C11   C20   S    
C11   H18   S    
C14   H22   S    
N1    N2    D    
C6    C22   S    
C17   H26   S    
C7    C8    S    
C18   H1    S    
C20   C21   D    
C12   C19   S    
H30   N2    S    
C4    C6    S    
C12   C18   S    
Cu1   O5    S    
Cu1   N2    S    
C14   C15   S    
C9    H11   S    
C1    C20   S    
C10   H9    S    
C3    C12   S    
Cu2   O4    S    
C8    H4    S    
C23   O5    A    
C9    C19   S    
C9    H13   S    
C17   H27   S    
Cu2   O8    S    
C14   H24   S    
C24   O7    A    
C3    H32   S    
C16   C17   S    
C5    C16   S    
C19   H2    S    
