data_mof_unit_19979.cif
_audit_creation_date              2012-12-10T17:13:42-0500
_audit_creation_method            fapswitch 2.2
_symmetry_space_group_name_H-M    P1
_symmetry_Int_Tables_number       1
_space_group_crystal_system       triclinic
_cell_length_a                    27.719359
_cell_length_b                    10.744282
_cell_length_c                    9.991638
_cell_angle_alpha                 89.917183
_cell_angle_beta                  89.70969
_cell_angle_gamma                 89.939389
_cell_volume                      2975.71274115

loop_
_atom_site_label
_atom_site_type_symbol
_atom_type_description
_atom_site_fract_x
_atom_site_fract_y
_atom_site_fract_z
_atom_type_partial_charge
C1    C     C_R   0.500895 0.262556 0.499882 0.923280
C2    C     C_R   0.974233 0.400068 0.498753 -0.077112
C3    C     C_R   0.974675 0.629411 0.485787 0.031194
C4    C     C_R   0.406053 0.499085 0.500325 0.890532
C5    C     C_R   0.949193 0.515135 0.491807 0.021153
C6    C     C_R   0.947503 0.288156 0.480579 0.421622
C7    C     C_R   0.897556 0.289863 0.490138 -0.232893
C8    C     C_R   0.872655 0.402440 0.495755 -0.077367
C9    C     C_R   0.898120 0.515572 0.487832 -0.127524
C10   C     C_R   0.872451 0.628557 0.474900 -0.134744
C11   C     C_R   0.821742 0.625547 0.480596 0.565243
C12   C     C_R   0.276729 0.452154 0.397638 -0.209127
C13   C     C_R   0.822396 0.404213 0.501124 0.567257
C14   C     C_R   0.722361 0.480345 0.377787 0.531114
C15   C     C_R   0.671898 0.478719 0.379361 -0.347059
C16   C     C_R   0.498809 0.737395 0.499897 0.930185
C17   C     C_R   0.671850 0.533106 0.615435 -0.201729
C18   C     C_R   0.721881 0.538501 0.613212 -0.198229
C19   C     C_R   0.746941 0.512927 0.494787 0.239053
C20   C     C_R   0.024850 0.400888 0.516580 0.093069
C21   C     C_R   0.050557 0.514826 0.508835 0.017950
C22   C     C_R   0.025712 0.630004 0.500307 -0.140859
C23   C     C_R   0.252902 0.501395 0.509237 0.247311
C24   C     C_R   0.050445 0.292053 0.551171 -0.179278
C25   C     C_R   0.103309 0.738758 0.494533 0.419799
C26   C     C_R   0.948362 0.738444 0.455863 -0.299798
C27   C     C_R   0.898146 0.739342 0.450991 0.481842
C28   C     C_R   0.593965 0.500686 0.499658 0.900904
C29   C     C_R   0.053246 0.741435 0.512169 0.317640
C30   C     C_2   0.500024 0.933233 0.386846 -0.152811
C31   C     C_2   0.493924 0.868794 0.499911 -0.339505
C32   C     C_2   0.497198 0.067114 0.387342 -0.165826
C33   C     C_2   0.505057 0.130988 0.499618 -0.324830
C34   C     C_R   0.101641 0.513180 0.513878 -0.123868
C35   C     C_2   0.530566 0.564914 0.923486 0.496090
C36   C     C_2   0.533833 0.550969 0.074200 -0.286075
C37   C     C_R   0.176573 0.397905 0.530951 0.509027
C38   C     C_R   0.178887 0.617924 0.498817 0.564847
C39   C     C_R   0.278967 0.546970 0.617768 -0.096452
C40   C     C_R   0.328983 0.545111 0.614301 -0.281899
C41   C     C_R   0.327000 0.448045 0.393949 0.442644
C42   C     C_3   0.357424 0.271098 0.303197 0.128837
C43   C     C_3   0.387279 0.219226 0.187942 -0.810937
C44   C     C_3   0.129062 0.885781 0.348850 0.147264
C45   C     C_R   0.126254 0.399620 0.532770 0.031142
C46   C     C_3   0.156054 0.008202 0.334315 -0.730749
C47   C     C_3   0.873591 0.869780 0.285645 0.138137
C48   C     C_3   0.842931 0.983711 0.254895 -0.748319
C49   C     C_3   0.023640 0.848641 0.690209 0.146875
C50   C     C_3   0.008683 0.976875 0.739194 -0.792006
C51   C     C_3   0.558166 0.763236 0.894201 0.094781
C52   C     C_3   0.589815 0.844255 0.804900 -0.794037
C53   C     C_3   0.738599 0.337820 0.212257 0.103173
C54   C     C_3   0.780803 0.294704 0.126096 -0.789260
C55   C     C_3   0.976326 0.179810 0.302431 0.117371
C56   C     C_R   0.100248 0.290954 0.556999 -0.201140
C57   C     C_3   0.011124 0.076573 0.263602 -0.810282
C58   C     C_R   0.128145 0.624530 0.500294 -0.231317
C59   C     C_R   0.353386 0.497528 0.502061 -0.155840
C60   C     C_R   0.646592 0.503621 0.498408 -0.094924
H1    H     H_    0.260348 0.584613 0.704262 0.153146
H2    H     H_    0.468828 0.476189 0.102635 0.169728
H3    H     H_    0.118234 0.204584 0.582233 0.200636
H4    H     H_    0.878346 0.202321 0.484969 0.213864
H5    H     H_    0.032675 0.207105 0.579458 0.214932
H6    H     H_    0.348585 0.582644 0.698614 0.183730
H7    H     H_    0.322284 0.220944 0.306588 0.149787
H8    H     H_    0.377504 0.253096 0.397748 0.125410
H9    H     H_    0.422739 0.267105 0.183011 0.254600
H10   H     H_    0.393433 0.118054 0.203202 0.205062
H11   H     H_    0.368024 0.233360 0.091897 0.255583
H12   H     H_    0.652978 0.553450 0.708055 0.204495
H13   H     H_    0.091957 0.898490 0.308892 0.122422
H14   H     H_    0.148184 0.814504 0.287313 0.141825
H15   H     H_    0.158344 0.034626 0.226993 0.188441
H16   H     H_    0.136713 0.082703 0.389350 0.249500
H17   H     H_    0.193131 0.998826 0.374756 0.285189
H18   H     H_    0.965758 0.824605 0.430511 0.219875
H19   H     H_    0.857375 0.788533 0.233085 0.143490
H20   H     H_    0.910618 0.886393 0.245801 0.108866
H21   H     H_    0.841490 0.998807 0.145019 0.188871
H22   H     H_    0.858757 0.067403 0.302280 0.242324
H23   H     H_    0.741309 0.561807 0.703522 0.161531
H24   H     H_    0.805661 0.970133 0.293509 0.283324
H25   H     H_    0.056245 0.819646 0.747448 0.135671
H26   H     H_    0.993673 0.782748 0.712227 0.142836
H27   H     H_    0.978024 0.012527 0.679027 0.288324
H28   H     H_    0.997457 0.971568 0.845901 0.189766
H29   H     H_    0.039662 0.041748 0.730627 0.245619
H30   H     H_    0.256170 0.416869 0.313976 0.153893
H31   H     H_    0.569329 0.778189 0.999754 0.127618
H32   H     H_    0.519988 0.793788 0.881446 0.136852
H33   H     H_    0.579623 0.831939 0.698407 0.258053
H34   H     H_    0.506876 0.887726 0.291534 0.168708
H35   H     H_    0.585156 0.943662 0.832415 0.201055
H36   H     H_    0.628312 0.818065 0.817300 0.256703
H37   H     H_    0.652639 0.457920 0.288091 0.166440
H38   H     H_    0.705679 0.340358 0.149213 0.142263
H39   H     H_    0.733576 0.267947 0.293974 0.170120
H40   H     H_    0.814170 0.290650 0.187130 0.254201
H41   H     H_    0.773307 0.200514 0.085627 0.210030
H42   H     H_    0.786410 0.360201 0.041343 0.258302
H43   H     H_    0.992375 0.269369 0.267236 0.133763
H44   H     H_    0.941478 0.164489 0.250201 0.138328
H45   H     H_    0.484065 0.911248 0.594538 0.149150
H46   H     H_    0.996243 0.984840 0.293241 0.255449
H47   H     H_    0.017120 0.077316 0.153634 0.192989
H48   H     H_    0.046154 0.091289 0.314476 0.266187
H49   H     H_    0.489240 0.113188 0.293108 0.171044
H50   H     H_    0.515943 0.088017 0.592940 0.149487
H51   H     H_    0.478843 0.437308 0.899418 0.110685
H52   H     H_    0.565508 0.587825 0.123529 0.185114
N1    N     N_R   0.201549 0.505720 0.512175 -0.348127
N2    N     N_R   0.798287 0.514627 0.494491 -0.340436
N3    N     N_2   0.500520 0.501330 0.852150 -0.218893
N4    N     N_2   0.500540 0.501360 0.147810 -0.210579
O1    O     O_R   0.499990 0.319060 0.613040 -0.623571
O2    O     O_R   0.571240 0.499960 0.613080 -0.570620
O3    O     O_R   0.571250 0.500000 0.386950 -0.624084
O4    O     O_2   0.200523 0.289555 0.547931 -0.570311
O5    O     O_3   0.349975 0.399701 0.282468 -0.599139
O6    O     O_3   0.127805 0.850497 0.485156 -0.532885
O7    O     O_3   0.874618 0.850494 0.425536 -0.551186
O8    O     O_3   0.033169 0.853702 0.551117 -0.595949
O9    O     O_3   0.564222 0.637545 0.856847 -0.577098
O10   O     O_3   0.748602 0.458237 0.261745 -0.618459
O11   O     O_3   0.969005 0.177538 0.442553 -0.618464
O12   O     O_2   0.797607 0.296560 0.512638 -0.577690
O13   O     O_2   0.205657 0.721974 0.484772 -0.517410
O14   O     O_2   0.795855 0.731679 0.472496 -0.505638
O15   O     O_R   0.500010 0.319100 0.386900 -0.615679
O16   O     O_R   0.428750 0.500000 0.613050 -0.632080
O17   O     O_R   0.428760 0.500040 0.386920 -0.565567
O18   O     O_R   0.499990 0.680900 0.613100 -0.597662
O19   O     O_R   0.500010 0.680940 0.386960 -0.612670
Zn1   Zn    Zn3+2 0.499990 0.499970 0.650990 0.979085
Zn2   Zn    Zn3+2 0.500010 0.500030 0.349010 0.956288

loop_
_geom_bond_atom_site_label_1
_geom_bond_atom_site_label_2
_ccdc_geom_bond_type
C10   C27   A    
O17   Zn2   S    
C8    C13   A    
C22   C29   A    
C15   C60   A    
C54   H41   S    
C35   C36   S    
C47   H19   S    
C16   O18   A    
C46   H16   S    
C1    C33   S    
C7    C8    A    
C4    O16   A    
C53   C54   S    
C53   H39   S    
C16   C31   S    
C5    C9    A    
C12   C23   A    
C26   C27   A    
C26   H18   S    
C12   H30   S    
C6    O11   S    
C30   C31   D    
C37   N1    A    
N3    Zn1   S    
C29   O8    S    
C55   H43   S    
C48   H21   S    
C52   H35   S    
C18   C19   A    
C41   O5    S    
C35   O9    S    
C11   N2    A    
C51   H31   S    
C38   C58   A    
C13   O12   S    
C20   C24   A    
C45   C56   A    
C8    C9    A    
C36   H52   S    
C35   N3    D    
C9    C10   A    
C13   N2    A    
C50   H28   S    
C57   H46   S    
C43   H9    S    
C40   C59   A    
C40   H6    S    
C21   C22   A    
C42   H8    S    
C31   H45   S    
C54   H40   S    
C2    C6    A    
C47   H20   S    
C15   H37   S    
C49   H26   S    
C46   H15   S    
C44   C46   S    
C17   C18   A    
C28   C60   S    
C25   C29   A    
C39   H1    S    
C32   H49   S    
C2    C20   A    
C51   C52   S    
O3    Zn2   S    
C38   O13   S    
C49   H25   S    
C41   C59   A    
C53   O10   S    
C39   C40   A    
C38   N1    A    
C27   O7    S    
O18   Zn1   S    
C21   C34   A    
C19   N2    S    
C3    C5    A    
C49   O8    S    
C55   H44   S    
C48   H24   S    
C51   O9    S    
H2    N4    S    
C12   C41   A    
O15   Zn2   S    
C51   H32   S    
C23   N1    S    
C50   H29   S    
C47   O7    S    
C47   C48   S    
O16   Zn1   S    
C18   H23   S    
C56   H3    S    
C52   H33   S    
C34   C45   A    
C1    O1    A    
C44   H14   S    
C50   H27   S    
C24   H5    S    
C57   H47   S    
C55   O11   S    
C43   H10   S    
C55   C57   S    
C42   H7    S    
C2    C5    A    
C42   C43   S    
C37   C45   A    
C36   N4    D    
C11   O14   S    
O2    Zn1   S    
N4    Zn2   S    
C25   O6    S    
O19   Zn2   S    
C43   H11   S    
C14   C19   A    
C54   H42   S    
C3    C26   A    
C1    O15   A    
C28   O3    A    
C46   H17   S    
C6    C7    A    
C53   H38   S    
C24   C56   A    
C14   O10   S    
C32   C33   D    
C30   H34   S    
C28   O2    A    
C30   C32   S    
O1    Zn1   S    
C37   O4    S    
C23   C39   A    
C4    C59   S    
C44   O6    S    
C48   H22   S    
C52   H36   S    
C44   H13   S    
C7    H4    S    
C10   C11   A    
C17   C60   A    
C57   H48   S    
C20   C21   A    
C17   H12   S    
C49   C50   S    
C25   C58   A    
C34   C58   A    
C14   C15   A    
C3    C22   A    
H51   N3    S    
C33   H50   S    
C16   O19   A    
C42   O5    S    
C4    O17   A    
