data_mof_unit_8837.cif
_audit_creation_date              2012-12-10T19:40:19-0500
_audit_creation_method            fapswitch 2.2
_symmetry_space_group_name_H-M    P1
_symmetry_Int_Tables_number       1
_space_group_crystal_system       triclinic
_cell_length_a                    15.825811
_cell_length_b                    17.077141
_cell_length_c                    23.490115
_cell_angle_alpha                 94.90738
_cell_angle_beta                  91.658949
_cell_angle_gamma                 94.142764
_cell_volume                      6304.68764873

loop_
_atom_site_label
_atom_site_type_symbol
_atom_type_description
_atom_site_fract_x
_atom_site_fract_y
_atom_site_fract_z
_atom_type_partial_charge
C1    C     C_R   0.490980 0.348915 0.503921 0.874913
C2    C     C_R   0.509076 0.650868 0.495536 0.864673
C3    C     C_R   0.564091 0.544870 0.244933 -0.086935
C4    C     C_R   0.436553 0.451203 0.754702 -0.086418
C5    C     C_R   0.560253 0.543694 0.303634 -0.266801
C6    C     C_R   0.438023 0.455348 0.696046 -0.270982
C7    C     C_R   0.502155 0.491483 0.327670 -0.154472
C8    C     C_R   0.498232 0.505868 0.672244 -0.153805
C9    C     C_R   0.448677 0.435779 0.291648 0.378765
C10   C     C_R   0.556285 0.556227 0.708621 0.373242
C11   C     C_R   0.451146 0.438835 0.231034 0.003113
C12   C     C_R   0.558828 0.547449 0.768445 -0.002451
C13   C     C_R   0.509809 0.494106 0.208689 0.287016
C14   C     C_R   0.496875 0.495485 0.790908 0.291487
C15   C     C_R   0.492056 0.263854 0.513329 -0.138249
C16   C     C_R   0.508345 0.735483 0.484930 -0.151035
C17   C     C_R   0.570500 0.237122 0.530013 -0.245428
C18   C     C_R   0.429974 0.762089 0.468087 -0.233169
C19   C     C_R   0.581375 0.157287 0.532829 0.393867
C20   C     C_R   0.419419 0.841736 0.464217 0.404009
C21   C     C_R   0.513503 0.101935 0.517024 0.246890
C22   C     C_R   0.487730 0.897064 0.479060 0.242421
C23   C     C_R   0.500376 0.496984 0.390716 0.896991
C24   C     C_R   0.499611 0.502671 0.609282 0.912064
C25   C     C_R   0.432468 0.128116 0.507205 -0.206275
C26   C     C_R   0.568788 0.870727 0.488621 -0.202489
C27   C     C_R   0.420026 0.208623 0.507575 0.055724
C28   C     C_R   0.580808 0.790231 0.489208 0.029222
C29   C     C_R   0.756552 0.445778 0.486513 0.434637
C30   C     C_R   0.242310 0.553768 0.512752 0.399396
C31   C     C_R   0.843705 0.443439 0.502086 0.088869
C32   C     C_R   0.155162 0.554775 0.496659 0.198144
C33   C     C_R   0.892056 0.514181 0.518825 0.150951
C34   C     C_R   0.107986 0.483486 0.479537 0.137130
C35   C     C_R   0.846491 0.578307 0.540185 0.259371
C36   C     C_R   0.154981 0.420156 0.458596 0.255900
C37   C     C_R   0.756670 0.572401 0.536189 -0.097428
C38   C     C_R   0.244598 0.427117 0.463706 -0.093584
C39   C     C_R   0.546026 0.441479 0.876988 0.530444
C40   C     C_R   0.459401 0.545828 0.122421 0.537263
C41   C     C_R   0.439003 0.533361 0.882402 0.527160
C42   C     C_R   0.566180 0.453593 0.117112 0.536644
C43   C     C_R   0.441621 0.536073 0.942277 -0.031216
C44   C     C_R   0.562713 0.449973 0.057179 -0.028913
C45   C     C_R   0.499239 0.491101 0.969590 -0.012104
C46   C     C_R   0.505138 0.494997 0.029847 -0.016911
C47   C     C_R   0.551074 0.442363 0.936779 -0.023059
C48   C     C_R   0.453406 0.543884 0.062625 -0.023462
C49   C     C_R   0.390011 0.584268 0.975371 -0.151755
C50   C     C_R   0.613812 0.401281 0.024049 -0.146600
C51   C     C_R   0.395970 0.588260 0.034938 -0.151254
C52   C     C_R   0.607949 0.397414 0.964461 -0.149628
Cu1   Cu    Cu3+1 0.415220 0.496180 0.497250 1.067837
Cu2   Cu    Cu3+1 0.584780 0.503820 0.502750 1.061544
H1    H     H_    0.345354 0.619526 0.955387 0.197957
H2    H     H_    0.658334 0.365885 0.044029 0.197500
H3    H     H_    0.722468 0.619068 0.555830 0.230969
H4    H     H_    0.279864 0.381051 0.444565 0.247666
H5    H     H_    0.355295 0.626036 0.059174 0.196521
H6    H     H_    0.648540 0.359573 0.940207 0.197865
H7    H     H_    0.608740 0.586579 0.227296 0.161257
H8    H     H_    0.389238 0.411912 0.772228 0.163770
H9    H     H_    0.602059 0.585184 0.330652 0.161644
H10   H     H_    0.392431 0.417824 0.668915 0.167258
H11   H     H_    0.375924 0.720399 0.457499 0.235792
H12   H     H_    0.624364 0.278813 0.541232 0.235870
H13   H     H_    0.378237 0.085425 0.500923 0.209320
H14   H     H_    0.623270 0.913229 0.493943 0.205605
N1    N     N_R   0.493151 0.489025 0.851351 -0.457718
N2    N     N_R   0.513742 0.499770 0.148202 -0.463545
N3    N     N_2   0.527686 0.020691 0.513156 -0.155412
N4    N     N_2   0.473818 0.978347 0.482588 -0.167241
N5    N     N_R   0.712130 0.509560 0.506880 -0.269610
N6    N     N_R   0.287870 0.490440 0.493120 -0.274864
N7    N     N_2   0.983870 0.520368 0.518113 -0.058246
N8    N     N_2   0.016121 0.476099 0.480106 -0.086476
O1    O     O_R   0.420530 0.382500 0.497430 -0.593746
O2    O     O_R   0.579470 0.617500 0.502570 -0.596069
O3    O     O_R   0.563720 0.388950 0.502070 -0.535329
O4    O     O_R   0.436280 0.611050 0.497930 -0.530464
O5    O     O_R   0.428390 0.496750 0.415560 -0.535341
O6    O     O_R   0.571610 0.503250 0.584440 -0.537201
O7    O     O_R   0.571580 0.503200 0.420200 -0.538935
O8    O     O_R   0.428420 0.496800 0.579800 -0.539962
O9    O     O_2   0.594817 0.394996 0.844709 -0.517830
O10   O     O_2   0.410403 0.592215 0.154606 -0.528543
O11   O     O_2   0.384852 0.576609 0.855436 -0.513532
O12   O     O_2   0.619915 0.410045 0.144150 -0.505892
C53   C     C_3   0.329545 0.231572 0.507602 -0.311834
C54   C     C_3   0.307880 0.265264 0.567797 -0.430397
C55   C     C_3   0.214027 0.278812 0.572023 -0.650137
H15   H     H_    0.196784 0.324054 0.543696 0.260159
H16   H     H_    0.174404 0.223161 0.560027 0.280039
H17   H     H_    0.200702 0.300036 0.616634 0.243138
H18   H     H_    0.323915 0.223140 0.599334 0.238263
H19   H     H_    0.345708 0.321838 0.579854 0.226309
H20   H     H_    0.318882 0.272482 0.474858 0.238854
H21   H     H_    0.284968 0.179124 0.495097 0.215946
C56   C     C_3   0.671092 0.766546 0.488192 -0.332521
C57   C     C_3   0.690428 0.730851 0.428075 -0.382244
C58   C     C_3   0.783527 0.714711 0.423010 -0.706195
H22   H     H_    0.824875 0.769586 0.434047 0.274858
H23   H     H_    0.800024 0.669547 0.451647 0.262058
H24   H     H_    0.795247 0.692188 0.378405 0.240946
H25   H     H_    0.650917 0.674932 0.417159 0.223686
H26   H     H_    0.674806 0.772576 0.396155 0.233228
H27   H     H_    0.716348 0.818942 0.499235 0.212876
H28   H     H_    0.682879 0.726436 0.521320 0.215899
S1    S     S_3+6 0.279537 0.631142 0.566421 0.099754
O13   O     O_2   0.283651 0.708787 0.540822 -0.220164
O14   O     O_2   0.214074 0.633625 0.611545 -0.228305
O15   O     O_3   0.372848 0.624701 0.600193 -0.491572
H29   H     H_    0.380612 0.672306 0.627580 0.382582
S2    S     S_3+6 0.717939 0.369172 0.432494 0.076790
O16   O     O_2   0.780840 0.369255 0.385764 -0.281818
O17   O     O_2   0.717097 0.290884 0.457088 -0.218347
O18   O     O_3   0.622777 0.373674 0.400724 -0.490075
H30   H     H_    0.615665 0.326888 0.372543 0.384101
S3    S     S_3+6 0.114456 0.644923 0.479788 0.127732
O19   O     O_2   0.100303 0.695600 0.533583 -0.123533
O20   O     O_2   0.178372 0.687627 0.445248 -0.231137
O21   O     O_3   0.023297 0.629159 0.440429 -0.501951
H31   H     H_    0.010495 0.681717 0.429123 0.385626
S4    S     S_3+6 0.881392 0.353089 0.521550 0.155133
O22   O     O_2   0.965015 0.366050 0.554223 -0.224250
O23   O     O_2   0.817697 0.316914 0.559607 -0.178079
O24   O     O_3   0.890771 0.289243 0.464021 -0.354158
H32   H     H_    0.909712 0.322304 0.433657 0.399013
S5    S     S_3+6 0.898508 0.664712 0.575319 0.077454
O25   O     O_2   0.974058 0.644319 0.609794 -0.176409
O26   O     O_2   0.926807 0.719132 0.531480 -0.268635
O27   O     O_3   0.831866 0.710689 0.619053 -0.498679
H33   H     H_    0.864323 0.759895 0.634857 0.389245
S6    S     S_3+6 0.105393 0.333875 0.421982 0.048142
O28   O     O_2   0.065386 0.283226 0.464534 -0.235331
O29   O     O_2   0.038883 0.355713 0.380463 -0.245240
O30   O     O_3   0.176898 0.282807 0.385950 -0.522286
H34   H     H_    0.144281 0.234953 0.367915 0.385910
S7    S     S_3+6 0.380403 0.364632 0.323518 -0.002889
O31   O     O_2   0.423820 0.338821 0.375686 -0.304099
O32   O     O_2   0.302211 0.404163 0.340826 -0.285580
O33   O     O_3   0.350702 0.282761 0.280764 -0.539270
H35   H     H_    0.307605 0.253480 0.302148 0.400480
S8    S     S_3+6 0.621670 0.631768 0.679672 0.009233
O34   O     O_2   0.639336 0.702556 0.721968 -0.294634
O35   O     O_2   0.704122 0.598796 0.663947 -0.252631
O36   O     O_3   0.574352 0.662308 0.621479 -0.544096
H36   H     H_    0.609221 0.710127 0.612953 0.371589
C59   C     C_3   0.392971 0.385075 0.189171 -0.334472
C60   C     C_3   0.301007 0.408159 0.190018 -0.305248
C61   C     C_3   0.244325 0.354376 0.147260 -0.767581
H37   H     H_    0.266770 0.358730 0.103183 0.248752
H38   H     H_    0.244468 0.292264 0.157954 0.275694
H39   H     H_    0.178344 0.372381 0.148846 0.260394
H40   H     H_    0.274953 0.404703 0.232994 0.289692
H41   H     H_    0.298832 0.469904 0.178826 0.246968
H42   H     H_    0.413325 0.387071 0.144587 0.181692
H43   H     H_    0.398390 0.322655 0.196399 0.263385
C62   C     C_3   0.629298 0.588919 0.808080 -0.332694
C63   C     C_3   0.600758 0.662508 0.842430 -0.310783
C64   C     C_3   0.676559 0.714085 0.869577 -0.747149
H44   H     H_    0.713821 0.680112 0.898340 0.248887
H45   H     H_    0.718029 0.735722 0.836011 0.288046
H46   H     H_    0.653906 0.765729 0.895083 0.249317
H47   H     H_    0.563542 0.697866 0.814671 0.273993
H48   H     H_    0.559753 0.644928 0.877235 0.215107
H49   H     H_    0.652405 0.548032 0.838189 0.199945
H50   H     H_    0.686279 0.604079 0.783760 0.262348
S9    S     S_3+6 0.318568 0.870097 0.443077 0.070903
O37   O     O_2   0.325381 0.949270 0.419416 -0.270680
O38   O     O_2   0.278771 0.809831 0.397990 -0.233171
O39   O     O_3   0.257262 0.874202 0.500361 -0.451507
H51   H     H_    0.199258 0.879163 0.484760 0.397792
S10   S     S_3+6 0.681890 0.128462 0.554175 0.081514
O40   O     O_2   0.737231 0.125000 0.503234 -0.195431
O41   O     O_2   0.721688 0.188058 0.599679 -0.213659
O42   O     O_3   0.673525 0.039636 0.580305 -0.525171
H52   H     H_    0.732675 0.025562 0.585733 0.382270

loop_
_geom_bond_atom_site_label_1
_geom_bond_atom_site_label_2
_ccdc_geom_bond_type
C16   C28   A    
C29   S2    S    
C58   H22   S    
O18   H30   S    
S7    O32   D    
S9    O37   D    
Cu1   N6    S    
C25   H13   S    
S6    O30   S    
C64   H44   S    
C54   H18   S    
Cu1   Cu2   S    
C18   H11   S    
C56   H28   S    
C57   H25   S    
C40   N2    A    
C21   N3    S    
Cu1   O8    S    
C39   C47   A    
C35   C37   A    
C31   S4    S    
Cu2   O3    S    
S4    O23   D    
S1    O14   D    
C62   C63   S    
C38   N6    A    
C30   N6    A    
S7    O33   S    
C29   N5    A    
C13   N2    S    
C40   O10   S    
C4    H8    S    
C42   N2    A    
C1    O1    A    
C62   H50   S    
C5    H9    S    
C7    C9    A    
C23   O7    A    
C61   H39   S    
C6    H10   S    
C24   O6    A    
S10   O40   D    
O15   H29   S    
C37   N5    A    
C52   H6    S    
C8    C24   S    
C38   H4    S    
C11   C59   S    
C48   C51   A    
O36   H36   S    
O27   H33   S    
C49   C51   A    
C50   C52   A    
C61   H37   S    
C31   C33   A    
C1    C15   S    
C63   H48   S    
C2    C16   S    
C59   H43   S    
C35   S5    S    
C18   C20   A    
C3    C13   A    
S5    O27   S    
C45   C47   A    
C20   S9    S    
C58   H23   S    
C60   H41   S    
C4    C14   A    
C41   C43   A    
C42   C44   A    
S8    O36   S    
C9    S7    S    
C22   N4    S    
Cu2   O7    S    
C64   H45   S    
C44   C46   A    
S2    O16   D    
C3    H7    S    
C41   O11   S    
C46   C48   A    
C30   S1    S    
Cu1   O4    S    
C4    C6    A    
S1    O15   S    
C55   H15   S    
C5    C7    A    
C43   C49   A    
C6    C8    A    
C42   O12   S    
C49   H1    S    
C50   H2    S    
C53   H20   S    
S2    O17   D    
C32   C34   A    
Cu1   O1    S    
N7    N8    D    
C2    O2    A    
C55   H16   S    
Cu2   N5    S    
C43   C45   A    
C15   C27   A    
C56   C57   S    
S7    O31   D    
C39   N1    A    
C16   C18   A    
C10   S8    S    
C63   H47   S    
C9    C11   A    
S10   O42   S    
C47   C52   A    
S3    O20   D    
C10   C12   A    
S4    O24   S    
C28   C56   S    
S8    O35   D    
C12   C14   A    
C58   H24   S    
C60   H40   S    
C1    O3    A    
C14   N1    S    
C33   N7    S    
C39   O9    S    
C32   S3    S    
C17   C19   A    
O24   H32   S    
C53   C54   S    
Cu2   O6    S    
C64   H46   S    
O39   H51   S    
C41   N1    A    
S5    O25   D    
S9    O38   D    
S3    O21   S    
C44   C50   A    
C15   C17   A    
C21   C25   A    
C40   C48   A    
C23   O5    A    
C19   C21   A    
O33   H35   S    
C26   C28   A    
C20   C22   A    
S8    O34   D    
C3    C5    A    
C36   S6    S    
S6    O29   D    
S3    O19   D    
C54   H19   S    
S6    O28   D    
C25   C27   A    
C56   H27   S    
O30   H34   S    
C57   H26   S    
C53   H21   S    
C26   H14   S    
C63   C64   S    
C36   C38   A    
C24   O8    A    
C19   S10   S    
N3    N4    D    
C29   C31   A    
C59   C60   S    
C55   H17   S    
C30   C32   A    
C11   C13   A    
C54   C55   S    
C7    C23   S    
C57   C58   S    
C33   C35   A    
C62   H49   S    
C27   C53   S    
C34   C36   A    
C61   H38   S    
C12   C62   S    
C17   H12   S    
Cu1   O5    S    
S10   O41   D    
S2    O18   S    
C2    O4    A    
C45   C46   A    
C51   H5    S    
C8    C10   A    
O42   H52   S    
C22   C26   A    
C60   C61   S    
S9    O39   S    
Cu2   O2    S    
O21   H31   S    
S1    O13   D    
C59   H42   S    
C37   H3    S    
C34   N8    S    
S4    O22   D    
S5    O26   D    
