data_mof_unit_25041.cif
_audit_creation_date              2013-03-05T16:10:14-0500
_audit_creation_method            fapswitch 2.2
_symmetry_space_group_name_H-M    P1
_symmetry_Int_Tables_number       1
_space_group_crystal_system       triclinic
_cell_length_a                    9.918304
_cell_length_b                    10.741369
_cell_length_c                    13.29448
_cell_angle_alpha                 89.918957
_cell_angle_beta                  71.849235
_cell_angle_gamma                 90.66792
_cell_volume                      1345.7553775

loop_
_atom_site_label
_atom_site_type_symbol
_atom_site_description
_atom_site_fract_x
_atom_site_fract_y
_atom_site_fract_z
_atom_type_partial_charge
O1    O     O_R   0.385370 0.683250 0.500010 -0.577237
O2    O     O_R   0.614700 0.683220 0.500010 -0.623338
C1    C     C_R   0.502413 0.739687 0.497775 0.883329
O3    O     O_R   0.328400 0.499990 0.653620 -0.562869
O4    O     O_R   0.557730 0.499960 0.653620 -0.620406
C2    C     C_R   0.423948 0.480848 0.701422 0.879950
Zn1   Zn    Zn3+2 0.346870 0.500020 0.500000 1.061870
Zn2   Zn    Zn3+2 0.653130 0.499980 0.500000 0.977418
O5    O     O_R   0.385300 0.316780 0.499990 -0.582545
O6    O     O_R   0.614630 0.316750 0.499990 -0.630782
O7    O     O_R   0.442270 0.500040 0.346380 -0.585123
O8    O     O_R   0.671600 0.500010 0.346380 -0.612146
C3    C     C_R   0.498484 0.260256 0.501470 0.860586
C4    C     C_R   0.577645 0.505173 0.297028 0.890563
C5    C     C_R   0.791369 0.555777 0.008589 -0.039403
H1    H     H_    0.841498 0.488316 0.805512 0.178774
C6    C     C_R   0.622236 0.513797 0.181580 -0.120806
C7    C     C_R   0.242577 0.403920 0.871242 -0.051448
C8    C     C_R   0.204955 0.386366 0.981181 0.007496
C9    C     C_R   0.303195 0.413432 0.033882 -0.202712
C10   C     C_R   0.446474 0.442616 0.976912 0.068047
C11   C     C_R   0.488819 0.433448 0.866024 0.024580
C12   C     C_R   0.550905 0.478016 0.025051 0.070686
C13   C     C_R   0.691556 0.508539 0.961627 0.092025
C14   C     C_R   0.732420 0.479176 0.854351 -0.248127
C15   C     C_R   0.635762 0.423341 0.812331 0.006403
C16   C     C_R   0.519297 0.484382 0.133916 -0.223038
C17   C     C_R   0.758526 0.553897 0.119247 -0.062536
C18   C     C_R   0.383814 0.437572 0.813485 -0.191557
H2    H     H_    0.414431 0.462626 0.183945 0.204141
H3    H     H_    0.264349 0.406489 0.118893 0.167282
C19   C     C_R   0.630302 0.940790 0.446445 -0.021810
C20   C     C_R   0.624830 0.068792 0.449069 -0.178405
H4    H     H_    0.719529 0.122761 0.408597 0.169921
C21   C     C_R   0.497519 0.127658 0.501696 -0.069980
C22   C     C_R   0.374343 0.058598 0.554029 -0.033362
C23   C     C_R   0.381089 0.931323 0.553148 -0.160767
H5    H     H_    0.288846 0.877886 0.597283 0.232381
C24   C     C_R   0.506033 0.872286 0.498003 -0.105839
C25   C     C_R   0.943710 0.403769 0.457350 -0.122819
H6    H     H_    0.902001 0.327356 0.422578 0.182987
C26   C     C_R   0.086929 0.402655 0.456888 0.300578
N1    N     N_R   0.142790 0.500030 0.500030 -0.188680
C27   C     C_R   0.052565 0.596572 0.543828 0.318263
C28   C     C_R   0.910127 0.595875 0.542748 -0.136881
H7    H     H_    0.840692 0.671663 0.578181 0.192832
N2    N     N_R   0.857180 0.499940 0.500010 -0.130483
C29   C     C_1   0.865741 0.591305 0.166922 0.221543
N3    N     N_1   0.952436 0.619996 0.204167 -0.170762
C30   C     C_1   0.239454 0.112523 0.609721 0.302602
N4    N     N_1   0.129349 0.152590 0.653854 -0.133090
N5    N     N_R   0.170260 0.297074 0.411244 0.221566
O9    O     O_R   0.113985 0.186100 0.431233 -0.388002
O10   O     O_R   0.281738 0.312053 0.329087 -0.398093
N6    N     N_R   0.097986 0.699111 0.593805 0.204924
O11   O     O_R   0.145402 0.678342 0.672809 -0.383120
O12   O     O_R   0.055149 0.810497 0.581307 -0.413024
C31   C     C_1   0.925830 0.609087 0.944813 0.170345
N7    N     N_1   0.032999 0.653139 0.895438 -0.115588
C32   C     C_1   0.137770 0.381234 0.818476 0.231485
N8    N     N_1   0.053819 0.363254 0.776267 -0.198877
C33   C     C_1   0.065316 0.341196 0.042089 0.179465
N9    N     N_1   0.954038 0.304117 0.090739 -0.183339
C34   C     C_1   0.689534 0.331162 0.730780 0.235692
N10   N     N_1   0.733218 0.256345 0.666732 -0.160585
C35   C     C_1   0.763739 0.884007 0.390090 0.232021
N11   N     N_1   0.871281 0.839444 0.345377 -0.142180

loop_
_geom_bond_atom_site_label_1
_geom_bond_atom_site_label_2
_geom_bond_distance
_ccdc_geom_bond_type
O2    C1    1.282726 A    
O4    Zn2   1.965273 S    
N1    C27   1.383436 A    
C13   C14   1.393498 A    
C25   H6    1.082041 S    
C33   N9    1.157303 T    
C11   C18   1.424323 A    
Zn1   N1    2.024005 S    
C5    C31   1.449712 S    
C25   N2    1.358080 A    
C19   C35   1.444724 S    
C21   C22   1.405244 A    
C4    C6    1.461370 S    
Zn2   O8    1.992847 S    
C34   N10   1.157064 T    
N6    O11   1.297560 A    
N6    O12   1.301869 A    
C35   N11   1.156656 T    
C14   C15   1.382762 A    
Zn2   N2    2.023876 S    
C1    C24   1.424367 S    
C23   C24   1.388848 A    
C7    C18   1.414156 A    
C5    C13   1.414775 A    
C10   C11   1.405338 A    
C9    C10   1.417650 A    
C16   H2    1.068494 S    
Zn1   O7    1.965274 S    
C27   N6    1.426353 S    
C5    C17   1.404262 A    
C23   H5    1.078486 S    
C32   N8    1.154622 T    
O3    Zn1   1.992846 S    
C7    C32   1.442555 S    
C22   C23   1.369407 A    
C20   C21   1.397564 A    
N5    O10   1.297811 A    
C3    C21   1.424196 S    
C12   C16   1.384104 A    
C10   C12   1.425304 A    
O4    C2    1.294047 A    
O7    C4    1.298324 A    
O2    Zn2   2.009166 S    
C19   C24   1.407653 A    
C26   N1    1.384231 A    
C22   C30   1.440727 S    
C8    C33   1.446987 S    
C6    C16   1.392798 A    
C2    C18   1.489412 S    
C20   H4    1.085962 S    
N5    O9    1.301623 A    
O3    C2    1.312867 A    
C7    C8    1.403138 A    
C11   C15   1.414621 A    
C28   N2    1.354775 A    
C26   N5    1.431362 S    
H1    C14   1.077661 S    
Zn1   O5    2.009165 S    
C15   C34   1.447529 S    
C29   N3    1.157174 T    
O1    Zn1   2.000475 S    
O5    C3    1.287964 A    
C12   C13   1.421350 A    
C30   N4    1.155220 T    
C31   N7    1.156418 T    
C28   H7    1.082091 S    
C6    C17   1.409613 A    
O6    C3    1.290430 A    
Zn2   O6    2.000477 S    
C17   C29   1.450744 S    
C27   C28   1.417222 A    
C8    C9    1.394311 A    
C19   C20   1.376677 A    
O8    C4    1.297678 A    
C25   C26   1.418786 A    
O1    C1    1.295396 A    
C9    H3    1.076625 S    
