data_mof_unit_39280.cif
_audit_creation_date              2012-12-10T18:23:08-0500
_audit_creation_method            fapswitch 2.2
_symmetry_space_group_name_H-M    P1
_symmetry_Int_Tables_number       1
_space_group_crystal_system       triclinic
_cell_length_a                    15.017709
_cell_length_b                    14.111793
_cell_length_c                    10.506223
_cell_angle_alpha                 89.678171
_cell_angle_beta                  89.522544
_cell_angle_gamma                 90.04962
_cell_volume                      2226.43687012

loop_
_atom_site_label
_atom_site_type_symbol
_atom_type_description
_atom_site_fract_x
_atom_site_fract_y
_atom_site_fract_z
_atom_type_partial_charge
C1    C     C_R   0.326663 0.499952 0.500357 0.890557
C2    C     C_R   0.955172 0.674382 0.492175 0.090302
C3    C     C_R   0.555275 0.796765 0.418422 0.171018
C4    C     C_R   0.444725 0.203235 0.581578 0.171018
C5    C     C_R   0.444698 0.796034 0.581499 0.166736
C6    C     C_R   0.555302 0.203966 0.418501 0.166737
C7    C     C_R   0.442842 0.897703 0.584630 -0.038544
C8    C     C_R   0.557159 0.102297 0.415371 -0.038543
C9    C     C_R   0.557170 0.898482 0.415350 -0.038512
C10   C     C_R   0.442831 0.101518 0.584651 -0.038512
C11   C     C_R   0.500000 0.949105 0.499990 -0.026229
C12   C     C_R   0.673337 0.500048 0.499641 0.890557
C13   C     C_R   0.500000 0.050895 0.500011 -0.026229
C14   C     C_R   0.386376 0.949131 0.668671 0.067091
C15   C     C_R   0.613625 0.050869 0.331330 0.067090
C16   C     C_R   0.613676 0.950710 0.331391 0.069555
C17   C     C_R   0.386326 0.049290 0.668611 0.069555
C18   C     C_R   0.499611 0.500344 0.257522 0.882946
C19   C     C_R   0.500390 0.499656 0.742478 0.882948
C20   C     C_3   0.490168 0.590426 0.039776 -0.197261
C21   C     C_3   0.509833 0.409575 0.960224 -0.197261
C22   C     C_3   0.568341 0.553774 0.956305 -0.225984
C23   C     C_R   0.953620 0.500451 0.499694 0.038435
C24   C     C_3   0.431660 0.446226 0.043696 -0.225984
C25   C     C_3   0.423496 0.534836 0.958831 0.048602
C26   C     C_3   0.576506 0.465165 0.041169 0.048603
C27   C     C_3   0.500399 0.498881 0.877265 -0.030269
C28   C     C_3   0.499602 0.501119 0.122735 -0.030267
C29   C     C_R   0.814977 0.586447 0.495800 -0.265082
C30   C     C_R   0.185023 0.413552 0.504198 -0.265081
C31   C     C_R   0.769245 0.500219 0.499249 -0.061850
C32   C     C_R   0.230755 0.499780 0.500749 -0.061851
C33   C     C_R   0.814922 0.414243 0.502696 -0.229102
C34   C     C_R   0.046380 0.499547 0.500307 0.038435
C35   C     C_R   0.185078 0.585754 0.497304 -0.229104
C36   C     C_R   0.906903 0.413692 0.503077 0.078920
C37   C     C_R   0.093096 0.586306 0.496924 0.078921
C38   C     C_1   0.339317 0.572180 0.909421 0.133168
C39   C     C_1   0.660684 0.427819 0.090579 0.133167
C40   C     C_R   0.907489 0.587943 0.495790 0.076346
C41   C     C_R   0.092510 0.412055 0.504210 0.076343
C42   C     C_R   0.952366 0.327422 0.507109 -0.201540
C43   C     C_R   0.047633 0.672576 0.492892 -0.201540
C44   C     C_R   0.044828 0.325616 0.507826 0.090307
H1    H     H_    0.481352 0.663747 0.075543 0.147940
H2    H     H_    0.084049 0.738981 0.490194 0.155984
H3    H     H_    0.127701 0.232146 0.593784 0.180481
H4    H     H_    0.128896 0.228447 0.431759 0.184316
H5    H     H_    0.871103 0.771550 0.568242 0.184320
H6    H     H_    0.872303 0.767853 0.406212 0.180484
H7    H     H_    0.677149 0.751710 0.356647 0.183758
H8    H     H_    0.594199 0.751291 0.242575 0.190837
H9    H     H_    0.405802 0.248711 0.757425 0.190838
H10   H     H_    0.322851 0.248289 0.643354 0.183758
H11   H     H_    0.322745 0.750324 0.643148 0.194513
H12   H     H_    0.518649 0.336253 0.924458 0.147940
H13   H     H_    0.405776 0.749063 0.757239 0.201169
H14   H     H_    0.594223 0.250935 0.242759 0.201167
H15   H     H_    0.677254 0.249679 0.356851 0.194514
H16   H     H_    0.344118 0.918134 0.849307 0.185456
H17   H     H_    0.262030 0.918485 0.737255 0.188112
H18   H     H_    0.737972 0.081516 0.262749 0.188113
H19   H     H_    0.655885 0.081866 0.150696 0.185456
H20   H     H_    0.656394 0.921280 0.150965 0.183830
H21   H     H_    0.738184 0.920849 0.263480 0.184843
H22   H     H_    0.261818 0.079151 0.736525 0.184843
H23   H     H_    0.624183 0.596554 0.916496 0.146433
H24   H     H_    0.343610 0.078720 0.849038 0.183831
H25   H     H_    0.375818 0.403446 0.083504 0.146433
H26   H     H_    0.777965 0.652102 0.493436 0.157234
H27   H     H_    0.222035 0.347898 0.506560 0.157234
H28   H     H_    0.779037 0.347531 0.505662 0.155791
H29   H     H_    0.220961 0.652467 0.494339 0.155791
H30   H     H_    0.915950 0.261016 0.509808 0.155983
N1    N     N_R   0.500000 0.750030 0.500000 -0.110410
N2    N     N_3   0.610067 0.262280 0.338133 -0.375072
N3    N     N_3   0.328073 0.900204 0.755901 -0.500955
N4    N     N_3   0.671929 0.099796 0.244102 -0.500955
N5    N     N_3   0.672190 0.902610 0.244464 -0.506899
N6    N     N_3   0.327813 0.097390 0.755540 -0.506899
N7    N     N_R   0.500000 0.249970 0.500000 -0.110410
N8    N     N_1   0.272954 0.601483 0.870294 -0.207933
N9    N     N_1   0.727047 0.398514 0.129704 -0.207933
N10   N     N_3   0.088186 0.235182 0.512397 -0.466012
N11   N     N_3   0.911814 0.764817 0.487605 -0.466017
N12   N     N_3   0.609964 0.739145 0.337966 -0.383841
N13   N     N_3   0.390036 0.260855 0.662034 -0.383841
N14   N     N_3   0.389931 0.737720 0.661865 -0.375072
O1    O     O_R   0.367850 0.580280 0.500030 -0.613649
O2    O     O_R   0.632150 0.419720 0.499970 -0.613651
O3    O     O_R   0.632150 0.580280 0.499970 -0.617107
O4    O     O_R   0.367850 0.419720 0.500030 -0.617106
O5    O     O_R   0.499970 0.580260 0.313950 -0.613997
O6    O     O_R   0.500030 0.419740 0.686050 -0.613996
O7    O     O_R   0.500030 0.580260 0.686050 -0.609586
O8    O     O_R   0.499970 0.419740 0.313950 -0.609586
Zn1   Zn    Zn3+2 0.500000 0.607200 0.500000 0.965455
Zn2   Zn    Zn3+2 0.500000 0.392800 0.500000 0.965454

loop_
_geom_bond_atom_site_label_1
_geom_bond_atom_site_label_2
_ccdc_geom_bond_type
H24   N6    S    
C21   C26   S    
C37   C43   A    
C8    C13   A    
H21   N5    S    
C34   C37   A    
C18   O8    A    
C12   O3    A    
C36   C42   A    
C30   H27   S    
H14   N2    S    
C4    N13   S    
C7    C11   A    
C12   O2    A    
C35   C37   A    
C9    C16   A    
H10   N13   S    
C26   C39   S    
C15   N4    S    
N7    Zn2   S    
O6    Zn2   S    
C10   C17   A    
C23   C40   A    
N1    Zn1   S    
C33   C36   A    
C2    N11   S    
C14   N3    S    
H11   N14   S    
C1    O4    A    
H6    N11   S    
C5    N14   S    
C7    C14   A    
C4    N7    A    
H17   N3    S    
C20   C25   S    
O8    Zn2   S    
C31   C33   A    
C30   C41   A    
C3    N1    A    
C20   H1    S    
C33   H28   S    
C21   C27   S    
C6    N7    A    
C38   N8    T    
C3    N12   S    
C14   C17   A    
C34   C41   A    
C42   C44   A    
H7    N12   S    
C19   C27   S    
C24   H25   S    
H16   N3    S    
C42   H30   S    
O4    Zn2   S    
C32   C35   A    
H5    N11   S    
C18   C28   S    
C24   C25   S    
C5    C7    A    
C6    C8    A    
C20   C28   S    
C1    C32   S    
H4    N10   S    
O1    Zn1   S    
C5    N1    A    
C3    C9    A    
C25   C38   S    
C2    C43   A    
C23   C34   A    
H9    N13   S    
H3    N10   S    
O3    Zn1   S    
C9    C11   A    
C19   O6    A    
C20   C22   S    
C8    C15   A    
C22   C27   S    
C12   C31   S    
C41   C44   A    
C4    C10   A    
O5    Zn1   S    
C19   O7    A    
C29   H26   S    
C35   H29   S    
C1    O1    A    
H18   N4    S    
C24   C28   S    
C44   N10   S    
C10   C13   A    
C21   H12   S    
O7    Zn1   S    
C6    N2    S    
C25   C27   S    
H22   N6    S    
C26   C28   S    
H13   N14   S    
C16   N5    S    
H8    N12   S    
C39   N9    T    
C29   C31   A    
C30   C32   A    
C11   C13   A    
C29   C40   A    
H20   N5    S    
C17   N6    S    
C43   H2    S    
C22   H23   S    
C2    C40   A    
C23   C36   A    
C22   C26   S    
C21   C24   S    
C18   O5    A    
H15   N2    S    
O2    Zn2   S    
C15   C16   A    
H19   N4    S    
