data_mof_unit_37811.cif
_audit_creation_date              2013-03-05T16:51:10-0500
_audit_creation_method            fapswitch 2.2
_symmetry_space_group_name_H-M    P1
_symmetry_Int_Tables_number       1
_space_group_crystal_system       triclinic
_cell_length_a                    15.665042
_cell_length_b                    15.034621
_cell_length_c                    10.93812
_cell_angle_alpha                 90.185592
_cell_angle_beta                  90.765148
_cell_angle_gamma                 90.548744
_cell_volume                      2575.76136088

loop_
_atom_site_label
_atom_site_type_symbol
_atom_site_description
_atom_site_fract_x
_atom_site_fract_y
_atom_site_fract_z
_atom_type_partial_charge
O1    O     O_R   0.378020 0.573650 0.500000 -0.587849
O2    O     O_R   0.378020 0.426350 0.500000 -0.586017
C1    C     C_R   0.338175 0.499280 0.502202 0.972369
O3    O     O_R   0.499990 0.573670 0.314770 -0.556570
O4    O     O_R   0.499990 0.426330 0.314770 -0.591526
C2    C     C_R   0.513101 0.499820 0.258210 0.913544
Zn1   Zn    Zn3+2 0.500000 0.598370 0.499960 1.027417
Zn2   Zn    Zn3+2 0.500000 0.401630 0.499960 1.019146
O5    O     O_R   0.621980 0.573680 0.499940 -0.619229
O6    O     O_R   0.621980 0.426320 0.499940 -0.642629
O7    O     O_R   0.500010 0.573660 0.685180 -0.627614
O8    O     O_R   0.500010 0.426340 0.685180 -0.572789
C3    C     C_R   0.661757 0.500653 0.498795 0.850258
C4    C     C_R   0.507500 0.500700 0.742251 0.905261
C5    C     C_3   0.491282 0.595711 0.070655 0.241024
C6    C     C_3   0.458332 0.422872 0.070775 0.272989
C7    C     C_3   0.498549 0.598356 0.929369 -0.116429
C8    C     C_3   0.448354 0.438045 0.932129 -0.135038
H1    H     H_    0.432982 0.608227 0.892682 0.180407
H2    H     H_    0.389222 0.477677 0.924520 0.171254
C9    C     C_3   0.624025 0.472557 0.070595 -0.065695
C10   C     C_3   0.523871 0.497858 0.121075 -0.208424
C11   C     C_3   0.521980 0.502682 0.877085 -0.159227
C12   C     C_3   0.620675 0.474938 0.915078 -0.019311
C13   C     C_R   0.959929 0.576255 0.578186 -0.233358
C14   C     C_R   0.953780 0.416047 0.554503 -0.236303
H3    H     H_    0.926404 0.638787 0.582133 0.136490
H4    H     H_    0.915263 0.356296 0.542688 0.131778
C15   C     C_R   0.914553 0.498448 0.551729 0.134303
C16   C     C_R   0.041914 0.410526 0.571714 0.017856
C17   C     C_R   0.047793 0.573008 0.600471 0.007838
C18   C     C_R   0.089155 0.490650 0.585327 0.040750
C19   C     C_1   0.826097 0.501885 0.527009 -0.079960
C20   C     C_1   0.177367 0.492207 0.556308 -0.060157
C21   C     C_1   0.250575 0.496303 0.528875 -0.145103
C22   C     C_1   0.751095 0.502229 0.509685 -0.177920
C23   C     C_R   0.428619 0.952691 0.427902 -0.030842
C24   C     C_R   0.430057 0.048147 0.427461 -0.016997
C25   C     C_R   0.492645 0.904872 0.492787 0.022642
C26   C     C_R   0.494449 0.095020 0.494253 0.022550
C27   C     C_R   0.555730 0.953116 0.556951 -0.172109
C28   C     C_R   0.556290 0.046252 0.557930 -0.197002
H5    H     H_    0.605123 0.918365 0.607428 0.149968
H6    H     H_    0.605797 0.080293 0.608865 0.133924
C29   C     C_1   0.496017 0.807019 0.496211 0.141946
C30   C     C_1   0.498290 0.192880 0.497760 0.097918
N1    N     N_1   0.500020 0.270550 0.499960 -0.066945
N2    N     N_1   0.500020 0.729450 0.499960 -0.062544
I1    I     I_    0.527346 0.723243 0.164590 -0.344562
I2    I     I_    0.475386 0.283515 0.128357 -0.336342
I3    I     I_    0.359518 0.632119 0.108937 -0.361798
I4    I     I_    0.330884 0.413742 0.151818 -0.307628
I5    I     I_    0.530110 0.729134 0.849306 -0.414434
I6    I     I_    0.378491 0.330824 0.833701 -0.407986
C31   C     C_R   0.690198 0.544019 0.129211 0.069603
C32   C     C_R   0.691453 0.633477 0.089966 -0.032382
C33   C     C_R   0.751349 0.696632 0.130973 -0.096913
C34   C     C_R   0.816252 0.672167 0.210623 -0.126978
C35   C     C_R   0.822157 0.584195 0.246483 -0.118141
C36   C     C_R   0.761038 0.521395 0.207499 -0.204902
H7    H     H_    0.649209 0.654554 0.018864 0.185918
H8    H     H_    0.748712 0.764160 0.097183 0.144700
H9    H     H_    0.863796 0.720459 0.240682 0.120374
H10   H     H_    0.875955 0.563839 0.302322 0.145633
H11   H     H_    0.775811 0.454825 0.235118 0.141154
C37   C     C_R   0.659811 0.378352 0.117379 0.082490
C38   C     C_R   0.720562 0.324094 0.056030 -0.157491
C39   C     C_R   0.747036 0.241707 0.101526 -0.125200
C40   C     C_R   0.723733 0.215185 0.217822 -0.130038
C41   C     C_R   0.679786 0.274332 0.290457 -0.105664
C42   C     C_R   0.652629 0.355072 0.241092 -0.073844
H12   H     H_    0.751903 0.342688 0.974124 0.139623
H13   H     H_    0.788978 0.200376 0.048293 0.133105
H14   H     H_    0.745875 0.152720 0.254862 0.126826
H15   H     H_    0.671019 0.260270 0.386489 0.141364
H16   H     H_    0.638875 0.406217 0.301723 0.148321
C43   C     C_R   0.696027 0.539231 0.870219 0.046922
C44   C     C_R   0.688579 0.604212 0.778018 -0.143583
C45   C     C_R   0.755830 0.661438 0.747350 -0.117680
C46   C     C_R   0.835611 0.651912 0.802007 -0.128764
C47   C     C_R   0.849458 0.581662 0.881272 -0.104024
C48   C     C_R   0.781920 0.525149 0.912195 -0.145322
H17   H     H_    0.632883 0.612117 0.725497 0.203548
H18   H     H_    0.746094 0.712486 0.679114 0.142188
H19   H     H_    0.887406 0.696859 0.779571 0.127812
H20   H     H_    0.912478 0.571231 0.920115 0.136403
H21   H     H_    0.797516 0.473340 0.975178 0.133438
C49   C     C_R   0.640083 0.385382 0.840020 0.069218
C50   C     C_R   0.706050 0.378905 0.750663 -0.145043
C51   C     C_R   0.729905 0.298417 0.698202 -0.121442
C52   C     C_R   0.687996 0.220611 0.729242 -0.161637
C53   C     C_R   0.618489 0.224321 0.806337 -0.125688
C54   C     C_R   0.594960 0.305419 0.858318 -0.021535
H22   H     H_    0.744175 0.434244 0.722839 0.151076
H23   H     H_    0.782524 0.296368 0.635186 0.124010
H24   H     H_    0.710010 0.157972 0.693573 0.118861
H25   H     H_    0.583738 0.164043 0.828494 0.149938
H26   H     H_    0.543969 0.303841 0.917452 0.190489
C55   C     C_R   0.094766 0.654567 0.643277 0.130139
C56   C     C_R   0.157380 0.648474 0.736661 -0.139129
C57   C     C_R   0.199530 0.724686 0.780694 -0.110590
C58   C     C_R   0.178636 0.808094 0.734042 -0.114106
C59   C     C_R   0.115719 0.815376 0.643092 -0.156001
C60   C     C_R   0.074445 0.739166 0.596977 -0.164576
H27   H     H_    0.172925 0.584820 0.776866 0.138134
H28   H     H_    0.247797 0.719127 0.851975 0.158423
H29   H     H_    0.210914 0.867143 0.768729 0.122915
H30   H     H_    0.099246 0.880244 0.607742 0.117037
H31   H     H_    0.026974 0.746490 0.524974 0.114053
C61   C     C_R   0.081489 0.320892 0.580840 0.112363
C62   C     C_R   0.142581 0.303254 0.672963 -0.121995
C63   C     C_R   0.172935 0.216918 0.690247 -0.130437
C64   C     C_R   0.142595 0.147249 0.616411 -0.139234
C65   C     C_R   0.082407 0.163856 0.524220 -0.142103
C66   C     C_R   0.052184 0.250099 0.506015 -0.188323
H32   H     H_    0.164836 0.355640 0.733998 0.151631
H33   H     H_    0.219193 0.203674 0.762067 0.163057
H34   H     H_    0.166091 0.080485 0.630162 0.122163
H35   H     H_    0.059413 0.109939 0.466421 0.130383
H36   H     H_    0.005736 0.261360 0.433658 0.127939
C67   C     C_R   0.364488 0.099109 0.357653 0.094693
C68   C     C_R   0.357267 0.090711 0.229862 -0.099139
C69   C     C_R   0.294770 0.137449 0.164966 -0.087292
C70   C     C_R   0.241864 0.196474 0.226166 -0.085664
C71   C     C_R   0.251625 0.208945 0.352116 -0.080472
C72   C     C_R   0.311251 0.159158 0.418193 -0.140034
H37   H     H_    0.401052 0.049575 0.179907 0.131638
H38   H     H_    0.289077 0.129865 0.066743 0.145049
H39   H     H_    0.194799 0.234229 0.175555 0.145030
H40   H     H_    0.213211 0.257550 0.398415 0.164517
H41   H     H_    0.316888 0.168363 0.516200 0.144304
C73   C     C_R   0.358463 0.904508 0.363501 0.094917
C74   C     C_R   0.279538 0.892088 0.420572 -0.125518
C75   C     C_R   0.209861 0.857274 0.354104 -0.122959
C76   C     C_R   0.218316 0.835730 0.230582 -0.101467
C77   C     C_R   0.296564 0.848559 0.173326 -0.078179
C78   C     C_R   0.366802 0.881344 0.240003 -0.111753
H42   H     H_    0.271524 0.911483 0.515151 0.124629
H43   H     H_    0.148666 0.848788 0.397070 0.126946
H44   H     H_    0.164026 0.809998 0.178936 0.128886
H45   H     H_    0.302700 0.833602 0.076994 0.154287
H46   H     H_    0.426523 0.893094 0.193916 0.157801

loop_
_geom_bond_atom_site_label_1
_geom_bond_atom_site_label_2
_geom_bond_distance
_ccdc_geom_bond_type
C13   C17   1.395944 A    
C24   C26   1.418183 A    
C31   C32   1.413162 A    
C57   C58   1.395557 A    
C9    C37   1.610709 S    
C27   C28   1.400222 A    
C62   C63   1.399190 A    
C78   H46   1.081929 S    
C65   C66   1.398561 A    
C51   C52   1.381474 A    
C76   C77   1.395946 A    
C25   C27   1.399898 A    
C43   C44   1.410874 A    
Zn1   O7    2.060919 S    
C35   H10   1.081356 S    
C46   H19   1.082164 S    
C71   C72   1.397840 A    
C16   C61   1.491833 S    
C43   C48   1.433749 A    
C6    I2    2.207392 S    
C38   H12   1.064226 S    
C60   H31   1.082529 S    
O7    C4    1.269510 A    
C48   H21   1.069413 S    
C2    C10   1.511912 S    
C15   C19   1.409727 S    
C50   H22   1.067012 S    
C19   C22   1.187651 T    
C32   C33   1.397160 A    
C5    C7    1.551715 S    
C20   C21   1.190353 T    
C68   H37   1.080504 S    
O5    C3    1.267717 A    
C61   C62   1.407979 A    
C53   C54   1.398397 A    
C52   H24   1.079575 S    
C49   C54   1.405019 A    
C71   H40   1.080162 S    
C5    C10   1.655674 S    
C55   C56   1.410460 A    
C73   C74   1.403604 A    
C11   C12   1.653279 S    
C62   H32   1.082906 S    
C5    I3    2.186020 S    
C47   H20   1.082530 S    
C25   C29   1.473212 S    
C64   H34   1.082700 S    
C26   C28   1.400018 A    
C55   C60   1.408272 A    
C35   C36   1.399688 A    
C31   C36   1.436732 A    
C27   H5    1.083833 S    
C58   C59   1.396297 A    
C28   H6    1.073685 S    
O3    Zn1   2.058204 S    
C44   H17   1.046154 S    
C63   C64   1.396429 A    
C53   H25   1.082528 S    
C47   C48   1.396368 A    
C13   C15   1.390609 A    
C76   H44   1.082361 S    
C8    C11   1.624179 S    
C6    I4    2.198493 S    
C69   C70   1.395556 A    
C3    C22   1.402927 S    
O3    C2    1.288801 A    
C52   C53   1.387494 A    
C9    C31   1.611344 S    
C44   C45   1.398762 A    
C39   C40   1.386831 A    
C33   H8    1.082530 S    
C39   H13   1.082836 S    
C38   C39   1.400802 A    
O1    C1    1.275767 A    
C18   C20   1.421957 S    
C4    C11   1.489340 S    
C26   C30   1.472292 S    
C23   C24   1.435122 A    
C37   C42   1.404506 A    
C1    C21   1.407051 S    
Zn2   O8    2.058552 S    
C56   H27   1.083011 S    
C58   H29   1.082532 S    
C7    C11   1.594121 S    
C12   C49   1.608325 S    
C67   C68   1.406028 A    
C41   C42   1.397883 A    
C6    C8    1.540430 S    
C40   H14   1.082304 S    
O8    C4    1.282309 A    
C36   H11   1.072873 S    
C14   C16   1.394213 A    
C17   C55   1.494669 S    
C74   C75   1.399751 A    
C50   C51   1.393967 A    
C7    I5    2.209382 S    
C42   H16   1.039823 S    
C75   H43   1.079897 S    
C64   C65   1.396029 A    
C29   N2    1.169327 T    
C57   H28   1.082802 S    
Zn1   O5    1.950033 S    
C30   N1    1.167955 T    
C6    C10   1.608264 S    
C45   H18   1.082724 S    
O1    Zn1   1.943139 S    
C17   C18   1.413289 A    
O2    Zn2   1.950126 S    
C34   H9    1.082358 S    
C46   C47   1.385493 A    
O6    C3    1.274496 A    
C51   H23   1.082132 S    
O4    Zn2   2.060571 S    
C75   C76   1.396668 A    
C13   H3    1.082281 S    
C14   H4    1.083768 S    
C23   C73   1.479723 S    
C63   H33   1.081866 S    
Zn1   N2    1.970737 S    
O2    C1    1.267195 A    
C34   C35   1.384368 A    
Zn2   N1    1.970743 S    
C67   C72   1.405119 A    
C23   C25   1.422900 A    
C16   C18   1.414122 A    
C33   C34   1.383336 A    
O4    C2    1.284216 A    
C65   H35   1.082379 S    
C72   H41   1.082788 S    
C61   C66   1.410103 A    
C56   C57   1.397957 A    
C7    H1    1.109193 S    
C77   H45   1.082435 S    
C70   H39   1.082305 S    
C37   C38   1.431710 A    
C8    H2    1.108533 S    
C5    I1    2.236566 S    
C40   C41   1.384798 A    
C24   C67   1.490988 S    
C8    I6    2.208833 S    
C45   C46   1.387049 A    
C12   C43   1.601606 S    
C74   H42   1.083149 S    
C49   C50   1.435592 A    
C41   H15   1.082431 S    
C14   C15   1.388392 A    
Zn2   O6    1.943054 S    
C66   H36   1.082744 S    
C9    C12   1.701676 S    
C69   H38   1.082444 S    
C59   C60   1.399517 A    
C32   H7    1.065392 S    
C77   C78   1.396909 A    
C59   H30   1.082513 S    
C73   C78   1.402016 A    
C68   C69   1.397837 A    
C9    C10   1.715894 S    
C54   H26   1.034650 S    
C70   C71   1.395933 A    
