data_mof_unit_13329.cif
_audit_creation_date              2013-03-05T16:18:23-0500
_audit_creation_method            fapswitch 2.2
_symmetry_space_group_name_H-M    P1
_symmetry_Int_Tables_number       1
_space_group_crystal_system       triclinic
_cell_length_a                    10.646632
_cell_length_b                    9.904208
_cell_length_c                    10.59919
_cell_angle_alpha                 88.703795
_cell_angle_beta                  88.794779
_cell_angle_gamma                 90.074764
_cell_volume                      1117.11208098

loop_
_atom_site_label
_atom_site_type_symbol
_atom_site_description
_atom_site_fract_x
_atom_site_fract_y
_atom_site_fract_z
_atom_type_partial_charge
O1    O     O_R   0.314910 0.616040 0.499970 -0.606890
O2    O     O_R   0.314910 0.383960 0.499970 -0.602965
C1    C     C_R   0.257921 0.499942 0.501344 0.857039
O3    O     O_R   0.500080 0.616020 0.313900 -0.568924
O4    O     O_R   0.500080 0.383980 0.313900 -0.593563
C2    C     C_R   0.483231 0.501477 0.258508 0.924335
Zn1   Zn    Zn3+2 0.500150 0.654960 0.499940 1.011925
Zn2   Zn    Zn3+2 0.500150 0.345040 0.499940 0.993071
O5    O     O_R   0.685320 0.616040 0.499930 -0.646346
O6    O     O_R   0.685320 0.383960 0.499930 -0.646052
O7    O     O_R   0.500150 0.616060 0.686000 -0.581278
O8    O     O_R   0.500150 0.383940 0.686000 -0.598521
C3    C     C_R   0.741715 0.500319 0.500455 0.817729
C4    C     C_R   0.504989 0.498465 0.741313 0.924713
C5    C     C_3   0.430634 0.615071 0.025392 0.361509
C6    C     C_3   0.412371 0.398617 0.035736 0.350996
C7    C     C_3   0.372271 0.509026 0.942084 -0.263068
H1    H     H_    0.280088 0.515930 0.895037 0.190705
C8    C     C_3   0.499103 0.495539 0.875079 -0.147726
C9    C     C_3   0.557329 0.604611 0.955183 -0.155141
C10   C     C_3   0.538181 0.380543 0.964739 -0.129954
C11   C     C_3   0.596713 0.489984 0.048692 -0.267050
C12   C     C_3   0.469107 0.504600 0.121227 -0.199235
H2    H     H_    0.617826 0.689288 0.919791 0.189737
H3    H     H_    0.582812 0.284381 0.936218 0.205445
H4    H     H_    0.690157 0.482333 0.093033 0.178768
C13   C     C_3   0.070014 0.643523 0.527944 -0.317083
C14   C     C_3   0.067674 0.401482 0.605183 -0.319497
H5    H     H_    0.110399 0.719566 0.459438 0.219881
H6    H     H_    0.092954 0.296416 0.580714 0.235546
H7    H     H_    0.096120 0.670456 0.625144 0.236511
H8    H     H_    0.106927 0.424517 0.698837 0.200123
C15   C     C_3   0.927883 0.646479 0.519250 -0.393415
C16   C     C_3   0.924009 0.410093 0.611529 -0.423576
H9    H     H_    0.887094 0.690322 0.606877 0.185361
H10   H     H_    0.893016 0.452469 0.703459 0.175032
H11   H     H_    0.900998 0.713233 0.438230 0.197277
H12   H     H_    0.884016 0.306441 0.606729 0.193522
H13   H     H_    0.107996 0.525867 0.295994 0.216752
H14   H     H_    0.111990 0.352464 0.350940 0.234118
H15   H     H_    0.893322 0.510366 0.293859 0.176281
H16   H     H_    0.898701 0.342288 0.360859 0.192259
C17   C     C_3   0.074223 0.454349 0.371902 -0.345791
C18   C     C_3   0.120625 0.500031 0.501488 0.047677
C19   C     C_3   0.877898 0.501165 0.501236 0.151300
C20   C     C_3   0.929851 0.448329 0.373916 -0.389136
C21   C     C_3   0.376874 0.082124 0.542477 0.164404
C22   C     C_3   0.370905 0.924192 0.522718 0.151885
H17   H     H_    0.301216 0.129083 0.486652 0.148020
H18   H     H_    0.312456 0.910938 0.439714 0.143394
C23   C     C_3   0.538928 0.083073 0.372017 0.098846
C24   C     C_3   0.553124 0.923755 0.376849 0.111822
C25   C     C_3   0.595935 0.078726 0.584062 -0.363322
C26   C     C_3   0.584494 0.917616 0.594994 -0.330120
N1    N     N_3   0.499750 0.138610 0.497240 -0.176259
N2    N     N_3   0.499750 0.861390 0.497240 -0.156968
H19   H     H_    0.692599 0.105426 0.549658 0.153931
H20   H     H_    0.679789 0.872602 0.585247 0.160744
H21   H     H_    0.592009 0.125879 0.677803 0.235526
H22   H     H_    0.553081 0.886641 0.691434 0.261642
H23   H     H_    0.634438 0.124540 0.348590 0.109814
H24   H     H_    0.656204 0.902261 0.372775 0.095878
N3    N     N_R   0.349395 0.119760 0.675120 0.267624
O9    O     O_R   0.400470 0.057514 0.770459 -0.288528
O10   O     O_R   0.263567 0.208741 0.699658 -0.378118
N4    N     N_R   0.295408 0.859818 0.625178 0.232586
O11   O     O_R   0.345813 0.797140 0.719949 -0.307809
O12   O     O_R   0.178802 0.897471 0.637930 -0.409126
N5    N     N_R   0.460895 0.128565 0.267608 0.261896
O13   O     O_R   0.339243 0.117685 0.273413 -0.334466
O14   O     O_R   0.515896 0.142986 0.157374 -0.342973
N6    N     N_R   0.503526 0.864759 0.264002 0.267627
O15   O     O_R   0.383404 0.852965 0.250061 -0.310689
O16   O     O_R   0.579640 0.840262 0.169556 -0.369855
N7    N     N_R   0.356548 0.736661 0.040405 0.288326
O17   O     O_R   0.393261 0.848708 0.984593 -0.192625
O18   O     O_R   0.241148 0.726161 0.082666 -0.344969
N8    N     N_R   0.319552 0.295675 0.069175 0.276595
O19   O     O_R   0.313541 0.188093 0.001439 -0.188657
O20   O     O_R   0.221546 0.329684 0.136223 -0.408472

loop_
_geom_bond_atom_site_label_1
_geom_bond_atom_site_label_2
_geom_bond_distance
_ccdc_geom_bond_type
N4    O12   1.301924 A    
N3    O10   1.296827 A    
C6    C10   1.535185 S    
C13   H5    1.113833 S    
C15   C19   1.551038 S    
C5    N7    1.450368 S    
C8    C9    1.527750 S    
C23   H23   1.117145 S    
C17   C18   1.546397 S    
C25   H21   1.107402 S    
C21   H17   1.106274 S    
C26   H22   1.105443 S    
C25   C26   1.601545 S    
C13   C15   1.518242 S    
Zn1   O7    2.000796 S    
C8    C10   1.530468 S    
C21   N3    1.485869 S    
O4    C2    1.305817 A    
O7    C4    1.293595 A    
N8    O20   1.299151 A    
C22   N2    1.528329 S    
H16   C20   1.113445 S    
N5    O14   1.300734 A    
O5    C3    1.294517 A    
C15   H9    1.114244 S    
C13   C18   1.549959 S    
H14   C17   1.112093 S    
C9    H2    1.110452 S    
C6    C7    1.527516 S    
H15   C20   1.113425 S    
C6    N8    1.451877 S    
C5    C12   1.537878 S    
N4    O11   1.295254 A    
C14   C16   1.532186 S    
C16   H12   1.113507 S    
C10   C11   1.555717 S    
Zn1   N2    2.044091 S    
O3    Zn1   2.017794 S    
Zn2   N1    2.045374 S    
C25   N1    1.504604 S    
C5    C9    1.531543 S    
C26   N2    1.503927 S    
C1    C18   1.461711 S    
C13   H7    1.110891 S    
C23   C24   1.585108 S    
C14   H8    1.113329 S    
N6    O16   1.301933 A    
C25   H19   1.114087 S    
N8    O19   1.300478 A    
H13   C17   1.113426 S    
C23   N1    1.499502 S    
C19   C20   1.549906 S    
C14   C18   1.549980 S    
C15   H11   1.114291 S    
O1    C1    1.299062 A    
N7    O17   1.301409 A    
C24   N6    1.451987 S    
C21   C22   1.584210 S    
Zn2   O8    2.017903 S    
C7    H1    1.111652 S    
C16   C19   1.548803 S    
N7    O18   1.302070 A    
O3    C2    1.303037 A    
C9    C11   1.553977 S    
C6    C12   1.533671 S    
C21   N1    1.487907 S    
C26   H20   1.112497 S    
C5    C7    1.527164 S    
C10   H3    1.110137 S    
O1    Zn1   2.008998 S    
C4    C8    1.417518 S    
O2    Zn2   2.009988 S    
O8    C4    1.290028 A    
N6    O15   1.295912 A    
O6    C3    1.298957 A    
O4    Zn2   2.000670 S    
C14   H6    1.110202 S    
O2    C1    1.300037 A    
C24   H24   1.118311 S    
C3    C19   1.450109 S    
C2    C12   1.465606 S    
C22   H18   1.098412 S    
C7    C8    1.519879 S    
C16   H10   1.113459 S    
N5    O13   1.299568 A    
C17   C20   1.537840 S    
N3    O9    1.301043 A    
Zn1   O5    2.009259 S    
Zn2   O6    2.008271 S    
C11   H4    1.111141 S    
C11   C12   1.555429 S    
C23   N5    1.461163 S    
C22   N4    1.470569 S    
C24   N2    1.505209 S    
