data_mof_unit_52066.cif
_audit_creation_date              2012-12-11T15:39:23-0500
_audit_creation_method            fapswitch 2.2
_symmetry_space_group_name_H-M    P1
_symmetry_Int_Tables_number       1
_space_group_crystal_system       triclinic
_cell_length_a                    14.294346
_cell_length_b                    14.814169
_cell_length_c                    33.244964
_cell_angle_alpha                 98.024326
_cell_angle_beta                  90.306929
_cell_angle_gamma                 118.815242
_cell_volume                      6086.38406253

loop_
_atom_site_label
_atom_site_type_symbol
_atom_type_description
_atom_site_fract_x
_atom_site_fract_y
_atom_site_fract_z
_atom_type_partial_charge
C1    C     C_R   0.618368 0.908625 0.437331 0.540186
C2    C     C_R   0.711924 0.436943 0.949378 0.542607
C3    C     C_R   0.594644 0.852993 0.777592 -0.065263
C4    C     C_R   0.607098 0.868433 0.737224 -0.065300
C5    C     C_R   0.615431 0.795108 0.708029 0.048016
C6    C     C_R   0.607879 0.704369 0.719451 -0.079536
C7    C     C_R   0.597727 0.689960 0.760155 -0.060543
C8    C     C_R   0.592079 0.764783 0.789571 0.082619
C9    C     C_R   0.558831 0.740045 0.633790 -0.088706
C10   C     C_R   0.559458 0.766797 0.595151 -0.106323
C11   C     C_R   0.710968 0.938046 0.619053 -0.112274
C12   C     C_2   0.516108 0.352427 0.430829 0.249141
C13   C     C_R   0.709592 0.739706 0.950231 0.558574
C14   C     C_2   0.154329 0.986877 0.413134 0.262187
C15   C     C_2   0.468331 0.699546 0.383990 0.237371
C16   C     C_2   0.543875 0.369326 0.614824 0.270763
C17   C     C_2   0.291127 0.776691 0.700856 0.219467
C18   C     C_2   0.494169 0.568613 0.909017 0.253520
C19   C     C_2   0.434201 0.582439 0.827252 0.230741
C20   C     C_2   0.784531 0.574669 0.335638 0.225204
C21   C     C_R   0.799958 0.394591 0.159674 -0.090113
C22   C     C_R   0.796763 0.408070 0.118946 0.079133
C23   C     C_R   0.729032 0.320080 0.241038 -0.114957
C24   C     C_R   0.720074 0.304527 0.281363 -0.118038
C25   C     C_R   0.733491 0.385230 0.312570 -0.004287
C26   C     C_R   0.761410 0.485012 0.303221 0.025365
C27   C     C_R   0.769023 0.499165 0.262244 -0.075774
C28   C     C_R   0.750838 0.416535 0.231130 0.001450
C29   C     C_R   0.747188 0.429044 0.188167 0.005198
C30   C     C_R   0.628900 0.369227 0.373539 -0.149376
C31   C     C_R   0.595145 0.207077 0.457107 0.569287
C32   C     C_R   0.595919 0.330211 0.410046 0.007017
C33   C     C_R   0.727952 0.270434 0.406379 -0.136976
C34   C     C_R   0.762315 0.313016 0.371209 -0.121463
C35   C     C_R   0.710640 0.359233 0.353794 -0.004280
C36   C     C_R   0.641269 0.273555 0.425296 0.034252
C37   C     C_R   0.244242 0.875863 0.393164 0.031664
C38   C     C_R   0.192567 0.931863 0.382581 0.001195
C39   C     C_R   0.174583 0.934416 0.341159 -0.122729
C40   C     C_R   0.709412 0.911678 0.657746 -0.102279
C41   C     C_R   0.203633 0.879685 0.310642 0.029713
C42   C     C_R   0.246388 0.818301 0.321058 -0.112827
C43   C     C_R   0.294100 0.891890 0.434647 0.577241
C44   C     C_R   0.266371 0.816277 0.361803 -0.137790
C45   C     C_R   0.196735 0.811610 0.163761 -0.106571
C46   C     C_R   0.167520 0.787729 0.121927 -0.112353
C47   C     C_R   0.090664 0.903026 0.129555 -0.125589
C48   C     C_R   0.119349 0.926246 0.171527 -0.110329
C49   C     C_R   0.169178 0.877765 0.188821 0.037400
C50   C     C_1   0.181784 0.885753 0.232309 -0.020860
C51   C     C_R   0.630475 0.814217 0.665729 0.041292
C52   C     C_1   0.190916 0.885702 0.268344 -0.014384
C53   C     C_R   0.110261 0.829848 0.104643 0.020065
C54   C     C_R   0.642313 0.873887 0.396112 -0.013636
C55   C     C_R   0.614126 0.905501 0.551637 0.543810
C56   C     C_R   0.560898 0.787045 0.369118 -0.015752
C57   C     C_R   0.570121 0.781234 0.326868 -0.078937
C58   C     C_R   0.661050 0.855259 0.311533 -0.003721
C59   C     C_R   0.747731 0.930059 0.338027 -0.080818
C60   C     C_R   0.740384 0.939097 0.380046 0.091390
C61   C     C_R   0.776148 0.921984 0.174690 -0.111727
C62   C     C_R   0.632393 0.867764 0.588002 0.024187
C63   C     C_R   0.792383 0.908116 0.133387 -0.121660
C64   C     C_R   0.617317 0.753223 0.121161 -0.124942
C65   C     C_R   0.601224 0.767416 0.162364 -0.116505
C66   C     C_R   0.682075 0.849615 0.189357 0.036618
C67   C     C_R   0.590449 0.200477 0.570751 0.588086
C68   C     C_1   0.673013 0.852996 0.232370 -0.022486
C69   C     C_1   0.666866 0.853657 0.268437 -0.020673
C70   C     C_R   0.714875 0.820970 0.106584 0.023235
C71   C     C_R   0.622959 0.246914 0.614196 0.042374
C72   C     C_R   0.588287 0.314070 0.635515 0.017581
C73   C     C_R   0.051942 0.781372 0.063916 0.540961
C74   C     C_R   0.597591 0.330773 0.678382 -0.123236
C75   C     C_R   0.643587 0.284804 0.699680 0.035119
C76   C     C_R   0.685318 0.226059 0.678690 -0.109177
C77   C     C_R   0.675348 0.207415 0.636394 -0.146965
C78   C     C_R   0.759154 0.344809 0.844485 0.100366
C79   C     C_R   0.289194 0.887149 0.548777 0.560938
C80   C     C_R   0.771775 0.373270 0.886802 -0.097475
C81   C     C_R   0.587469 0.337650 0.886934 -0.136646
C82   C     C_R   0.574402 0.308506 0.844680 -0.144645
C83   C     C_R   0.661143 0.315994 0.823271 0.040439
C84   C     C_R   0.743832 0.486649 0.066113 0.558866
C85   C     C_1   0.651904 0.303597 0.779681 0.010103
C86   C     C_1   0.647064 0.295704 0.743191 0.003543
C87   C     C_R   0.687861 0.375135 0.908155 -0.004610
C88   C     C_R   0.062297 0.750019 0.906703 0.020252
C89   C     C_R   0.043988 0.819333 0.887289 -0.146107
C90   C     C_R   0.056417 0.822277 0.846112 -0.128268
C91   C     C_R   0.738973 0.455832 0.106525 0.033438
C92   C     C_R   0.088050 0.756519 0.823260 0.003533
C93   C     C_R   0.115134 0.693372 0.842841 -0.074647
C94   C     C_R   0.103556 0.690087 0.884411 0.097534
C95   C     C_R   0.742955 0.789338 0.066445 0.544882
C96   C     C_R   0.181895 0.758444 0.760391 -0.072613
C97   C     C_R   0.192857 0.768061 0.719155 0.009153
C98   C     C_R   0.112000 0.773686 0.696469 -0.005831
C99   C     C_R   0.020308 0.765163 0.714771 0.101598
C100  C     C_R   0.011224 0.755591 0.755791 -0.089158
C101  C     C_R   0.093069 0.755102 0.779036 -0.018285
C102  C     C_R   0.171698 0.902261 0.649574 -0.075739
C103  C     C_R   0.683140 0.486275 0.135083 -0.138833
C104  C     C_R   0.216085 0.933304 0.613350 0.080178
C105  C     C_R   0.163738 0.752190 0.586877 -0.134516
C106  C     C_R   0.021174 0.731442 0.947088 0.552624
C107  C     C_R   0.119324 0.722387 0.623031 -0.113543
C108  C     C_R   0.128732 0.798326 0.655144 0.011192
C109  C     C_R   0.218856 0.858425 0.582473 0.028175
C110  C     C_R   0.657207 0.747179 0.912955 0.021063
C111  C     C_R   0.563273 0.662398 0.890686 -0.025266
C112  C     C_R   0.534537 0.668498 0.850445 -0.006234
C113  C     C_R   0.600401 0.759295 0.833388 0.028581
C114  C     C_R   0.685004 0.845328 0.857525 -0.150602
C115  C     C_R   0.687568 0.473430 0.175412 -0.126890
C116  C     C_R   0.712262 0.839769 0.896613 -0.136920
Cr1   Cr    Cr6+3 0.424820 0.846020 0.489780 1.029764
Cr2   Cr    Cr6+3 0.657880 0.078580 0.505700 1.061482
Cr3   Cr    Cr6+3 0.417280 0.075360 0.504550 1.150897
Cr4   Cr    Cr6+3 0.903360 0.812540 0.006510 1.026309
Cr5   Cr    Cr6+3 0.914630 0.587050 0.006280 1.089423
Cr6   Cr    Cr6+3 0.673560 0.582680 0.008540 1.073542
H1    H     H_    0.638949 0.524081 0.126643 0.138707
H2    H     H_    0.137980 0.979082 0.332643 0.110245
H3    H     H_    0.868530 0.961149 0.123129 0.129567
H4    H     H_    0.839215 0.985848 0.195482 0.112687
H5    H     H_    0.820954 0.983136 0.325930 0.135753
H6    H     H_    0.528122 0.711131 0.173493 0.114737
H7    H     H_    0.556084 0.685507 0.101231 0.135277
H8    H     H_    0.506570 0.718802 0.305742 0.161558
H9    H     H_    0.849913 0.401751 0.902404 0.172770
H10   H     H_    0.825890 0.305144 0.356349 0.131355
H11   H     H_    0.722084 0.191190 0.695039 0.129876
H12   H     H_    0.845079 0.358796 0.169241 0.133428
H13   H     H_    0.702786 0.156004 0.621144 0.133226
H14   H     H_    0.498379 0.285854 0.828506 0.119282
H15   H     H_    0.521285 0.338036 0.902513 0.142325
H16   H     H_    0.568615 0.379208 0.695216 0.100934
H17   H     H_    0.014162 0.867852 0.903317 0.144078
H18   H     H_    0.085338 0.641561 0.627127 0.140945
H19   H     H_    0.698393 0.227677 0.288116 0.119694
H20   H     H_    0.245140 0.758621 0.778581 0.176614
H21   H     H_    0.038886 0.874530 0.831880 0.123695
H22   H     H_    0.940872 0.750430 0.769756 0.134783
H23   H     H_    0.766278 0.229835 0.417403 0.162149
H24   H     H_    0.177074 0.960458 0.674553 0.149936
H25   H     H_    0.142334 0.644095 0.825560 0.166466
H26   H     H_    0.161393 0.692395 0.563391 0.149417
H27   H     H_    0.714039 0.255302 0.217408 0.119056
H28   H     H_    0.782028 0.907183 0.913092 0.150655
H29   H     H_    0.766371 0.969290 0.682029 0.126221
H30   H     H_    0.610446 0.937878 0.728734 0.114415
H31   H     H_    0.590539 0.911603 0.799815 0.118105
H32   H     H_    0.613810 0.646880 0.697216 0.125939
H33   H     H_    0.598254 0.622512 0.768969 0.105992
H34   H     H_    0.183586 0.731102 0.103567 0.144566
H35   H     H_    0.497589 0.664336 0.639433 0.131389
H36   H     H_    0.498452 0.710828 0.571652 0.139211
H37   H     H_    0.735303 0.915734 0.845131 0.122699
H38   H     H_    0.644415 0.498512 0.196755 0.122813
H39   H     H_    0.768452 0.016173 0.614426 0.136938
H40   H     H_    0.788634 0.574503 0.254326 0.158443
H41   H     H_    0.589965 0.406489 0.360112 0.106744
H42   H     H_    0.459184 0.362931 0.413042 0.099372
H43   H     H_    0.138353 0.046803 0.404863 0.121313
H44   H     H_    0.471673 0.685539 0.414965 0.139379
H45   H     H_    0.235418 0.773761 0.176870 0.116502
H46   H     H_    0.499010 0.401740 0.631600 0.105354
H47   H     H_    0.307900 0.795731 0.670471 0.113849
H48   H     H_    0.472023 0.491318 0.892888 0.071401
H49   H     H_    0.398990 0.503847 0.834174 0.098092
H50   H     H_    0.789419 0.567866 0.367539 0.132281
H51   H     H_    0.267956 0.774629 0.297615 0.129702
H52   H     H_    0.305679 0.772824 0.368680 0.180810
H53   H     H_    0.097444 0.977391 0.190688 0.114064
H54   H     H_    0.045726 0.935960 0.117253 0.129014
I1    I     I_    0.877993 0.351337 0.078438 -0.347916
I2    I     I_    0.885037 0.052347 0.415402 -0.332017
I3    I     I_    0.894083 0.357557 0.813996 -0.359677
I4    I     I_    0.151467 0.592787 0.909581 -0.251380
I5    I     I_    0.894370 0.769359 0.682352 -0.396177
I6    I     I_    0.283548 0.095454 0.611461 -0.308018
O1    O     O_R   0.318160 0.824460 0.443680 -0.515863
O2    O     O_R   0.668160 0.499860 0.053480 -0.520033
O3    O     O_R   0.689170 0.693840 0.050110 -0.497374
O4    O     O_R   0.525040 0.857250 0.449830 -0.524006
O5    O     O_R   0.803860 0.812940 0.962540 -0.527285
O6    O     O_R   0.982950 0.787950 0.964120 -0.510935
O7    O     O_R   0.007050 0.649970 0.960540 -0.474181
O8    O     O_R   0.807910 0.482370 0.965590 -0.492151
O9    O     O_R   0.643310 0.460980 0.963840 -0.506525
O10   O     O_R   0.666140 0.657800 0.967020 -0.453032
O11   O     O_3   0.830520 0.660760 0.007110 -0.263555
O12   O     O_R   0.645130 0.163230 0.552140 -0.516289
O13   O     O_R   0.684760 0.998800 0.456360 -0.464559
O14   O     O_R   0.647540 0.166310 0.470260 -0.512061
O15   O     O_R   0.500960 0.181750 0.467450 -0.455596
O16   O     O_R   0.331100 0.981120 0.457080 -0.461802
O17   O     O_R   0.315560 0.821140 0.532010 -0.524469
O18   O     O_R   0.522630 0.854180 0.531710 -0.503842
O19   O     O_R   0.682160 0.995480 0.544690 -0.506471
O20   O     O_2   0.517380 0.366102 0.467942 -0.430526
O21   O     O_2   0.135209 0.962885 0.447004 -0.454878
O22   O     O_2   0.388231 0.639472 0.361329 -0.528861
O23   O     O_R   0.498360 0.178430 0.555780 -0.436311
O24   O     O_2   0.560544 0.383512 0.579669 -0.437587
O25   O     O_2   0.355038 0.762166 0.719618 -0.494125
O26   O     O_2   0.458671 0.577161 0.941800 -0.454632
O27   O     O_2   0.387576 0.598969 0.800757 -0.459539
O28   O     O_2   0.799344 0.657899 0.327113 -0.500706
O29   O     O_R   0.328690 0.978040 0.538950 -0.456308
O30   O     O_3   0.499990 0.999990 0.500010 -0.274510
O31   O     O_R   0.828710 0.851830 0.052170 -0.513319
O32   O     O_R   0.005980 0.823990 0.047210 -0.503603
O33   O     O_R   0.031900 0.688850 0.050170 -0.494802
O34   O     O_R   0.830940 0.518420 0.048680 -0.464827

loop_
_geom_bond_atom_site_label_1
_geom_bond_atom_site_label_2
_ccdc_geom_bond_type
C66   C68   S    
C93   C94   A    
C13   O5    A    
C110  C116  A    
Cr3   O16   S    
C41   C42   A    
C104  I6    S    
C111  C112  A    
C9    C51   A    
C3    H31   S    
C75   C76   A    
C11   C62   A    
C103  H1    S    
C44   H52   S    
C116  H28   S    
C81   C82   A    
C57   C58   A    
C7    C8    A    
C39   C41   A    
C54   C60   A    
C45   C46   A    
C79   O29   A    
C74   H16   S    
C26   C27   A    
C13   C110  S    
C13   O10   A    
C30   C35   A    
Cr5   O33   S    
Cr2   O30   S    
C28   C29   S    
C1    O13   A    
C19   H49   S    
C80   C87   A    
C16   O24   D    
Cr1   O4    S    
C27   H40   S    
Cr5   O7    S    
C5    C6    A    
C98   C99   A    
C17   H47   S    
C12   H42   S    
C59   H5    S    
C55   O19   A    
C55   C62   S    
C11   H39   S    
C33   C36   A    
C98   C108  S    
C56   C57   A    
C18   O26   D    
C34   C35   A    
C107  H18   S    
C61   C63   A    
C110  C111  A    
C92   C93   A    
C84   O2    A    
C81   C87   A    
C61   C66   A    
C15   O22   D    
C99   C100  A    
C68   C69   T    
C89   H17   S    
C16   C72   S    
C50   C52   T    
C23   C24   A    
C15   H44   S    
C102  C108  A    
C61   H4    S    
Cr3   O23   S    
C84   C91   S    
C64   C70   A    
C67   O12   A    
Cr2   O14   S    
C9    C10   A    
C10   H36   S    
C41   C52   S    
C67   C71   S    
C90   H21   S    
C67   O23   A    
C47   C53   A    
C48   H53   S    
C88   C89   A    
Cr6   O2    S    
C29   C115  A    
C34   H10   S    
C59   C60   A    
C80   H9    S    
C19   O27   D    
C21   C22   A    
C96   C97   A    
C82   H14   S    
C10   C62   A    
C42   C44   A    
C30   H41   S    
C22   I1    S    
Cr4   O6    S    
Cr5   O11   S    
C112  C113  A    
C88   C106  S    
C97   C98   A    
C54   C56   A    
C18   H48   S    
C38   C39   A    
C4    H30   S    
C88   C94   A    
C79   O17   A    
C74   C75   A    
C79   C109  S    
C78   I3    S    
Cr5   O34   S    
C2    O8    A    
C57   H8    S    
Cr6   O9    S    
C76   C77   A    
C72   C74   A    
C3    C8    A    
C100  H22   S    
C5    C51   S    
Cr5   O8    S    
C31   O14   A    
Cr6   O3    S    
C25   C26   A    
C85   C86   T    
C105  H26   S    
C21   C29   A    
C39   H2    S    
C40   H29   S    
C37   C43   S    
C103  C115  A    
C1    C54   S    
C65   H6    S    
C37   C38   A    
C14   C38   S    
C105  C107  A    
C75   C86   S    
C90   C92   A    
C47   C48   A    
C63   C70   A    
C17   O25   D    
C24   H19   S    
C22   C91   A    
C14   O21   D    
C33   C34   A    
Cr3   O30   S    
C2    C87   S    
C94   I4    S    
C23   C28   A    
C24   C25   A    
C14   H43   S    
C102  C104  A    
Cr2   O13   S    
C45   H45   S    
C16   H46   S    
C63   H3    S    
Cr1   O18   S    
C33   H23   S    
C92   C101  S    
C25   C35   S    
C8    C113  S    
C48   C49   A    
C20   H50   S    
C65   C66   A    
C20   O28   D    
C95   O31   A    
C49   C50   S    
C77   H13   S    
C73   O32   A    
Cr2   O19   S    
C107  C108  A    
C18   C111  S    
Cr4   O5    S    
C32   C36   A    
C21   H12   S    
C71   C77   A    
C95   O3    A    
C113  C114  A    
C105  C109  A    
C83   C85   S    
Cr3   O15   S    
Cr4   O32   S    
Cr1   O30   S    
C53   C73   S    
C47   H54   S    
C91   C103  A    
C4    C5    A    
C42   H51   S    
Cr1   O17   S    
C78   C83   A    
C114  C116  A    
C76   H11   S    
Cr1   O1    S    
C58   C69   S    
Cr6   O10   S    
C6    C7    A    
C40   C51   A    
C46   H34   S    
Cr3   O29   S    
Cr4   O11   S    
C115  H38   S    
C64   C65   A    
C9    H35   S    
C31   O15   A    
C70   C95   S    
C58   C59   A    
C106  O6    A    
C12   O20   D    
C102  H24   S    
C30   C32   A    
C6    H32   S    
C1    O4    A    
C55   O18   A    
C104  C109  A    
C20   C26   S    
C37   C44   A    
C46   C53   A    
C43   O1    A    
C100  C101  A    
C45   C49   A    
C93   H25   S    
C43   O16   A    
C78   C80   A    
C23   H27   S    
C11   C40   A    
Cr2   O12   S    
C15   C56   S    
C114  H37   S    
C99   I5    S    
C96   H20   S    
C84   O34   A    
C71   C72   A    
C7    H33   S    
C64   H7    S    
C17   C97   S    
C82   C83   A    
C27   C28   A    
C81   H15   S    
C19   C112  S    
C31   C36   S    
C73   O33   A    
Cr6   O11   S    
C106  O7    A    
C89   C90   A    
C96   C101  A    
C60   I2    S    
C2    O9    A    
C12   C32   S    
C3    C4    A    
Cr4   O31   S    
