data_mof_unit_62627.cif
_audit_creation_date              2012-12-10T17:17:15-0500
_audit_creation_method            fapswitch 2.2
_symmetry_space_group_name_H-M    P1
_symmetry_Int_Tables_number       1
_space_group_crystal_system       triclinic
_cell_length_a                    18.90347
_cell_length_b                    18.742768
_cell_length_c                    18.690166
_cell_angle_alpha                 108.966095
_cell_angle_beta                  109.300336
_cell_angle_gamma                 109.579232
_cell_volume                      5132.92093761

loop_
_atom_site_label
_atom_site_type_symbol
_atom_type_description
_atom_site_fract_x
_atom_site_fract_y
_atom_site_fract_z
_atom_type_partial_charge
C1    C     C_R   0.119601 0.118684 0.500717 0.773132
C2    C     C_R   0.271589 0.044474 0.702101 0.074166
C3    C     C_R   0.186097 0.001630 0.684575 -0.068994
C4    C     C_R   0.166402 0.970153 0.737212 -0.243893
C5    C     C_R   0.230150 0.974659 0.804980 -0.032597
C6    C     C_R   0.317074 0.015291 0.823578 -0.157575
C7    C     C_R   0.177514 0.178803 0.419838 -0.088377
C8    C     C_R   0.242600 0.241173 0.418373 -0.066814
C9    C     C_R   0.315427 0.310892 0.497428 -0.102735
C10   C     C_R   0.324755 0.316683 0.576612 -0.179900
C11   C     C_R   0.261628 0.254518 0.579526 0.148489
C12   C     C_R   0.117381 0.998930 0.618342 0.779190
C13   C     C_R   0.187098 0.185113 0.500392 -0.103532
C14   C     C_R   0.753461 0.923119 0.235520 -0.152679
C15   C     C_R   0.686728 0.920567 0.170943 0.112255
C16   C     C_R   0.683632 0.998589 0.186637 -0.091183
C17   C     C_R   0.743665 0.075843 0.267301 0.144272
C18   C     C_R   0.808151 0.075217 0.330320 -0.185910
C19   C     C_R   0.813675 0.999742 0.314298 -0.098887
C20   C     C_R   0.815987 0.738143 0.488384 -0.184169
C21   C     C_R   0.751321 0.669914 0.483879 0.157208
C22   C     C_R   0.684038 0.680953 0.493863 -0.063123
C23   C     C_R   0.880351 0.881233 0.499359 0.788652
C24   C     C_R   0.679810 0.756245 0.502635 -0.241300
C25   C     C_R   0.743250 0.822763 0.504630 -0.021697
C26   C     C_R   0.812385 0.813950 0.498348 -0.107517
C27   C     C_R   0.502538 0.881338 0.883552 0.767422
C28   C     C_R   0.381800 0.005492 0.885186 0.801275
C29   C     C_R   0.499949 0.118689 0.118891 0.801759
C30   C     C_R   0.618228 0.999428 0.118808 0.762390
C31   C     C_R   0.500325 0.619247 0.618964 0.793462
C32   C     C_R   0.381685 0.379905 0.499018 0.792607
C33   C     C_R   0.499981 0.381437 0.381312 0.788044
C34   C     C_R   0.881224 0.000164 0.381095 0.812844
C35   C     C_R   0.618267 0.616471 0.497298 0.770114
C36   C     C_R   0.583899 0.817884 0.827478 0.149353
C37   C     C_R   0.580661 0.753919 0.759593 -0.165552
C38   C     C_R   0.501742 0.687102 0.686226 -0.060479
C39   C     C_R   0.424731 0.684324 0.678472 -0.181656
C40   C     C_R   0.426446 0.747455 0.744650 -0.195613
C41   C     C_R   0.505171 0.814715 0.818709 -0.054894
C42   C     C_R   0.502002 0.258822 0.178492 -0.044930
C43   C     C_R   0.504745 0.325067 0.243991 0.078644
C44   C     C_R   0.499414 0.314190 0.314111 -0.094763
C45   C     C_R   0.291385 0.075444 0.647842 -0.272844
C46   C     C_R   0.492935 0.238714 0.319654 0.071902
C47   C     C_R   0.496421 0.176139 0.256680 -0.054385
C48   C     C_R   0.499579 0.185662 0.185850 -0.181973
C49   C     C_R   0.376485 0.127062 0.670709 -0.019910
C50   C     C_R   0.444180 0.154073 0.751776 0.136509
C51   C     C_R   0.423975 0.122035 0.805155 -0.143176
C52   C     C_R   0.338761 0.059902 0.777529 0.051938
Cu1   Cu    Cu3+1 0.999980 0.061790 0.561790 0.967746
Cu2   Cu    Cu3+1 0.000020 0.938210 0.438210 0.969999
Cu3   Cu    Cu3+1 0.438200 0.938230 0.000040 0.989122
Cu4   Cu    Cu3+1 0.561800 0.061850 0.000040 0.941943
Cu5   Cu    Cu3+1 0.438190 0.500100 0.438300 0.964330
Cu6   Cu    Cu3+1 0.561810 0.500080 0.561880 0.939543
H1    H     H_    0.100195 0.940619 0.724277 0.140359
H2    H     H_    0.758450 0.865401 0.226439 0.166178
H3    H     H_    0.854444 0.134123 0.392204 0.156347
H4    H     H_    0.869563 0.732093 0.483736 0.155726
H5    H     H_    0.627180 0.763421 0.508911 0.153696
H6    H     H_    0.240765 0.060419 0.587332 0.157873
H7    H     H_    0.639840 0.755826 0.763683 0.151843
H8    H     H_    0.363304 0.632673 0.621845 0.150574
H9    H     H_    0.366131 0.744658 0.737444 0.151991
H10   H     H_    0.474277 0.151899 0.870604 0.200939
H11   H     H_    0.381571 0.370645 0.636886 0.149737
O1    O     O_R   0.090150 0.142360 0.552170 -0.585521
O2    O     O_R   0.552230 0.962090 0.909900 -0.589981
O3    O     O_R   0.357630 0.947820 0.909860 -0.568685
O4    O     O_R   0.462000 0.052220 0.909860 -0.598179
O5    O     O_R   0.447770 0.037990 0.090190 -0.565556
O6    O     O_R   0.552150 0.142390 0.090190 -0.582888
O7    O     O_R   0.538000 0.947860 0.090220 -0.586368
O8    O     O_R   0.642370 0.052260 0.090230 -0.586877
O9    O     O_R   0.447810 0.590260 0.538090 -0.582052
O10   O     O_R   0.552200 0.590240 0.642450 -0.585205
O11   O     O_R   0.357640 0.409920 0.447920 -0.576012
O12   O     O_R   0.090180 0.037990 0.447810 -0.576921
O13   O     O_R   0.462030 0.409900 0.552280 -0.583240
O14   O     O_R   0.447800 0.409940 0.357730 -0.575182
O15   O     O_R   0.552190 0.409920 0.462090 -0.595495
O16   O     O_R   0.537970 0.590270 0.447900 -0.582166
O17   O     O_R   0.642360 0.590260 0.552260 -0.592853
O18   O     O_R   0.090170 0.052200 0.642360 -0.582102
O19   O     O_R   0.090200 0.947840 0.538010 -0.588258
O20   O     O_R   0.909820 0.962010 0.552190 -0.573970
O21   O     O_R   0.909850 0.857640 0.447830 -0.590353
O22   O     O_R   0.909800 0.052160 0.461990 -0.582469
O23   O     O_R   0.909830 0.947800 0.357640 -0.581088
O24   O     O_R   0.447850 0.857690 0.909890 -0.583552
C53   C     C_3   0.277990 0.264115 0.668137 -0.393897
C54   C     C_3   0.258848 0.332348 0.715131 -0.786883
H12   H     H_    0.301734 0.396884 0.726114 0.239001
H13   H     H_    0.190540 0.314040 0.676355 0.264743
H14   H     H_    0.270246 0.337242 0.779184 0.240355
H15   H     H_    0.239438 0.202009 0.663916 0.212912
H16   H     H_    0.346613 0.283930 0.708324 0.198451
C55   C     C_3   0.618108 0.836238 0.086002 -0.370252
C56   C     C_3   0.631755 0.757829 0.071795 -0.867990
H17   H     H_    0.695311 0.772902 0.075478 0.256312
H18   H     H_    0.627283 0.737889 0.120688 0.255252
H19   H     H_    0.580567 0.702324 0.006214 0.249880
H20   H     H_    0.554567 0.817791 0.083184 0.228932
H21   H     H_    0.614095 0.847886 0.030634 0.198174
C57   C     C_3   0.738741 0.158829 0.290266 -0.391183
C58   C     C_3   0.806672 0.225163 0.284133 -0.788605
H22   H     H_    0.872535 0.243139 0.330752 0.241830
H23   H     H_    0.797279 0.198279 0.217222 0.268233
H24   H     H_    0.800841 0.284675 0.300147 0.236189
H25   H     H_    0.674029 0.146697 0.247951 0.200581
H26   H     H_    0.749179 0.187193 0.357612 0.197487
C59   C     C_3   0.755640 0.586829 0.466697 -0.412807
C60   C     C_3   0.755566 0.546582 0.381155 -0.856998
H27   H     H_    0.703351 0.542970 0.327935 0.251728
H28   H     H_    0.818371 0.585546 0.387220 0.254561
H29   H     H_    0.744955 0.479889 0.363902 0.247073
H30   H     H_    0.815316 0.601436 0.521069 0.209948
H31   H     H_    0.700337 0.536551 0.462517 0.214378
C61   C     C_1   0.734335 0.897771 0.510430 0.258842
N1    N     N_1   0.727127 0.957789 0.514973 -0.269702
C62   C     C_3   0.671451 0.887019 0.907177 -0.415095
C63   C     C_3   0.722117 0.847741 0.945890 -0.839328
H32   H     H_    0.679455 0.792117 0.948280 0.263946
H33   H     H_    0.750803 0.824969 0.906541 0.250976
H34   H     H_    0.775523 0.897670 0.012955 0.259196
H35   H     H_    0.709713 0.929489 0.888686 0.215095
H36   H     H_    0.665608 0.929017 0.959732 0.214730
C64   C     C_1   0.499740 0.265111 0.102321 0.262668
N2    N     N_1   0.497857 0.270070 0.041645 -0.311845
C65   C     C_3   0.516234 0.407918 0.239490 -0.387085
C66   C     C_3   0.430454 0.396707 0.179975 -0.743364
H37   H     H_    0.382128 0.375515 0.200600 0.269827
H38   H     H_    0.440721 0.459551 0.182438 0.230139
H39   H     H_    0.404094 0.347765 0.111690 0.244695
H40   H     H_    0.546952 0.464590 0.304772 0.202905
H41   H     H_    0.561757 0.426285 0.214996 0.195250
C67   C     C_3   0.477452 0.221741 0.389280 -0.350913
C68   C     C_3   0.560860 0.245066 0.464929 -0.758000
H42   H     H_    0.586693 0.202290 0.443010 0.241765
H43   H     H_    0.610826 0.313491 0.493717 0.258723
H44   H     H_    0.547666 0.236568 0.516111 0.249422
H45   H     H_    0.447236 0.257518 0.414691 0.202669
H46   H     H_    0.429665 0.152284 0.360419 0.207284
C69   C     C_1   0.498437 0.102598 0.265719 0.251891
N3    N     N_1   0.500200 0.044079 0.272929 -0.272833
C70   C     C_1   0.392444 0.155059 0.611340 0.201895
N4    N     N_1   0.405191 0.177385 0.563771 -0.289795
C71   C     C_3   0.536186 0.217611 0.779367 -0.396834
C72   C     C_3   0.606850 0.242482 0.867435 -0.836636
H47   H     H_    0.597791 0.278353 0.920912 0.257685
H48   H     H_    0.606959 0.183689 0.868773 0.255337
H49   H     H_    0.670755 0.285759 0.878265 0.246073
H50   H     H_    0.552375 0.188600 0.729271 0.215067
H51   H     H_    0.538664 0.278237 0.780942 0.206341
C73   C     C_1   0.203833 0.940379 0.856504 0.282508
N5    N     N_1   0.182523 0.912996 0.897649 -0.269362
C74   C     C_1   0.099526 0.110235 0.338593 0.269689
N6    N     N_1   0.037370 0.055707 0.273905 -0.268087
C75   C     C_1   0.235816 0.231943 0.335782 0.257630
N7    N     N_1   0.230539 0.224540 0.269998 -0.268315

loop_
_geom_bond_atom_site_label_1
_geom_bond_atom_site_label_2
_ccdc_geom_bond_type
C55   H21   S    
Cu3   Cu4   S    
C55   C56   S    
C59   H31   S    
C11   C13   A    
C54   H12   S    
C21   C59   S    
C49   C50   A    
C66   H39   S    
C65   C66   S    
C54   H14   S    
C70   N4    T    
C7    C8    A    
Cu1   Cu2   S    
C60   H27   S    
C22   C35   S    
C71   H51   S    
C36   C37   A    
C36   C62   S    
Cu2   O21   S    
C68   H43   S    
C38   C39   A    
C14   H2    S    
C35   O17   A    
Cu1   O1    S    
C16   C30   S    
C15   C16   A    
C57   C58   S    
C56   H19   S    
C18   C19   A    
C23   C26   S    
C57   H26   S    
C43   C65   S    
C34   O22   A    
C3    C12   S    
C9    C32   S    
Cu3   O5    S    
C50   C71   S    
C6    C28   S    
C69   N3    T    
C60   H28   S    
C8    C9    A    
C40   H9    S    
C37   H7    S    
Cu1   O22   S    
C63   H34   S    
C71   C72   S    
Cu5   O14   S    
C24   C25   A    
C42   C64   S    
C45   C49   A    
C9    C10   A    
Cu3   O3    S    
Cu3   O24   S    
C63   H32   S    
C65   H40   S    
Cu4   O6    S    
C21   C22   A    
C30   O8    A    
Cu5   O11   S    
C36   C41   A    
C28   O3    A    
C28   O4    A    
Cu6   O17   S    
C44   C46   A    
C17   C18   A    
C29   O5    A    
C2    C45   A    
C47   C69   S    
C12   O19   A    
C29   C48   S    
C51   C52   A    
C67   C68   S    
C68   H44   S    
C67   H46   S    
C39   C40   A    
C16   C17   A    
C66   H38   S    
C7    C74   S    
C25   C26   A    
Cu5   O9    S    
Cu4   O8    S    
C57   H25   S    
C43   C44   A    
Cu2   O23   S    
C37   C38   A    
Cu6   O15   S    
C32   O11   A    
C30   O7    A    
C27   C41   S    
C47   C48   A    
C72   H49   S    
C53   H16   S    
Cu4   O2    S    
C23   O20   A    
C50   C51   A    
C23   O21   A    
C62   H36   S    
C53   C54   S    
Cu1   O18   S    
C42   C48   A    
C71   H50   S    
C15   C55   S    
C56   H18   S    
C33   O14   A    
C2    C52   A    
Cu6   O10   S    
Cu3   O7    S    
C11   C53   S    
C40   C41   A    
C72   H48   S    
C64   N2    T    
C65   H41   S    
C24   H5    S    
Cu1   O20   S    
C73   N5    T    
C39   H8    S    
C22   C24   A    
C58   H24   S    
C1    C13   S    
C42   C43   A    
C3    C4    A    
C5    C73   S    
C27   O2    A    
C31   O9    A    
C46   C67   S    
C75   N7    T    
C25   C61   S    
C55   H20   S    
C46   C47   A    
Cu4   O4    S    
C12   O18   A    
C33   C44   S    
C14   C19   A    
C4    C5    A    
C19   C34   S    
C67   H45   S    
C54   H13   S    
C18   H3    S    
C31   O10   A    
C66   H37   S    
C29   O6    A    
C32   O13   A    
C45   H6    S    
C1    O1    A    
C60   H29   S    
C49   C70   S    
C74   N6    T    
C31   C38   S    
Cu6   O13   S    
C2    C3    A    
C8    C75   S    
C68   H42   S    
Cu2   O19   S    
C35   O16   A    
Cu5   Cu6   S    
C5    C6    A    
C20   C26   A    
C53   H15   S    
C58   H23   S    
C4    H1    S    
Cu5   O16   S    
C62   H35   S    
C51   H10   S    
C20   H4    S    
C56   H17   S    
C33   O15   A    
C34   O23   A    
C27   O24   A    
C10   C11   A    
C10   H11   S    
C7    C13   A    
C20   C21   A    
C59   H30   S    
C17   C57   S    
C63   H33   S    
C14   C15   A    
C72   H47   S    
C6    C52   A    
C61   N1    T    
C58   H22   S    
C1    O12   A    
Cu2   O12   S    
C59   C60   S    
C62   C63   S    
