data_mof_unit_27613.cif
_audit_creation_date              2012-12-10T17:22:29-0500
_audit_creation_method            fapswitch 2.2
_symmetry_space_group_name_H-M    P1
_symmetry_Int_Tables_number       1
_space_group_crystal_system       triclinic
_cell_length_a                    18.702037
_cell_length_b                    19.038265
_cell_length_c                    18.82027
_cell_angle_alpha                 109.771672
_cell_angle_beta                  109.054586
_cell_angle_gamma                 109.497409
_cell_volume                      5164.02895657

loop_
_atom_site_label
_atom_site_type_symbol
_atom_type_description
_atom_site_fract_x
_atom_site_fract_y
_atom_site_fract_z
_atom_type_partial_charge
C1    C     C_R   0.377264 0.380010 0.497036 0.852718
C2    C     C_R   0.327663 0.317187 0.576972 0.017077
C3    C     C_R   0.187283 0.187941 0.502686 -0.163311
C4    C     C_R   0.616894 0.496463 0.620650 0.897966
C5    C     C_R   0.178730 0.174711 0.420407 0.040397
C6    C     C_R   0.235671 0.241449 0.415782 0.036599
C7    C     C_R   0.310889 0.312863 0.495984 -0.167933
C8    C     C_R   0.113760 0.095145 0.341955 -0.184308
C9    C     C_R   0.101264 0.083014 0.260851 0.116376
C10   C     C_R   0.150045 0.151551 0.255605 -0.130493
C11   C     C_R   0.214722 0.230442 0.330150 0.076986
C12   C     C_3   0.809011 0.506391 0.815177 0.082410
C13   C     C_R   0.225957 0.481779 0.385592 -0.187942
C14   C     C_R   0.155072 0.478070 0.395336 -0.222513
C15   C     C_R   0.097624 0.494493 0.344952 0.181379
C16   C     C_R   0.619918 0.619568 0.498510 0.943469
C17   C     C_R   0.109583 0.511249 0.281333 0.100771
C18   C     C_R   0.176918 0.504288 0.262280 -0.000212
C19   C     C_R   0.239602 0.496055 0.320430 0.051692
C20   C     C_R   0.184003 0.503046 0.188176 -0.198802
C21   C     C_R   0.253206 0.497467 0.175370 0.040592
C22   C     C_R   0.324298 0.507166 0.242640 0.067780
C23   C     C_3   0.850894 0.563047 0.779416 -0.097387
C24   C     C_R   0.314819 0.502490 0.313245 -0.189620
C25   C     C_R   0.252518 0.481561 0.095521 -0.153775
C26   C     C_R   0.323941 0.485511 0.086178 -0.173403
C27   C     C_R   0.398676 0.507260 0.156110 -0.189981
C28   C     C_R   0.381445 0.501898 0.379298 0.924606
C29   C     C_R   0.400850 0.519477 0.234580 0.111119
C30   C     C_R   0.608483 0.773463 0.504128 0.114211
C31   C     C_R   0.618621 0.856810 0.536067 0.120083
C32   C     C_R   0.697221 0.926781 0.563319 -0.184519
C33   C     C_R   0.762152 0.913502 0.552350 -0.195388
C34   C     C_3   0.755323 0.539620 0.850432 -0.072712
C35   C     C_R   0.753207 0.830490 0.520248 0.024974
C36   C     C_R   0.680901 0.761434 0.506077 0.046201
C37   C     C_R   0.813126 0.814748 0.497982 -0.156253
C38   C     C_R   0.804996 0.732807 0.464845 0.052285
C39   C     C_R   0.746686 0.668291 0.470545 -0.007229
C40   C     C_3   0.662513 0.401558 0.669463 0.194973
C41   C     C_R   0.683668 0.683610 0.492326 -0.213694
C42   C     C_R   0.856091 0.715363 0.427580 -0.194837
C43   C     C_R   0.849642 0.635465 0.395218 -0.199345
C44   C     C_R   0.800785 0.573910 0.409034 0.167849
C45   C     C_R   0.410792 0.377325 0.653004 -0.145170
C46   C     C_R   0.755362 0.592296 0.452746 0.102503
C47   C     C_R   0.999980 0.380250 0.879331 0.926038
C48   C     C_R   0.876739 0.504273 0.881219 0.873884
C49   C     C_R   0.995959 0.619666 0.116179 0.866272
C50   C     C_R   0.117822 0.502373 0.120362 0.871151
C51   C     C_R   0.002619 0.881992 0.380865 0.846450
C52   C     C_3   0.743794 0.410821 0.738956 -0.558669
C53   C     C_R   0.120319 0.121848 0.502415 0.839768
C54   C     C_R   0.999219 0.119491 0.618973 0.840962
C55   C     C_R   0.880210 0.882403 0.501427 0.853184
C56   C     C_R   0.425382 0.388359 0.734251 0.114146
C57   C     C_R   0.982659 0.381679 0.715564 0.058433
C58   C     C_R   0.000784 0.395675 0.653027 0.111279
C59   C     C_R   0.022925 0.342842 0.604188 0.124351
C60   C     C_R   0.021463 0.273607 0.613947 -0.200766
C61   C     C_R   0.006474 0.259713 0.678604 0.010768
C62   C     C_R   0.996316 0.319632 0.736824 0.013977
C63   C     C_R   0.998516 0.185591 0.684114 -0.129542
C64   C     C_3   0.776841 0.547710 0.696583 0.185038
C65   C     C_R   0.988540 0.173515 0.750767 0.013659
C66   C     C_R   0.000904 0.242504 0.821504 0.055887
C67   C     C_R   0.356604 0.341204 0.741693 -0.165746
C68   C     C_R   0.999883 0.313991 0.812139 -0.181042
C69   C     C_R   0.967758 0.093758 0.748351 -0.258288
C70   C     C_R   0.967465 0.084177 0.818391 0.158995
C71   C     C_R   0.993595 0.155987 0.894655 0.101515
C72   C     C_R   0.013485 0.236089 0.898075 0.031131
C73   C     C_R   0.159341 0.752044 0.269774 -0.192155
C74   C     C_R   0.240548 0.818691 0.339887 0.123396
C75   C     C_R   0.245896 0.891405 0.396385 -0.130613
C76   C     C_3   0.690832 0.545082 0.778791 -0.499694
C77   C     C_R   0.171248 0.897111 0.386804 0.079048
C78   C     C_R   0.274859 0.280087 0.668735 0.095925
C79   C     C_R   0.085117 0.823968 0.321178 0.036985
C80   C     C_R   0.080815 0.753477 0.258433 0.031834
C81   C     C_R   0.003975 0.816384 0.315226 -0.180160
C82   C     C_R   0.921982 0.742135 0.247741 0.045679
C83   C     C_R   0.919210 0.679589 0.179367 0.058091
C84   C     C_R   0.998531 0.685460 0.185511 -0.154721
C85   C     C_R   0.842005 0.728236 0.247139 -0.247521
C86   C     C_R   0.761303 0.658265 0.177427 0.161071
C87   C     C_R   0.758448 0.601029 0.105407 0.142376
C88   C     C_3   0.685127 0.496660 0.688839 0.113214
C89   C     C_R   0.261153 0.260862 0.582615 0.037260
C90   C     C_R   0.836652 0.611876 0.106530 -0.246106
H1    H     H_    0.147193 0.465835 0.445261 0.144260
H2    H     H_    0.652128 0.293126 0.579316 0.169420
H3    H     H_    0.770342 0.628723 0.960620 0.181554
H4    H     H_    0.828992 0.674087 0.923250 0.218229
H5    H     H_    0.845922 0.662225 0.700303 0.182060
H6    H     H_    0.791906 0.671995 0.755685 0.206159
H7    H     H_    0.951565 0.683683 0.826099 0.171184
H8    H     H_    0.946032 0.667907 0.906167 0.231055
H9    H     H_    0.136513 0.144033 0.192082 0.152398
H10   H     H_    0.466332 0.415955 0.650594 0.165321
H11   H     H_    0.511598 0.446255 0.863801 0.180922
H12   H     H_    0.721701 0.367008 0.763603 0.192386
H13   H     H_    0.517918 0.511882 0.822108 0.178656
H14   H     H_    0.365659 0.353704 0.805535 0.141405
H15   H     H_    0.207478 0.199263 0.700047 0.235282
H16   H     H_    0.147798 0.231657 0.640098 0.176115
H17   H     H_    0.071468 0.040092 0.341135 0.151673
H18   H     H_    0.068340 0.977552 0.154736 0.182485
H19   H     H_    0.002357 0.957613 0.196481 0.186151
H20   H     H_    0.598344 0.381228 0.739940 0.199647
H21   H     H_    0.562053 0.293524 0.648751 0.182861
H22   H     H_    0.300837 0.296474 0.302202 0.234153
H23   H     H_    0.706154 0.991155 0.587741 0.144443
H24   H     H_    0.267576 0.356405 0.362130 0.173605
H25   H     H_    0.455877 0.514889 0.149622 0.144004
H26   H     H_    0.268852 0.472454 0.430942 0.163259
H27   H     H_    0.030871 0.489363 0.412665 0.175965
H28   H     H_    0.969132 0.446275 0.305373 0.171003
H29   H     H_    0.997043 0.494656 0.195871 0.232222
H30   H     H_    0.091239 0.586991 0.230484 0.167457
H31   H     H_    0.196350 0.464088 0.038091 0.173168
H32   H     H_    0.322074 0.474004 0.025010 0.148500
H33   H     H_    0.503338 0.504557 0.287392 0.207251
H34   H     H_    0.778535 0.387662 0.708046 0.175448
H35   H     H_    0.528567 0.607223 0.316617 0.175557
H36   H     H_    0.843595 0.493031 0.359211 0.179441
H37   H     H_    0.739788 0.444586 0.336984 0.171989
H38   H     H_    0.483123 0.701999 0.406504 0.168706
H39   H     H_    0.496693 0.709788 0.502574 0.233287
H40   H     H_    0.568396 0.934498 0.573047 0.183517
H41   H     H_    0.502094 0.846649 0.473987 0.177482
H42   H     H_    0.818551 0.968975 0.567459 0.145885
H43   H     H_    0.901389 0.763065 0.422029 0.155688
H44   H     H_    0.887659 0.623829 0.364564 0.158156
H45   H     H_    0.031745 0.231105 0.568815 0.174554
H46   H     H_    0.683880 0.481358 0.448036 0.233183
H47   H     H_    0.731018 0.575284 0.545558 0.223250
H48   H     H_    0.958236 0.163206 0.986917 0.185067
H49   H     H_    0.064071 0.188254 0.020127 0.177133
H50   H     H_    0.900503 0.388089 0.764519 0.180463
H51   H     H_    0.984624 0.485663 0.793112 0.231879
H52   H     H_    0.033976 0.520628 0.693859 0.180456
H53   H     H_    0.928532 0.448582 0.615205 0.195564
H54   H     H_    0.094429 0.416980 0.570465 0.193558
H55   H     H_    0.987283 0.351105 0.494883 0.198591
H56   H     H_    0.840151 0.770322 0.300803 0.165404
H57   H     H_    0.951339 0.037634 0.691916 0.153069
H58   H     H_    0.001522 0.006504 0.854087 0.189874
H59   H     H_    0.920279 0.953849 0.751067 0.179879
H60   H     H_    0.013228 0.301040 0.007692 0.218167
H61   H     H_    0.112618 0.318183 0.021410 0.171937
H62   H     H_    0.644825 0.557848 0.001732 0.167255
H63   H     H_    0.684344 0.490270 0.986197 0.171151
H64   H     H_    0.159870 0.699051 0.225557 0.152303
H65   H     H_    0.344888 0.814578 0.410087 0.179438
H66   H     H_    0.305010 0.757804 0.302809 0.184796
H67   H     H_    0.831047 0.566804 0.048875 0.177199
H68   H     H_    0.309742 0.946043 0.447373 0.149540
H69   H     H_    0.200118 0.991990 0.500670 0.236902
H70   H     H_    0.140415 0.992703 0.408303 0.177040
H71   H     H_    0.789823 0.447031 0.622034 0.195012
H72   H     H_    0.837189 0.536628 0.622082 0.182322
H73   H     H_    0.648030 0.659426 0.134950 0.174113
H74   H     H_    0.694972 0.687691 0.240258 0.180436
H75   H     H_    0.893197 0.540956 0.760515 0.132203
H76   H     H_    0.625792 0.517168 0.773291 0.189024
H77   H     H_    0.717254 0.491178 0.863236 0.153663
H78   H     H_    0.708900 0.612919 0.798070 0.193529
H79   H     H_    0.580129 0.319001 0.535934 0.218568
N1    N     N_3   0.645493 0.346248 0.581839 -0.436811
N2    N     N_3   0.027983 0.498148 0.360063 -0.445844
N3    N     N_3   0.058654 0.545227 0.246940 -0.435493
N4    N     N_3   0.482989 0.549302 0.305946 -0.432265
N5    N     N_3   0.802755 0.494700 0.385956 -0.450313
N6    N     N_3   0.522242 0.701506 0.460489 -0.433190
N7    N     N_3   0.547251 0.868916 0.537886 -0.478733
N8    N     N_3   0.737764 0.542957 0.493678 -0.432834
N9    N     N_3   0.999957 0.146632 0.968680 -0.451691
N10   N     N_3   0.938168 0.422090 0.744800 -0.504080
N11   N     N_3   0.992887 0.461459 0.635893 -0.479590
N12   N     N_3   0.809686 0.621740 0.933166 -0.481127
N13   N     N_3   0.041419 0.354983 0.539758 -0.459507
N14   N     N_3   0.944327 0.002275 0.814086 -0.429864
N15   N     N_3   0.053930 0.311158 0.980850 -0.453952
N16   N     N_3   0.675660 0.531088 0.031888 -0.451448
N17   N     N_3   0.319052 0.815378 0.352203 -0.467117
N18   N     N_3   0.188993 0.981804 0.439044 -0.456588
N19   N     N_3   0.780778 0.497598 0.619930 -0.431962
N20   N     N_3   0.681676 0.644908 0.179098 -0.448977
N21   N     N_3   0.788311 0.630007 0.700218 -0.472523
N22   N     N_3   0.907592 0.655823 0.844430 -0.473120
N23   N     N_3   0.509559 0.451001 0.809520 -0.501508
N24   N     N_3   0.207362 0.249073 0.688375 -0.455095
N25   N     N_3   0.035973 0.002391 0.182486 -0.455174
N26   N     N_3   0.584147 0.359591 0.675583 -0.490263
N27   N     N_3   0.249925 0.297726 0.313110 -0.459692
O1    O     O_R   0.408690 0.356690 0.448570 -0.634445
O2    O     O_R   0.052500 0.908420 0.460860 -0.626249
O3    O     O_R   0.039610 0.091640 0.448030 -0.621978
O4    O     O_R   0.408090 0.460090 0.551440 -0.632485
O5    O     O_R   0.143600 0.091610 0.551990 -0.644495
O6    O     O_R   0.947500 0.091600 0.539170 -0.625281
O7    O     O_R   0.051490 0.091570 0.643140 -0.633738
O8    O     O_R   0.856400 0.908420 0.448030 -0.623663
O9    O     O_R   0.960390 0.908390 0.552000 -0.619785
O10   O     O_R   0.592400 0.448300 0.540670 -0.618409
O11   O     O_R   0.591800 0.551700 0.643540 -0.639161
O12   O     O_R   0.049540 0.460090 0.906170 -0.635254
O13   O     O_R   0.591910 0.539910 0.448560 -0.649539
O14   O     O_R   0.591310 0.643310 0.551430 -0.599402
O15   O     O_R   0.408200 0.448300 0.356460 -0.628269
O16   O     O_R   0.407600 0.551700 0.459330 -0.638209
O17   O     O_R   0.946100 0.356720 0.906240 -0.608813
O18   O     O_R   0.853530 0.448360 0.905250 -0.637589
O19   O     O_R   0.956970 0.551730 0.905180 -0.657652
O20   O     O_R   0.945170 0.540000 0.088470 -0.643269
O21   O     O_R   0.048600 0.643370 0.088400 -0.623599
O22   O     O_R   0.037740 0.448360 0.089460 -0.638915
O23   O     O_R   0.141170 0.551730 0.089390 -0.627739
O24   O     O_R   0.948510 0.908450 0.356890 -0.629418
Zn1   Zn    Zn3+2 0.500400 0.430960 0.431310 0.907134
Zn2   Zn    Zn3+2 0.499600 0.569040 0.568690 0.939565
Zn3   Zn    Zn3+2 0.928290 0.431030 0.997370 0.912342
Zn4   Zn    Zn3+2 0.066410 0.569060 0.997270 0.919771
Zn5   Zn    Zn3+2 0.930570 0.000030 0.430590 0.943049
Zn6   Zn    Zn3+2 0.069430 0.999990 0.569430 0.915394

loop_
_geom_bond_atom_site_label_1
_geom_bond_atom_site_label_2
_ccdc_geom_bond_type
C66   C68   A    
C63   C65   A    
O14   Zn2   S    
C22   C29   A    
C27   C29   A    
O13   Zn1   S    
H79   N1    S    
C47   C68   S    
C1    O1    A    
C35   C36   A    
C13   H26   S    
C80   C84   A    
H11   N23   S    
H35   N4    S    
O19   Zn4   S    
C40   N1    S    
C81   C82   A    
C17   N3    S    
H61   N15   S    
C39   C41   A    
C56   C67   A    
O16   Zn2   S    
C85   C86   A    
C28   O15   A    
H15   N24   S    
C12   C23   S    
C52   H12   S    
C26   C27   A    
H24   N27   S    
C47   O12   A    
C42   H43   S    
C71   N9    S    
C56   N23   S    
C35   C37   A    
C44   N5    S    
C38   C42   A    
H71   N19   S    
O1    Zn1   S    
C50   O23   A    
C30   C31   A    
C31   C32   A    
H74   N20   S    
C54   C63   S    
O10   Zn1   S    
H69   N18   S    
C54   O7    A    
O15   Zn1   S    
C47   O17   A    
H41   N7    S    
H50   N10   S    
C34   N12   S    
C18   C19   A    
C73   C74   A    
H6    N21   S    
C61   C63   A    
H22   N27   S    
C20   C50   S    
H5    N21   S    
C12   C52   S    
O23   Zn4   S    
C23   H75   S    
H3    N12   S    
H52   N11   S    
C2    C7    A    
C45   C56   A    
H2    N1    S    
C8    C9    A    
H38   N6    S    
C73   H64   S    
C76   H76   S    
C70   C71   A    
H4    N12   S    
C32   H23   S    
O6    Zn5   S    
C9    C10   A    
C51   C81   S    
C61   C62   A    
H36   N5    S    
C12   C48   S    
H29   N3    S    
O21   Zn4   S    
C48   O19   A    
C59   C60   A    
C78   C89   A    
C1    C7    S    
C13   C14   A    
C3    C53   S    
C43   H44   S    
C46   N8    S    
C36   C41   A    
C10   H9    S    
C67   C78   A    
H8    N22   S    
C23   N22   S    
H33   N4    S    
C44   C46   A    
C67   H14   S    
H16   N24   S    
H54   N13   S    
C31   N7    S    
C77   C79   A    
C2    C45   A    
O5    Zn6   S    
C55   O9    A    
C66   C72   A    
C74   C75   A    
C13   C19   A    
C53   O3    A    
O22   Zn3   S    
C38   C39   A    
C85   H56   S    
C72   N15   S    
C87   N16   S    
C21   C25   A    
O18   Zn3   S    
C6    C11   A    
C79   C81   A    
C9    N25   S    
H30   N3    S    
H60   N15   S    
C57   C62   A    
C25   C26   A    
C54   O6    A    
H46   N8    S    
H65   N17   S    
C53   O5    A    
C49   O21   A    
C60   C61   A    
C78   N24   S    
C2    C89   A    
C43   C44   A    
C37   C38   A    
C51   O2    A    
O3    Zn5   S    
H27   N2    S    
C83   C84   A    
C49   O20   A    
C17   C18   A    
C15   N2    S    
O9    Zn6   S    
H73   N20   S    
H53   N11   S    
C11   N27   S    
C75   C77   A    
C60   H45   S    
C64   N19   S    
C39   C46   A    
H19   N25   S    
C75   H68   S    
C23   C64   S    
C82   C83   A    
C69   H57   S    
C22   C24   A    
C1    O4    A    
O12   Zn4   S    
C42   C43   A    
C12   C34   S    
C34   H77   S    
H48   N9    S    
C8    H17   S    
C30   N6    S    
C86   C87   A    
C4    O11   A    
C57   N10   S    
C49   C84   S    
C15   C17   A    
C83   C90   A    
C76   C88   S    
C33   H42   S    
C16   O13   A    
C86   N20   S    
H51   N10   S    
C48   O18   A    
C59   N13   S    
C24   C28   S    
C29   N4    S    
H62   N16   S    
C3    C5    A    
C45   H10   S    
C5    C8    A    
C64   N21   S    
C4    O10   A    
C6    C7    A    
C4    C88   S    
H66   N17   S    
C51   O24   A    
C28   O16   A    
C82   C85   A    
C30   C36   A    
C3    C89   A    
H18   N25   S    
H40   N7    S    
C32   C33   A    
C40   C88   S    
C90   H67   S    
C16   O14   A    
C19   C24   A    
C58   C59   A    
O20   Zn3   S    
O4    Zn2   S    
C71   C72   A    
H49   N9    S    
C40   C52   S    
H72   N19   S    
C52   H34   S    
C57   C58   A    
C5    C6    A    
H63   N16   S    
H28   N2    S    
H37   N5    S    
H58   N14   S    
C65   C69   A    
C55   O8    A    
H55   N13   S    
C33   C35   A    
C73   C80   A    
C50   O22   A    
O24   Zn5   S    
C76   H78   S    
C18   C20   A    
C62   C68   A    
C69   C70   A    
C14   H1    S    
C77   N18   S    
C10   C11   A    
C79   C80   A    
C37   C55   S    
O2    Zn6   S    
C70   N14   S    
H7    N22   S    
H47   N8    S    
C20   C21   A    
O11   Zn2   S    
C65   C66   A    
C87   C90   A    
H21   N26   S    
H20   N26   S    
H59   N14   S    
C14   C15   A    
H39   N6    S    
C58   N11   S    
H13   N23   S    
C26   H32   S    
H70   N18   S    
O8    Zn5   S    
C21   C22   A    
C25   H31   S    
C16   C41   S    
C64   C88   S    
O7    Zn6   S    
O17   Zn3   S    
C34   C76   S    
C74   N17   S    
C40   N26   S    
C27   H25   S    
