data_mof_unit_47710.cif
_audit_creation_date              2012-12-10T18:07:31-0500
_audit_creation_method            fapswitch 2.2
_symmetry_space_group_name_H-M    P1
_symmetry_Int_Tables_number       1
_space_group_crystal_system       triclinic
_cell_length_a                    11.524433
_cell_length_b                    12.661905
_cell_length_c                    13.094525
_cell_angle_alpha                 81.964118
_cell_angle_beta                  91.680952
_cell_angle_gamma                 102.012158
_cell_volume                      1850.57893143

loop_
_atom_site_label
_atom_site_type_symbol
_atom_type_description
_atom_site_fract_x
_atom_site_fract_y
_atom_site_fract_z
_atom_type_partial_charge
C1    C     C_R   0.489101 0.438788 0.691423 0.868721
C2    C     C_R   0.544365 0.598483 0.200554 -0.096489
C3    C     C_R   0.385557 0.310719 0.834228 -0.193316
C4    C     C_R   0.352370 0.288348 0.937128 -0.150805
C5    C     C_R   0.404435 0.358649 0.005972 -0.163124
C6    C     C_R   0.496491 0.450115 0.973639 0.093069
C7    C     C_R   0.543640 0.459857 0.874213 0.014630
C8    C     C_R   0.544123 0.530735 0.037008 0.020456
C9    C     C_R   0.647221 0.612576 0.006141 0.078659
C10   C     C_R   0.706444 0.605870 0.914693 0.033149
C11   C     C_R   0.656241 0.527320 0.851358 -0.055505
C12   C     C_R   0.717643 0.501944 0.496643 0.918792
C13   C     C_R   0.490767 0.531049 0.131075 -0.285759
C14   C     C_R   0.639844 0.684427 0.169840 0.081773
C15   C     C_R   0.477915 0.398856 0.801543 -0.098922
C16   C     C_R   0.317512 0.090103 0.354569 0.016206
C17   C     C_R   0.628976 0.794849 0.638310 0.032801
C18   C     C_R   0.638656 0.891060 0.680065 0.041752
C19   C     C_R   0.580168 0.970467 0.631605 -0.206139
C20   C     C_R   0.517801 0.956264 0.538026 0.018572
C21   C     C_R   0.501729 0.853256 0.505205 0.183833
C22   C     C_R   0.465527 0.037895 0.479836 -0.052758
C23   C     C_R   0.515082 0.561233 0.308771 0.867789
C24   C     C_R   0.378136 0.009112 0.402980 0.088856
C25   C     C_R   0.357770 0.902019 0.376753 0.042543
C26   C     C_R   0.422989 0.828137 0.425056 -0.230722
C27   C     C_R   0.502230 0.148827 0.491281 0.166608
C28   C     C_R   0.348958 0.195101 0.379953 -0.025498
C29   C     C_R   0.282429 0.499535 0.499006 0.888291
C30   C     C_1   0.838865 0.504499 0.492445 -0.167335
C31   C     C_1   0.941120 0.503968 0.491142 0.005725
C32   C     C_1   0.059554 0.501485 0.492492 -0.002485
C33   C     C_1   0.161585 0.499583 0.495265 -0.188727
C34   C     C_R   0.690011 0.693899 0.071714 0.070590
H1    H     H_    0.670723 0.730866 0.676065 0.144233
H2    H     H_    0.579737 0.039354 0.671513 0.166208
H3    H     H_    0.407277 0.749653 0.400068 0.210664
H4    H     H_    0.409878 0.474657 0.156012 0.150929
H5    H     H_    0.335975 0.261922 0.779533 0.156517
H6    H     H_    0.372690 0.337181 0.084236 0.131715
H7    H     H_    0.281838 0.219484 0.962690 0.143289
H8    H     H_    0.302250 0.257126 0.345600 0.154651
N1    N     N_R   0.440320 0.222190 0.444690 -0.132557
N2    N     N_R   0.559060 0.776980 0.554780 -0.142895
O1    O     O_R   0.471500 0.366730 0.627160 -0.625252
O2    O     O_R   0.509620 0.544830 0.662520 -0.604474
O3    O     O_R   0.646490 0.410960 0.482310 -0.633369
O4    O     O_R   0.684610 0.589050 0.517670 -0.604452
O5    O     O_R   0.490380 0.455170 0.337480 -0.613150
O6    O     O_R   0.528500 0.633270 0.372840 -0.614058
O7    O     O_R   0.315390 0.410950 0.482330 -0.612139
O8    O     O_R   0.353510 0.589040 0.517690 -0.622972
Zn1   Zn    Zn3+2 0.474550 0.381080 0.476390 0.924244
Zn2   Zn    Zn3+2 0.525450 0.618920 0.523610 0.942770
N3    N     N_3   0.690463 0.758439 0.240590 -0.425174
H9    H     H_    0.686387 0.837573 0.207217 0.200240
H10   H     H_    0.779608 0.754109 0.252198 0.191240
N4    N     N_3   0.274323 0.866968 0.298900 -0.487684
H11   H     H_    0.319817 0.842510 0.241384 0.187142
H12   H     H_    0.212552 0.799102 0.332178 0.190338
N5    N     N_3   0.223553 0.070185 0.281191 -0.473735
H13   H     H_    0.256556 0.049377 0.214938 0.212791
H14   H     H_    0.155279 0.008074 0.314260 0.217043
N6    N     N_3   0.612304 0.186708 0.540578 -0.472545
H15   H     H_    0.673077 0.229987 0.484425 0.219614
H16   H     H_    0.598905 0.235385 0.595351 0.228720
N7    N     N_3   0.703961 0.905867 0.773292 -0.485496
H17   H     H_    0.646122 0.918616 0.828231 0.188005
H18   H     H_    0.769804 0.976648 0.758736 0.194820
N8    N     N_3   0.820788 0.673680 0.888733 -0.481103
H19   H     H_    0.883536 0.624510 0.890667 0.198215
H20   H     H_    0.817424 0.714727 0.814042 0.201828
N9    N     N_3   0.785350 0.785350 0.043511 -0.481900
H21   H     H_    0.865367 0.758889 0.043656 0.212099
H22   H     H_    0.768082 0.826043 0.971481 0.219882
C35   C     C_1   0.731767 0.500980 0.776600 0.136244
N10   N     N_1   0.794226 0.478663 0.719407 -0.225719

loop_
_geom_bond_atom_site_label_1
_geom_bond_atom_site_label_2
_ccdc_geom_bond_type
C16   C28   A    
C21   C26   A    
C8    C13   A    
N9    H21   S    
C19   C20   A    
C12   O4    A    
O4    Zn2   S    
O6    Zn2   S    
C19   H2    S    
C5    C6    A    
C1    O2    A    
C23   O5    A    
C4    H7    S    
N4    H12   S    
C29   C33   S    
C18   C19   A    
N5    H14   S    
C2    C13   A    
N1    Zn1   S    
C8    C9    A    
N8    H19   S    
C1    C15   S    
C9    C10   A    
O3    Zn1   S    
C7    C15   A    
C14   N3    S    
O1    Zn1   S    
C16   C24   A    
N9    H22   S    
C12   O3    A    
C25   C26   A    
O8    Zn2   S    
N7    H17   S    
C24   C25   A    
C27   N6    S    
C23   O6    A    
C6    C8    A    
N4    H11   S    
N7    H18   S    
N6    H16   S    
C7    C11   A    
C27   N1    A    
C21   N2    A    
C31   C32   S    
O2    Zn2   S    
N3    H9    S    
C17   C18   A    
C35   N10   T    
C13   H4    S    
C10   N8    S    
C20   C22   A    
C22   C27   A    
N3    H10   S    
C9    C34   A    
C22   C24   A    
C16   N5    S    
C3    C4    A    
C3    C15   A    
C29   O7    A    
C12   C30   S    
C4    C5    A    
C14   C34   A    
C26   H3    S    
C6    C7    A    
C28   N1    A    
C11   C35   S    
C32   C33   T    
C18   N7    S    
C17   N2    A    
N6    H15   S    
C1    O1    A    
C30   C31   T    
O5    Zn1   S    
C28   H8    S    
N5    H13   S    
C2    C14   A    
C10   C11   A    
C34   N9    S    
C3    H5    S    
N2    Zn2   S    
C20   C21   A    
C25   N4    S    
C5    H6    S    
C2    C23   S    
N8    H20   S    
C17   H1    S    
O7    Zn1   S    
C29   O8    A    
