data_mof_unit_5696.cif
_audit_creation_date              2012-12-11T16:37:15-0500
_audit_creation_method            fapswitch 2.2
_symmetry_space_group_name_H-M    P1
_symmetry_Int_Tables_number       1
_space_group_crystal_system       triclinic
_cell_length_a                    19.501196
_cell_length_b                    6.929739
_cell_length_c                    17.708113
_cell_angle_alpha                 90.015009
_cell_angle_beta                  109.065226
_cell_angle_gamma                 90.004327
_cell_volume                      2261.77761695

loop_
_atom_site_label
_atom_site_type_symbol
_atom_type_description
_atom_site_fract_x
_atom_site_fract_y
_atom_site_fract_z
_atom_type_partial_charge
O1    O     O_R   0.561710 0.369960 0.440200 -0.539229
O2    O     O_R   0.061710 0.630040 0.940200 -0.542861
O3    O     O_R   0.412630 0.033330 0.406330 -0.544975
O4    O     O_R   0.912630 0.966670 0.906330 -0.539507
O5    O     O_R   0.438290 0.869790 0.559800 -0.539959
O6    O     O_R   0.938290 0.130210 0.059800 -0.539519
C1    C     C_R   0.385440 0.202941 0.382469 0.686836
C2    C     C_R   0.886019 0.796888 0.881607 0.696265
O7    O     O_R   0.559570 0.039810 0.430640 -0.543849
O8    O     O_R   0.059570 0.960190 0.930640 -0.542684
O9    O     O_R   0.586280 0.876320 0.584290 -0.536669
O10   O     O_R   0.086280 0.123680 0.084290 -0.536719
C3    C     C_R   0.580778 0.209029 0.415249 0.685347
C4    C     C_R   0.081014 0.790975 0.915494 0.683900
O11   O     O_R   0.413720 0.363440 0.415710 -0.542542
O12   O     O_R   0.913720 0.636560 0.915710 -0.541479
O13   O     O_3   0.508590 0.205630 0.550380 -0.365970
O14   O     O_3   0.008590 0.794370 0.050380 -0.365584
V1    V     V_3+5 0.498410 0.928130 0.490650 1.385230
V2    V     V_3+5 0.998410 0.071870 0.990650 1.384750
O15   O     O_R   0.587370 0.546990 0.593670 -0.538153
O16   O     O_R   0.087370 0.453010 0.093670 -0.538503
C5    C     C_R   0.614630 0.716934 0.617669 0.710189
C6    C     C_R   0.114975 0.283165 0.117227 0.707863
O17   O     O_R   0.440430 0.540520 0.569360 -0.542352
O18   O     O_R   0.940430 0.459480 0.069360 -0.541654
C7    C     C_R   0.418835 0.709319 0.584391 0.685429
C8    C     C_R   0.918790 0.290707 0.084381 0.688261
V3    V     V_3+5 0.501590 0.428960 0.509350 1.395054
V4    V     V_3+5 0.001590 0.571040 0.009350 1.386871
O19   O     O_3   0.491410 0.701330 0.449620 -0.371595
O20   O     O_3   0.991410 0.298670 0.949620 -0.378772
C9    C     C_R   0.283549 0.901673 0.679266 -0.144996
C10   C     C_R   0.785063 0.096304 0.181088 -0.144906
H1    H     H_    0.253051 0.033461 0.676438 0.103200
H2    H     H_    0.756131 0.962523 0.180035 0.102346
C11   C     C_R   0.330598 0.890544 0.634295 -0.161579
C12   C     C_R   0.832272 0.107418 0.136302 -0.161563
H3    H     H_    0.335443 0.014751 0.599255 0.121156
H4    H     H_    0.838761 0.981271 0.103143 0.121511
C13   C     C_R   0.369716 0.720598 0.633267 -0.053387
C14   C     C_R   0.869513 0.279522 0.133148 -0.054574
C15   C     C_R   0.360942 0.562352 0.678902 -0.165297
C16   C     C_R   0.858582 0.440063 0.176434 -0.164761
H5    H     H_    0.390522 0.429584 0.679873 0.122878
H6    H     H_    0.886592 0.574668 0.175714 0.122727
C17   C     C_R   0.314739 0.574445 0.724974 -0.141235
C18   C     C_R   0.812092 0.428205 0.222203 -0.140708
H7    H     H_    0.311106 0.450989 0.760879 0.102151
H8    H     H_    0.806653 0.553694 0.256191 0.101273
C19   C     C_R   0.274996 0.744133 0.725666 0.089410
C20   C     C_R   0.774344 0.256221 0.225071 0.090320
C21   C     C_R   0.188111 0.592048 0.787670 -0.140520
C22   C     C_R   0.684596 0.405962 0.283709 -0.140696
H9    H     H_    0.194182 0.453974 0.762010 0.099090
H10   H     H_    0.688601 0.542148 0.255541 0.100985
C23   C     C_R   0.141926 0.603246 0.833650 -0.168422
C24   C     C_R   0.638265 0.394581 0.329567 -0.161784
H11   H     H_    0.115221 0.472900 0.843102 0.116952
H12   H     H_    0.608931 0.522783 0.336133 0.121924
C25   C     C_R   0.129803 0.780113 0.866192 -0.051349
C26   C     C_R   0.629203 0.219810 0.365580 -0.054559
C27   C     C_R   0.165725 0.945298 0.852170 -0.160485
C28   C     C_R   0.667760 0.056701 0.354631 -0.161122
H13   H     H_    0.158298 0.083574 0.876959 0.117975
H14   H     H_    0.662531 0.920156 0.382009 0.120649
C29   C     C_R   0.213032 0.933515 0.807414 -0.139704
C30   C     C_R   0.714954 0.068696 0.309755 -0.139862
C31   C     C_R   0.224844 0.756725 0.774144 0.091650
C32   C     C_R   0.724096 0.243518 0.273416 0.090010
C33   C     C_R   0.808677 0.639082 0.752410 0.118997
C34   C     C_R   0.307735 0.363313 0.255318 0.061825
C35   C     C_R   0.819784 0.785668 0.810226 -0.152382
C36   C     C_R   0.318914 0.214736 0.311804 -0.140772
C37   C     C_R   0.764235 0.924866 0.797039 -0.180436
C38   C     C_R   0.263599 0.074654 0.297395 -0.175114
H15   H     H_    0.770969 0.046778 0.837079 0.120075
H16   H     H_    0.270121 0.951953 0.336950 0.118896
C39   C     C_R   0.697280 0.901178 0.734908 -0.176698
C40   C     C_R   0.197057 0.098721 0.234597 -0.176478
H17   H     H_    0.655233 0.008284 0.727938 0.126673
H18   H     H_    0.154895 0.991683 0.227116 0.125932
C41   C     C_R   0.683443 0.736015 0.685144 -0.110251
C42   C     C_R   0.183833 0.263701 0.184611 -0.105968
C43   C     C_R   0.741956 0.612475 0.694071 0.068239
C44   C     C_R   0.242700 0.386921 0.194286 0.057354
C45   C     C_3   0.749531 0.398949 0.694301 -0.446479
C46   C     C_3   0.251611 0.600000 0.191745 -0.405398
C47   C     C_3   0.825745 0.427602 0.754765 0.117165
C48   C     C_3   0.324856 0.573888 0.258470 0.130524
H19   H     H_    0.748374 0.342392 0.635109 0.186462
H20   H     H_    0.255762 0.648239 0.133518 0.186442
H21   H     H_    0.835103 0.357041 0.813684 0.116702
H22   H     H_    0.329153 0.643063 0.316537 0.115696
H23   H     H_    0.711646 0.326826 0.720441 0.147086
H24   H     H_    0.210953 0.678332 0.211764 0.141639
N1    N     N_2   0.880448 0.383075 0.717902 -0.500834
H25   H     H_    0.881714 0.238814 0.704018 0.261624
C49   C     C_3   0.951971 0.463921 0.754627 -0.495465
H26   H     H_    0.985348 0.436966 0.715524 0.183118
H27   H     H_    0.978816 0.394132 0.812878 0.208810
H28   H     H_    0.949196 0.622292 0.762511 0.182990
N2    N     N_2   0.386340 0.610169 0.231395 -0.494318
H29   H     H_    0.431987 0.532103 0.262150 0.255693
C50   C     C_3   0.402299 0.811199 0.222941 -0.520286
H30   H     H_    0.442065 0.822252 0.190375 0.189970
H31   H     H_    0.426417 0.878027 0.282592 0.204288
H32   H     H_    0.352533 0.891237 0.188602 0.208326
H33   H     H_    0.241185 0.063125 0.800136 0.098253
H34   H     H_    0.745178 0.941036 0.304840 0.099986

loop_
_geom_bond_atom_site_label_1
_geom_bond_atom_site_label_2
_ccdc_geom_bond_type
C24   C26   A    
C39   C41   A    
C46   H24   S    
O11   V3    S    
C45   H19   S    
C35   C37   A    
O4    C2    A    
V1    O19   S    
C27   H13   S    
N1    H25   S    
C17   H7    S    
C50   H31   S    
O9    V1    S    
C37   C39   A    
C36   C38   A    
C28   C30   A    
C38   H16   S    
C12   C14   A    
O3    C1    A    
C22   C24   A    
C44   C46   S    
C23   H11   S    
C24   H12   S    
O13   V3    S    
C8    C14   S    
C25   C27   A    
O7    C3    A    
C26   C28   A    
O13   V1    S    
O5    C7    A    
O7    V1    S    
O6    C8    A    
C3    C26   S    
C46   H20   S    
O8    V2    S    
C33   C47   S    
O3    V1    S    
O14   V4    S    
V4    O20   S    
C10   H2    S    
C40   C42   A    
C18   H8    S    
C21   C31   A    
C2    O12   A    
C33   C43   A    
C11   C13   A    
C13   C15   A    
C14   C16   A    
N1    C49   S    
C16   H6    S    
C48   H22   S    
C1    C36   S    
C27   C29   A    
C21   H9    S    
O17   V3    S    
C50   H32   S    
C22   H10   S    
C43   C45   S    
C34   C36   A    
O8    C4    A    
C33   C35   A    
C21   C23   A    
C17   C19   A    
C1    O11   A    
C4    C25   S    
O15   V3    S    
C9    C11   A    
C47   N1    S    
C29   C31   A    
C28   H14   S    
C34   C48   S    
C7    C13   S    
C49   H26   S    
C22   C32   A    
O10   V2    S    
O1    V3    S    
N2    C50   S    
C30   H34   S    
C15   H5    S    
C5    C41   S    
C40   H18   S    
C49   H27   S    
C46   C48   S    
O18   V4    S    
O15   C5    A    
O16   C6    A    
C9    C19   A    
C39   H17   S    
V2    O20   S    
C45   H23   S    
O16   V4    S    
C41   C43   A    
C10   C12   A    
C10   C20   A    
C38   C40   A    
C42   C44   A    
C34   C44   A    
C23   C25   A    
O5    V1    S    
O17   C7    A    
O6    V2    S    
C50   H30   S    
O10   C6    A    
O18   C8    A    
O2    V4    S    
C45   C47   S    
C6    C42   S    
C11   H3    S    
C12   H4    S    
C29   H33   S    
C15   C17   A    
O9    C5    A    
C2    C35   S    
C9    H1    S    
O14   V2    S    
C47   H21   S    
O2    C4    A    
C48   N2    S    
C20   C32   S    
O4    V2    S    
C18   C20   A    
C49   H28   S    
O1    C3    A    
V3    O19   S    
C37   H15   S    
N2    H29   S    
C30   C32   A    
C19   C31   S    
O12   V4    S    
C16   C18   A    
