data_mof_unit_47171.cif
_audit_creation_date              2012-12-11T15:34:22-0500
_audit_creation_method            fapswitch 2.2
_symmetry_space_group_name_H-M    P1
_symmetry_Int_Tables_number       1
_space_group_crystal_system       triclinic
_cell_length_a                    15.050451
_cell_length_b                    15.057658
_cell_length_c                    34.919086
_cell_angle_alpha                 90.737324
_cell_angle_beta                  89.9972
_cell_angle_gamma                 60.013344
_cell_volume                      6853.47295666

loop_
_atom_site_label
_atom_site_type_symbol
_atom_type_description
_atom_site_fract_x
_atom_site_fract_y
_atom_site_fract_z
_atom_type_partial_charge
C1    C     C_R   0.303286 0.608013 0.556026 0.543068
C2    C     C_R   0.654140 0.655331 0.670152 -0.039210
C3    C     C_R   0.244915 0.665557 0.269594 -0.100135
C4    C     C_R   0.175921 0.651140 0.291880 0.021308
C5    C     C_R   0.100909 0.636142 0.274338 -0.095024
C6    C     C_R   0.093029 0.638432 0.234611 -0.086879
C7    C     C_R   0.161650 0.653507 0.211964 0.038691
C8    C     C_R   0.215331 0.556790 0.352492 -0.130121
C9    C     C_R   0.242727 0.548316 0.390826 -0.154582
C10   C     C_R   0.195445 0.728611 0.392682 0.250047
C11   C     C_R   0.172767 0.734619 0.353746 -0.038194
C12   C     C_R   0.185394 0.648333 0.333476 -0.025139
C13   C     C_R   0.562117 0.719968 0.651573 -0.060257
C14   C     C_R   0.239254 0.631887 0.410783 0.006339
C15   C     C_R   0.735549 0.026450 0.943638 0.546363
C16   C     C_R   0.744728 0.721696 0.945551 0.539216
C17   C     C_R   0.039491 0.733167 0.948559 0.572185
C18   C     C_R   0.722393 0.040191 0.052524 0.559739
C19   C     C_R   0.733308 0.734713 0.054756 0.546986
C20   C     C_R   0.029317 0.743842 0.057481 0.538558
C21   C     C_R   0.552048 0.709804 0.612325 0.207776
C22   C     C_R   0.672549 0.659481 0.789757 0.379240
C23   C     C_R   0.660997 0.659216 0.712186 0.334995
C24   C     C_R   0.766625 0.587932 0.851372 0.237591
C25   C     C_R   0.781098 0.604714 0.889873 -0.160426
C26   C     C_R   0.617950 0.764317 0.891161 0.225389
C27   C     C_R   0.605486 0.749489 0.852428 -0.093032
C28   C     C_R   0.680981 0.664285 0.831827 0.022165
C29   C     C_R   0.611618 0.589982 0.554860 0.555423
C30   C     C_R   0.711053 0.695354 0.909394 -0.025427
C31   C     C_R   0.719887 0.080500 0.907244 -0.003177
C32   C     C_R   0.622571 0.129716 0.890230 -0.080959
C33   C     C_R   0.610951 0.163286 0.852528 0.101667
C34   C     C_R   0.697532 0.147271 0.831467 0.008065
C35   C     C_R   0.793306 0.104809 0.849222 -0.144643
C36   C     C_R   0.804433 0.072084 0.886956 -0.130628
C37   C     C_R   0.695721 0.244526 0.772610 0.270296
C38   C     C_R   0.690847 0.251939 0.732710 -0.029546
C39   C     C_R   0.681922 0.179251 0.709858 -0.017469
C40   C     C_R   0.590145 0.300870 0.553758 0.572995
C41   C     C_R   0.679497 0.097285 0.727285 -0.123394
C42   C     C_R   0.684803 0.088565 0.766913 -0.118810
C43   C     C_R   0.691887 0.161859 0.789877 0.030296
C44   C     C_R   0.592647 0.182561 0.649190 -0.091282
C45   C     C_R   0.570140 0.209735 0.610515 0.249628
C46   C     C_R   0.708387 0.249260 0.609107 -0.164049
C47   C     C_R   0.729642 0.222411 0.647339 -0.133992
C48   C     C_R   0.669564 0.192594 0.668048 -0.001531
C49   C     C_R   0.625806 0.247872 0.590747 0.058342
C50   C     C_R   0.099308 0.692035 0.912584 0.018086
C51   C     C_R   0.298141 0.611108 0.446592 0.532776
C52   C     C_R   0.152871 0.737298 0.896202 0.293186
C53   C     C_R   0.187583 0.713586 0.857720 0.250568
C54   C     C_R   0.167742 0.644842 0.836259 -0.008380
C55   C     C_R   0.124728 0.592665 0.854210 -0.151750
C56   C     C_R   0.091017 0.615799 0.891982 -0.182763
C57   C     C_R   0.247358 0.547250 0.775617 -0.095665
C58   C     C_R   0.256711 0.543048 0.735381 0.265393
C59   C     C_R   0.192065 0.631256 0.713997 0.068337
C60   C     C_R   0.119767 0.721326 0.733088 -0.157102
C61   C     C_R   0.112396 0.724966 0.772831 -0.111538
C62   C     C_R   0.608366 0.589665 0.445389 0.527185
C63   C     C_R   0.176639 0.638445 0.794245 -0.018492
C64   C     C_R   0.214256 0.712242 0.655717 -0.120569
C65   C     C_R   0.238189 0.708521 0.616966 -0.108241
C66   C     C_R   0.235759 0.549497 0.609611 -0.115526
C67   C     C_R   0.211138 0.553670 0.648386 -0.057645
C68   C     C_R   0.204236 0.632954 0.672038 0.057958
C69   C     C_R   0.253196 0.624996 0.593855 0.013690
C70   C     C_R   0.691579 0.720389 0.090882 -0.008357
C71   C     C_R   0.607317 0.804344 0.108896 -0.108977
C72   C     C_R   0.581113 0.797837 0.147011 0.280545
C73   C     C_R   0.587662 0.303169 0.443618 0.544538
C74   C     C_R   0.639586 0.705839 0.166729 0.088010
C75   C     C_R   0.718072 0.619786 0.147811 -0.156732
C76   C     C_R   0.744098 0.626952 0.110172 -0.131129
C77   C     C_R   0.578599 0.650334 0.222422 -0.124122
C78   C     C_R   0.573043 0.638701 0.262086 0.249806
C79   C     C_R   0.616292 0.680215 0.287367 0.041804
C80   C     C_R   0.662841 0.733560 0.273055 -0.142965
C81   C     C_R   0.669882 0.743340 0.233702 0.120059
C82   C     C_R   0.627310 0.701730 0.208227 0.053536
C83   C     C_R   0.573371 0.741565 0.355298 -0.041960
C84   C     C_R   0.633350 0.627575 0.591328 0.013362
C85   C     C_R   0.574733 0.722032 0.394495 0.247862
C86   C     C_R   0.677303 0.538965 0.379962 -0.147208
C87   C     C_R   0.675223 0.559630 0.341262 -0.086827
C88   C     C_R   0.621111 0.660583 0.328628 0.015598
C89   C     C_R   0.624356 0.618831 0.406930 0.010685
C90   C     C_R   0.699664 0.102395 0.087983 0.002001
C91   C     C_R   0.782535 0.080745 0.112088 -0.146490
C92   C     C_R   0.765802 0.119379 0.149166 -0.141148
C93   C     C_R   0.666083 0.180714 0.162988 0.002159
C94   C     C_R   0.581688 0.211807 0.138452 0.122213
C95   C     C_R   0.730134 0.571248 0.609298 0.054493
C96   C     C_R   0.598403 0.173472 0.100368 0.107433
C97   C     C_R   0.650061 0.280612 0.222550 -0.086669
C98   C     C_R   0.648228 0.287136 0.262476 -0.080111
C99   C     C_R   0.651929 0.207607 0.284345 0.044022
C100  C     C_R   0.652695 0.124003 0.265970 -0.092436
C101  C     C_R   0.653123 0.118271 0.226207 -0.074831
C102  C     C_R   0.652927 0.195785 0.204446 0.044611
C103  C     C_R   0.719684 0.228956 0.347584 0.091667
C104  C     C_R   0.704656 0.248886 0.386910 -0.101864
C105  C     C_R   0.552753 0.232148 0.384549 -0.122995
C106  C     C_R   0.739205 0.585264 0.648352 -0.112644
C107  C     C_R   0.567184 0.212453 0.345372 -0.136057
C108  C     C_R   0.647909 0.214883 0.326341 0.036257
C109  C     C_R   0.618733 0.255084 0.405357 0.002137
C110  C     C_R   0.087846 0.705685 0.093291 0.010297
C111  C     C_R   0.084892 0.625158 0.112103 -0.137357
C112  C     C_R   0.115582 0.603505 0.149964 -0.106861
C113  C     C_R   0.148152 0.663037 0.170092 -0.009025
C114  C     C_R   0.160311 0.737119 0.150482 -0.043507
C115  C     C_R   0.134153 0.756474 0.111947 0.240421
C116  C     C_R   0.238542 0.665750 0.229842 -0.100789
Cr1   Cr    Cr6+3 0.421670 0.426920 0.499620 1.059834
Cr2   Cr    Cr6+3 0.427030 0.651190 0.500980 1.076580
Cr3   Cr    Cr6+3 0.651280 0.421870 0.499380 1.057364
Cr4   Cr    Cr6+3 0.910810 0.908010 0.001130 1.069676
Cr5   Cr    Cr6+3 0.682800 0.909890 0.998370 1.074854
Cr6   Cr    Cr6+3 0.908370 0.682300 0.002180 1.031042
H1    H     H_    0.880374 0.034365 0.899334 0.158008
H2    H     H_    0.790883 0.228482 0.661147 0.134792
H3    H     H_    0.691107 0.316636 0.719591 0.153339
H4    H     H_    0.673567 0.039912 0.710222 0.126319
H5    H     H_    0.682958 0.024463 0.779858 0.143298
H6    H     H_    0.546444 0.158807 0.665093 0.111280
H7    H     H_    0.860411 0.092039 0.833176 0.141148
H8    H     H_    0.753204 0.277079 0.594646 0.163875
H9    H     H_    0.051347 0.579181 0.904062 0.152935
H10   H     H_    0.200955 0.493151 0.660185 0.162059
H11   H     H_    0.296725 0.480663 0.792466 0.141491
H12   H     H_    0.069492 0.789459 0.717147 0.118484
H13   H     H_    0.056600 0.795545 0.787014 0.141526
H14   H     H_    0.208979 0.774395 0.673379 0.125151
H15   H     H_    0.850632 0.548810 0.903888 0.133901
H16   H     H_    0.251247 0.767806 0.605760 0.171871
H17   H     H_    0.110129 0.539395 0.838051 0.154549
H18   H     H_    0.246204 0.484453 0.592476 0.150749
H19   H     H_    0.565779 0.876697 0.094234 0.133434
H20   H     H_    0.808917 0.560899 0.096933 0.147431
H21   H     H_    0.713984 0.496496 0.320965 0.163501
H22   H     H_    0.546784 0.617842 0.202566 0.101272
H23   H     H_    0.697857 0.763591 0.292508 0.136516
H24   H     H_    0.812703 0.538405 0.661857 0.172300
H25   H     H_    0.533552 0.820064 0.345558 0.148764
H26   H     H_    0.763048 0.548714 0.162968 0.125014
H27   H     H_    0.715490 0.459414 0.388440 0.153627
H28   H     H_    0.860823 0.027646 0.103281 0.168301
H29   H     H_    0.511956 0.200666 0.329508 0.126990
H30   H     H_    0.644421 0.353737 0.276342 0.153924
H31   H     H_    0.650273 0.340644 0.205857 0.121595
H32   H     H_    0.496974 0.778695 0.667514 0.170047
H33   H     H_    0.830791 0.095449 0.168051 0.148951
H34   H     H_    0.653934 0.062891 0.282427 0.133714
H35   H     H_    0.655494 0.052534 0.212239 0.168001
H36   H     H_    0.757429 0.264714 0.402574 0.151725
H37   H     H_    0.486078 0.235882 0.397981 0.146392
H38   H     H_    0.053001 0.582477 0.098389 0.150660
H39   H     H_    0.146164 0.806567 0.339136 0.158519
H40   H     H_    0.304234 0.675619 0.283040 0.155824
H41   H     H_    0.293522 0.675703 0.213167 0.113259
H42   H     H_    0.109136 0.543263 0.164027 0.138183
H43   H     H_    0.047471 0.624692 0.291425 0.125327
H44   H     H_    0.031585 0.631004 0.221727 0.133922
H45   H     H_    0.224486 0.489884 0.336989 0.134669
H46   H     H_    0.273787 0.473877 0.403915 0.146248
H47   H     H_    0.187289 0.782719 0.165270 0.144748
H48   H     H_    0.537024 0.806771 0.838245 0.180974
H49   H     H_    0.556180 0.138303 0.905617 0.172148
N1    N     N_R   0.756505 0.598246 0.768012 -0.120627
N2    N     N_R   0.750797 0.597665 0.730054 -0.218979
N3    N     N_R   0.576884 0.720884 0.733856 -0.223662
N4    N     N_R   0.582652 0.721370 0.771881 -0.235347
O1    O     O_R   0.502070 0.323090 0.541280 -0.439130
O2    O     O_R   0.520720 0.641670 0.461580 -0.480455
O3    O     O_R   0.674120 0.502090 0.457500 -0.511335
O4    O     O_R   0.640110 0.338380 0.459630 -0.503675
O5    O     O_3   0.499990 0.499990 0.499990 -0.260357
O6    O     O_R   0.017640 0.822070 0.960410 -0.449997
O7    O     O_R   0.822000 0.989470 0.960340 -0.503806
O8    O     O_R   0.666920 0.007430 0.955290 -0.489530
O9    O     O_R   0.694410 0.812480 0.959650 -0.479111
O10   O     O_R   0.831550 0.656950 0.958960 -0.521567
O11   O     O_R   0.998590 0.685540 0.963930 -0.514665
O12   O     O_R   0.338340 0.520690 0.539540 -0.500986
O13   O     O_R   0.008220 0.831200 0.045060 -0.494679
O14   O     O_R   0.813270 0.997930 0.038810 -0.503597
O15   O     O_R   0.657500 0.016560 0.039940 -0.478760
O16   O     O_R   0.685680 0.820940 0.038120 -0.501473
O17   O     O_R   0.822130 0.666070 0.043610 -0.513250
O18   O     O_R   0.989860 0.694000 0.042400 -0.503072
O19   O     O_3   0.833990 0.833400 0.000560 -0.258511
O20   O     O_R   0.324760 0.674070 0.543580 -0.497748
O21   O     O_R   0.522400 0.640310 0.540110 -0.489204
O22   O     O_R   0.675940 0.500630 0.542210 -0.475353
O23   O     O_R   0.641790 0.337020 0.538150 -0.515908
O24   O     O_R   0.500260 0.324550 0.456580 -0.513342
O25   O     O_R   0.336660 0.522040 0.461020 -0.510065
O26   O     O_R   0.322940 0.675540 0.458880 -0.480118
I1    I     I_    0.868913 0.463900 0.580898 -0.346584
O27   O     O_3   0.702171 0.320128 0.793158 -0.663836
H50   H     H_    0.699779 0.309333 0.820926 0.342858
I2    I     I_    0.462108 0.233304 0.828319 -0.384540
O28   O     O_3   0.492134 0.203229 0.592228 -0.668352
H51   H     H_    0.461204 0.175569 0.610178 0.325326
O29   O     O_3   0.460487 0.779489 0.595984 -0.683460
H52   H     H_    0.476777 0.797382 0.570736 0.338712
O30   O     O_3   0.168100 0.805626 0.918188 -0.664833
H53   H     H_    0.207396 0.830414 0.903471 0.379956
O31   O     O_3   0.330706 0.455703 0.716705 -0.698619
H54   H     H_    0.369696 0.402060 0.735850 0.340656
O32   O     O_3   0.236640 0.761334 0.841732 -0.705488
H55   H     H_    0.270776 0.726074 0.817462 0.345624
O33   O     O_3   0.526840 0.586820 0.276740 -0.713290
H56   H     H_    0.501431 0.562068 0.255245 0.314303
O34   O     O_3   0.502605 0.881076 0.166067 -0.666456
H57   H     H_    0.470281 0.939668 0.148337 0.336249
I3    I     I_    0.754206 0.813067 0.214540 -0.436205
O35   O     O_3   0.526332 0.805152 0.419231 -0.672593
H58   H     H_    0.551900 0.782909 0.445485 0.330543
I4    I     I_    0.471898 0.225471 0.061910 -0.271201
I5    I     I_    0.851865 0.221513 0.322532 -0.396477
I6    I     I_    0.430657 0.312019 0.160413 -0.337282
O36   O     O_3   0.151968 0.827356 0.094187 -0.676713
H59   H     H_    0.168272 0.806468 0.066916 0.347378
O37   O     O_3   0.836597 0.499145 0.832271 -0.646865
H60   H     H_    0.891499 0.454110 0.850155 0.326228
O38   O     O_3   0.177068 0.817386 0.411419 -0.657559
H61   H     H_    0.161418 0.812383 0.438595 0.339166
O39   O     O_3   0.539124 0.848326 0.909548 -0.658156
H62   H     H_    0.538116 0.830305 0.936660 0.339283

loop_
_geom_bond_atom_site_label_1
_geom_bond_atom_site_label_2
_ccdc_geom_bond_type
C114  H47   S    
C44   C48   A    
O27   H50   S    
C64   H14   S    
C18   O14   A    
C101  C102  A    
Cr3   O23   S    
C41   C42   A    
Cr5   O19   S    
C116  H41   S    
C47   H2    S    
C67   H10   S    
C10   O38   S    
C87   C88   A    
C62   O2    A    
C6    H44   S    
C97   C98   A    
C90   C91   A    
C39   C41   A    
C23   N3    A    
C98   H30   S    
C77   C78   A    
C44   C45   A    
C95   I1    S    
C99   C108  S    
C105  C107  A    
C46   C49   A    
C33   I2    S    
C26   C27   A    
C45   O28   S    
C64   C68   A    
C21   O29   S    
C92   C93   A    
C1    O20   A    
Cr6   O19   S    
Cr5   O16   S    
C3    C116  A    
C5    C6    A    
C103  I5    S    
C95   C106  A    
Cr6   O11   S    
C66   C69   A    
C54   C63   S    
C16   C30   S    
C40   C49   S    
C98   C99   A    
C62   C89   S    
C22   N4    A    
C11   H39   S    
C55   H17   S    
C15   C31   S    
C34   C35   A    
C46   C47   A    
C61   C63   A    
C2    C13   A    
C76   H20   S    
N3    N4    A    
C79   C88   S    
C94   C96   A    
C77   C82   A    
C103  C104  A    
C3    H40   S    
C110  C111  A    
C44   H6    S    
C14   C51   S    
O29   H52   S    
C15   O8    A    
C50   C52   A    
C107  C108  A    
C103  C108  A    
Cr3   O3    S    
C5    H43   S    
C4    C12   S    
Cr2   O21   S    
Cr4   O6    S    
C35   H7    S    
C97   C102  A    
C94   I6    S    
Cr1   O5    S    
C19   O17   A    
Cr5   O8    S    
C107  H29   S    
C100  H34   S    
C66   C67   A    
C101  H35   S    
C59   C60   A    
C22   C28   S    
C52   O30   S    
C57   H11   S    
Cr3   O4    S    
C74   C82   S    
C53   O32   S    
Cr4   O13   S    
C112  C113  A    
C57   C63   A    
C57   C58   A    
C1    O12   A    
Cr4   O19   S    
C38   C39   A    
C112  H42   S    
Cr4   O7    S    
C74   C75   A    
C67   C68   A    
C18   C90   S    
C47   C48   A    
C36   H1    S    
C111  H38   S    
O33   H56   S    
C115  O36   S    
C72   C74   A    
Cr1   O12   S    
C86   H27   S    
C78   O33   S    
Cr5   O15   S    
C40   O1    A    
C9    C14   A    
C85   C89   A    
O28   H51   S    
C8    C9    A    
Cr6   O10   S    
Cr3   O22   S    
C58   C59   A    
C53   C54   A    
C81   I3    S    
C97   H31   S    
C2    C106  A    
C81   C82   A    
C79   C80   A    
C60   C61   A    
C35   C36   A    
C7    C116  A    
C37   C43   A    
C17   C50   S    
C25   H15   S    
C75   C76   A    
C62   O3    A    
C37   C38   A    
C8    H45   S    
C59   C68   S    
C20   O13   A    
O35   H58   S    
C31   C32   A    
C21   C84   A    
C45   C49   A    
C17   O11   A    
C8    C12   A    
C96   I4    S    
C55   C56   A    
C33   C34   A    
C37   O27   S    
C13   C21   A    
C93   C94   A    
C24   C25   A    
C90   C96   A    
Cr2   O20   S    
C27   H48   S    
C70   C71   A    
Cr1   O25   S    
C42   H5    S    
C29   C84   S    
Cr5   O9    S    
C83   H25   S    
C65   H16   S    
Cr1   O1    S    
C80   H23   S    
C83   C85   A    
C32   H49   S    
O30   H53   S    
C29   O22   A    
C10   C14   A    
C20   C110  S    
Cr2   O26   S    
C42   C43   A    
Cr6   O18   S    
C3    C4    A    
C60   H12   S    
C20   O18   A    
C27   C28   A    
C38   H3    S    
C52   C53   A    
C86   C87   A    
C113  C114  A    
C25   C30   A    
C105  C109  A    
C54   C55   A    
C18   O15   A    
C15   O7    A    
C51   O25   A    
C111  C112  A    
O32   H55   S    
C41   H4    S    
C9    H46   S    
C34   C43   S    
C24   C28   A    
C104  H36   S    
C80   C81   A    
C86   C89   A    
Cr1   O24   S    
C93   C102  S    
C46   H8    S    
C91   H28   S    
C11   C12   A    
C16   O9    A    
C114  C115  A    
C6    C7    A    
C23   N2    A    
C58   O31   S    
C75   H26   S    
C29   O21   A    
C72   O34   S    
C106  H24   S    
C99   C100  A    
C71   H19   S    
C16   O10   A    
C26   O39   S    
C64   C65   A    
C7    C113  S    
C77   H22   S    
C71   C72   A    
C24   O37   S    
C50   C56   A    
C32   C33   A    
C70   C76   A    
C78   C79   A    
O34   H57   S    
C104  C109  A    
C40   O23   A    
Cr6   O17   S    
C65   C69   A    
C73   O24   A    
O39   H62   S    
C83   C88   A    
C92   H33   S    
C73   C109  S    
O38   H61   S    
C1    C69   S    
C13   H32   S    
C56   H9    S    
C10   C11   A    
C105  H37   S    
O37   H60   S    
N1    N2    A    
C73   O4    A    
Cr2   O2    S    
C17   O6    A    
C4    C5    A    
C66   H18   S    
O31   H54   S    
O36   H59   S    
Cr3   O5    S    
C2    C23   S    
C31   C36   A    
C19   C70   S    
C100  C101  A    
C87   H21   S    
Cr4   O14   S    
C85   O35   S    
C110  C115  A    
C84   C95   A    
C61   H13   S    
C22   N1    A    
C91   C92   A    
C51   O26   A    
C19   O16   A    
C39   C48   S    
C26   C30   A    
Cr2   O5    S    
