data_mof_unit_36503.cif
_audit_creation_date              2013-03-05T15:40:39-0500
_audit_creation_method            fapswitch 2.2
_symmetry_space_group_name_H-M    P1
_symmetry_Int_Tables_number       1
_space_group_crystal_system       triclinic
_cell_length_a                    19.275835
_cell_length_b                    11.080988
_cell_length_c                    18.800032
_cell_angle_alpha                 89.517328
_cell_angle_beta                  89.364314
_cell_angle_gamma                 89.6481
_cell_volume                      4015.13532269

loop_
_atom_site_label
_atom_site_type_symbol
_atom_site_description
_atom_site_fract_x
_atom_site_fract_y
_atom_site_fract_z
_atom_type_partial_charge
O1    O     O_R   0.043230 0.549300 0.667990 -0.491437
O2    O     O_R   0.956770 0.549300 0.332010 -0.494203
O3    O     O_R   0.543230 0.049300 0.667990 -0.474537
O4    O     O_R   0.456770 0.049300 0.332010 -0.488545
O5    O     O_R   0.178620 0.457600 0.674100 -0.495652
O6    O     O_R   0.821380 0.457600 0.325900 -0.514491
O7    O     O_R   0.678620 0.957600 0.674100 -0.493785
O8    O     O_R   0.321380 0.957600 0.325900 -0.499742
C1    C     C_R   0.238556 0.473119 0.644937 0.544424
C2    C     C_R   0.761429 0.468421 0.353952 0.542313
C3    C     C_R   0.739075 0.969828 0.646234 0.521774
C4    C     C_R   0.260314 0.964988 0.351639 0.554348
O9    O     O_R   0.284680 0.542100 0.669460 -0.465720
O10   O     O_R   0.715320 0.542100 0.330540 -0.483899
O11   O     O_R   0.784680 0.042100 0.669460 -0.501046
O12   O     O_R   0.215320 0.042100 0.330540 -0.474105
O13   O     O_R   0.262860 0.790390 0.676650 -0.473148
O14   O     O_R   0.737140 0.790390 0.323350 -0.461364
O15   O     O_R   0.762860 0.290390 0.676650 -0.458480
O16   O     O_R   0.237140 0.290390 0.323350 -0.486447
C5    C     C_R   0.228455 0.879523 0.650951 0.564959
C6    C     C_R   0.771940 0.876286 0.350546 0.570093
C7    C     C_R   0.727851 0.376490 0.648924 0.555359
C8    C     C_R   0.271018 0.377537 0.349519 0.558658
O17   O     O_R   0.167460 0.907030 0.670940 -0.493329
O18   O     O_R   0.832540 0.907030 0.329060 -0.498974
O19   O     O_R   0.667460 0.407030 0.670940 -0.516718
O20   O     O_R   0.332540 0.407030 0.329060 -0.496211
O21   O     O_R   0.053950 0.750220 0.675100 -0.522047
O22   O     O_R   0.946050 0.750220 0.324900 -0.519367
O23   O     O_R   0.553950 0.250220 0.675100 -0.531258
O24   O     O_R   0.446050 0.250220 0.324900 -0.523477
C9    C     C_R   0.029013 0.656686 0.645450 0.542924
C10   C     C_R   0.971815 0.653146 0.353898 0.571669
C11   C     C_R   0.529657 0.154127 0.644928 0.567664
C12   C     C_R   0.471662 0.156423 0.353702 0.552276
O25   O     O_R   0.043300 0.547370 0.827390 -0.487576
O26   O     O_R   0.956700 0.547370 0.172610 -0.496679
O27   O     O_R   0.543300 0.047370 0.827390 -0.497070
O28   O     O_R   0.456700 0.047370 0.172610 -0.489841
O29   O     O_R   0.178690 0.455820 0.821860 -0.495173
O30   O     O_R   0.821310 0.455820 0.178140 -0.489616
O31   O     O_R   0.678690 0.955820 0.821860 -0.498023
O32   O     O_R   0.321310 0.955820 0.178140 -0.488293
C13   C     C_R   0.239454 0.462326 0.848596 0.567817
C14   C     C_R   0.760652 0.462369 0.151627 0.573683
C15   C     C_R   0.739452 0.962318 0.848589 0.569336
C16   C     C_R   0.260646 0.962361 0.151631 0.579483
O33   O     O_R   0.284750 0.540170 0.828860 -0.481148
O34   O     O_R   0.715250 0.540170 0.171140 -0.481168
O35   O     O_R   0.784750 0.040170 0.828860 -0.479257
O36   O     O_R   0.215250 0.040170 0.171140 -0.478180
O37   O     O_R   0.262920 0.788600 0.824420 -0.504426
O38   O     O_R   0.737080 0.788600 0.175580 -0.488855
O39   O     O_R   0.762920 0.288600 0.824420 -0.484731
O40   O     O_R   0.237080 0.288600 0.175580 -0.503808
C17   C     C_R   0.224293 0.867445 0.855608 0.558665
C18   C     C_R   0.774965 0.869699 0.145139 0.564895
C19   C     C_R   0.724308 0.367481 0.855593 0.569192
C20   C     C_R   0.274956 0.369726 0.145151 0.559822
O41   O     O_R   0.167530 0.905110 0.830340 -0.440449
O42   O     O_R   0.832470 0.905110 0.169660 -0.442205
O43   O     O_R   0.667530 0.405110 0.830340 -0.445151
O44   O     O_R   0.332470 0.405110 0.169660 -0.437707
O45   O     O_R   0.054010 0.748440 0.822860 -0.479725
O46   O     O_R   0.945990 0.748440 0.177140 -0.484061
O47   O     O_R   0.554010 0.248440 0.822860 -0.477191
O48   O     O_R   0.445990 0.248440 0.177140 -0.484806
C21   C     C_R   0.031825 0.651256 0.852320 0.565235
C22   C     C_R   0.971553 0.652688 0.150004 0.560572
C23   C     C_R   0.531858 0.151253 0.852341 0.565924
C24   C     C_R   0.471570 0.152691 0.150019 0.560506
Cr1   Cr    Cr6+3 0.113970 0.508630 0.747920 1.124846
Cr2   Cr    Cr6+3 0.886030 0.508630 0.252080 1.096385
Cr3   Cr    Cr6+3 0.613970 0.008630 0.747920 1.099827
Cr4   Cr    Cr6+3 0.386030 0.008630 0.252080 1.121729
Cr5   Cr    Cr6+3 0.269200 0.666740 0.749850 1.114944
Cr6   Cr    Cr6+3 0.730800 0.666740 0.250150 1.121089
Cr7   Cr    Cr6+3 0.769200 0.166740 0.749850 1.110739
Cr8   Cr    Cr6+3 0.230800 0.166740 0.250150 1.116306
Cr9   Cr    Cr6+3 0.112300 0.820070 0.749800 1.103070
Cr10  Cr    Cr6+3 0.887700 0.820070 0.250200 1.094610
Cr11  Cr    Cr6+3 0.612300 0.320070 0.749800 1.078493
Cr12  Cr    Cr6+3 0.387700 0.320070 0.250200 1.093553
O49   O     O_3   0.165160 0.665150 0.749190 -0.300936
O50   O     O_3   0.834840 0.665150 0.250810 -0.298167
O51   O     O_3   0.665160 0.165150 0.749190 -0.298913
O52   O     O_3   0.334840 0.165150 0.250810 -0.300414
C25   C     C_2   0.255600 0.942707 0.589480 -0.071683
C26   C     C_2   0.745056 0.928580 0.415523 -0.065029
C27   C     C_2   0.753764 0.429720 0.583124 -0.057085
C28   C     C_2   0.240966 0.429874 0.413077 -0.027691
C29   C     C_2   0.249642 0.901218 0.418150 0.051849
C30   C     C_2   0.752680 0.910602 0.579025 0.021410
C31   C     C_2   0.751725 0.408039 0.422253 0.075684
C32   C     C_2   0.252251 0.424937 0.574694 0.060689
C33   C     C_2   0.293987 0.931207 0.469795 -0.181171
C34   C     C_2   0.699823 0.895573 0.534611 -0.157864
C35   C     C_2   0.806164 0.400840 0.466675 -0.175726
C36   C     C_2   0.199760 0.387562 0.534912 -0.170274
C37   C     C_2   0.289667 0.880528 0.540312 -0.089324
C38   C     C_2   0.711318 0.857211 0.461744 -0.140018
C39   C     C_2   0.797045 0.366523 0.541176 -0.154411
C40   C     C_2   0.210947 0.354518 0.460434 -0.099588
H1    H     H_    0.330594 0.004780 0.461878 0.141377
H2    H     H_    0.647763 0.919590 0.550851 0.155785
H3    H     H_    0.858050 0.426475 0.449479 0.154773
H4    H     H_    0.148671 0.378182 0.558314 0.188145
H5    H     H_    0.302057 0.786036 0.548004 0.244035
H6    H     H_    0.700220 0.764012 0.449545 0.233147
H7    H     H_    0.821776 0.284121 0.559392 0.188424
H8    H     H_    0.206965 0.259239 0.448721 0.195815
H9    H     H_    0.237975 0.034322 0.578646 0.119658
H10   H     H_    0.760007 0.019481 0.429782 0.150562
H11   H     H_    0.730422 0.513337 0.564162 0.189152
H12   H     H_    0.250738 0.523709 0.425442 0.152697
C41   C     C_R   0.005145 0.656407 0.424804 0.038411
C42   C     C_R   0.996631 0.669882 0.574120 0.047822
C43   C     C_R   0.507969 0.171847 0.422340 0.054438
C44   C     C_R   0.501246 0.158654 0.571631 0.035309
C45   C     C_R   0.020377 0.874414 0.417566 -0.044055
C46   C     C_R   0.000456 0.890617 0.563990 -0.008243
C47   C     C_R   0.495236 0.393919 0.429769 -0.014807
C48   C     C_R   0.480329 0.376802 0.577139 -0.056463
C49   C     C_R   0.005216 0.983864 0.447477 -0.059544
C50   C     C_R   0.997363 0.991991 0.520466 -0.027758
C51   C     C_R   0.483150 0.496153 0.470364 -0.042221
C52   C     C_R   0.477088 0.488147 0.543841 -0.047720
C53   C     C_R   0.005723 0.776012 0.533202 0.039953
C54   C     C_R   0.011806 0.768400 0.458113 0.020515
C55   C     C_R   0.493925 0.271319 0.537617 0.008595
C56   C     C_R   0.498649 0.278898 0.462352 0.044674
H13   H     H_    0.996900 0.061134 0.413300 0.180022
H14   H     H_    0.983088 0.076238 0.542469 0.193609
H15   H     H_    0.474824 0.581255 0.444679 0.144394
H16   H     H_    0.464114 0.566914 0.574814 0.189572
H17   H     H_    0.033781 0.873364 0.361565 0.168016
H18   H     H_    0.988682 0.902576 0.619838 0.152051
H19   H     H_    0.504791 0.407677 0.373598 0.144129
H20   H     H_    0.467114 0.374064 0.633140 0.146257
C57   C     C_R   0.980521 0.562724 0.538669 -0.032651
C58   C     C_R   0.003490 0.550138 0.468279 -0.074838
C59   C     C_R   0.506554 0.052230 0.528937 -0.062464
C60   C     C_R   0.527570 0.065566 0.457555 -0.039556
C61   C     C_R   0.955717 0.462029 0.576748 0.031574
C62   C     C_R   0.027594 0.434404 0.446281 0.023393
C63   C     C_R   0.495118 0.933229 0.555242 0.048198
C64   C     C_R   0.555680 0.966945 0.419223 0.041756
C65   C     C_R   0.986564 0.349617 0.561224 -0.006021
C66   C     C_R   0.026248 0.336280 0.496725 -0.037384
C67   C     C_R   0.527400 0.835117 0.519895 -0.039591
C68   C     C_R   0.548735 0.850165 0.447952 -0.008460
C69   C     C_2   0.236230 0.889642 0.930895 -0.118887
C70   C     C_2   0.761918 0.895164 0.070301 -0.118351
C71   C     C_2   0.736251 0.389673 0.930878 -0.119265
C72   C     C_2   0.261880 0.395294 0.070333 -0.117659
C73   C     C_2   0.248974 0.897614 0.086113 -0.108019
C74   C     C_2   0.751098 0.898045 0.914950 -0.114147
C75   C     C_2   0.749016 0.397675 0.086087 -0.110876
C76   C     C_2   0.251114 0.398101 0.914974 -0.112423
C77   C     C_2   0.187155 0.905508 0.053909 -0.004915
C78   C     C_2   0.812179 0.908969 0.948146 -0.005896
C79   C     C_2   0.687193 0.405470 0.053895 -0.003155
C80   C     C_2   0.312172 0.409189 0.948205 -0.006761
C81   C     C_2   0.183589 0.923362 0.975591 0.135367
C82   C     C_2   0.813618 0.932681 0.025743 0.136497
C83   C     C_2   0.683616 0.423389 0.975584 0.135603
C84   C     C_2   0.313565 0.432924 0.025796 0.136760
H21   H     H_    0.296346 0.874984 0.057921 0.111996
H22   H     H_    0.703489 0.876248 0.942921 0.096021
H23   H     H_    0.796403 0.375204 0.057876 0.113312
H24   H     H_    0.203507 0.376216 0.942923 0.096089
H25   H     H_    0.283820 0.850272 0.950420 0.095016
H26   H     H_    0.715930 0.851851 0.050714 0.087885
H27   H     H_    0.783832 0.350257 0.950398 0.096256
H28   H     H_    0.215908 0.351952 0.050731 0.086458
C85   C     C_2   0.010879 0.654035 0.926470 -0.059773
C86   C     C_2   0.008739 0.663996 0.082951 -0.083263
C87   C     C_2   0.510948 0.154042 0.926504 -0.061347
C88   C     C_2   0.508772 0.164026 0.082978 -0.083493
C89   C     C_2   0.024763 0.565453 0.045953 -0.159858
C90   C     C_2   0.039503 0.571091 0.970167 -0.152056
C91   C     C_2   0.524888 0.065506 0.046001 -0.158695
C92   C     C_2   0.539616 0.071147 0.970205 -0.153672
H29   H     H_    0.023048 0.476242 0.070327 0.187569
H30   H     H_    0.072465 0.499362 0.949329 0.168148
H31   H     H_    0.523246 0.976307 0.070397 0.190608
H32   H     H_    0.572600 0.999455 0.949360 0.168421
H33   H     H_    0.014034 0.753096 0.059319 0.182208
H34   H     H_    0.977979 0.726618 0.945861 0.155681
H35   H     H_    0.513997 0.253130 0.059331 0.182513
H36   H     H_    0.478025 0.226597 0.945892 0.155605
N1    N     N_R   0.122341 0.980696 0.948133 0.143808
O53   O     O_R   0.124586 0.092440 0.926474 -0.283662
O54   O     O_R   0.064872 0.920654 0.943594 -0.270605
N2    N     N_R   0.871424 0.998872 0.052689 0.140753
O55   O     O_R   0.862190 0.108064 0.076022 -0.303634
O56   O     O_R   0.931312 0.946059 0.060438 -0.254175
N3    N     N_R   0.622378 0.480782 0.948145 0.143243
O57   O     O_R   0.624663 0.592503 0.926450 -0.289990
O58   O     O_R   0.564894 0.420783 0.943596 -0.270822
N4    N     N_R   0.371337 0.499179 0.052770 0.140895
O59   O     O_R   0.362039 0.608312 0.076174 -0.300029
O60   O     O_R   0.431246 0.446434 0.060525 -0.253428
C93   C     C_2   0.197112 0.803021 0.423025 0.560359
O61   O     O_2   0.166348 0.773309 0.369458 -0.496979
O62   O     O_R   0.183611 0.742473 0.487243 -0.714890
H37   H     H_    0.149604 0.673806 0.482047 0.341696
C94   C     C_2   0.824411 0.899811 0.553123 0.587131
O63   O     O_2   0.851912 0.800767 0.549146 -0.456669
O64   O     O_R   0.858298 0.001797 0.527061 -0.697375
H38   H     H_    0.829322 0.078023 0.530775 0.308482
C95   C     C_2   0.682821 0.367181 0.445197 0.559380
O65   O     O_2   0.668520 0.260080 0.443367 -0.509655
O66   O     O_R   0.638903 0.448691 0.478825 -0.646840
H39   H     H_    0.609198 0.407021 0.515949 0.343898
C96   C     C_2   0.318619 0.453338 0.540322 0.557520
O67   O     O_2   0.350675 0.374409 0.508859 -0.541029
O68   O     O_R   0.336056 0.574808 0.532625 -0.700975
H40   H     H_    0.362132 0.592751 0.486917 0.319454
C97   C     C_2   0.064023 0.423441 0.376109 0.638564
O69   O     O_2   0.047152 0.344978 0.334426 -0.451347
O70   O     O_R   0.111747 0.511269 0.354576 -0.697949
H41   H     H_    0.130121 0.497844 0.304504 0.347771
C98   C     C_2   0.907518 0.483949 0.639169 0.594629
O71   O     O_2   0.903565 0.413169 0.689220 -0.461593
O72   O     O_R   0.867500 0.589694 0.640736 -0.677233
H42   H     H_    0.837683 0.596244 0.685324 0.342823
C99   C     C_2   0.595366 0.989017 0.350734 0.594710
O73   O     O_2   0.601129 0.910719 0.305602 -0.468558
O74   O     O_R   0.626502 0.100974 0.338251 -0.673277
H43   H     H_    0.651740 0.105362 0.290699 0.346937
C100  C     C_2   0.440398 0.909646 0.611106 0.631237
O75   O     O_2   0.423147 0.806225 0.625814 -0.484612
O76   O     O_R   0.405128 0.005578 0.643655 -0.701900
H44   H     H_    0.371218 0.977801 0.681914 0.339693
C101  C     C_2   0.984715 0.256102 0.617995 0.612686
O77   O     O_2   0.034229 0.243514 0.657525 -0.438115
O78   O     O_R   0.923799 0.191160 0.630869 -0.695338
H45   H     H_    0.928227 0.132589 0.672314 0.349871
C102  C     C_2   0.072734 0.228659 0.486227 0.489844
O79   O     O_2   0.088985 0.195063 0.426654 -0.508359
O80   O     O_R   0.102514 0.169592 0.544504 -0.696690
H46   H     H_    0.133363 0.099485 0.529913 0.335861
C103  C     C_2   0.558305 0.735974 0.564125 0.548471
O81   O     O_2   0.595208 0.659267 0.536731 -0.479939
O82   O     O_R   0.552097 0.737444 0.638363 -0.650987
H47   H     H_    0.577368 0.667644 0.662064 0.342258
C104  C     C_2   0.547618 0.747835 0.398056 0.594092
O83   O     O_2   0.500859 0.743053 0.354666 -0.504872
O84   O     O_R   0.599845 0.660428 0.397520 -0.617580
H48   H     H_    0.591045 0.595572 0.361071 0.351782
C105  C     C_2   0.122623 0.911951 0.098656 0.621728
O85   O     O_2   0.076131 0.983232 0.084328 -0.393504
O86   O     O_R   0.117556 0.840304 0.160119 -0.686900
H49   H     H_    0.073434 0.856474 0.188374 0.346784
C106  C     C_2   0.877548 0.913077 0.904646 0.622232
O87   O     O_2   0.923403 0.984730 0.918065 -0.384678
O88   O     O_R   0.884178 0.838553 0.845228 -0.705006
H50   H     H_    0.928524 0.853815 0.817226 0.346297
C107  C     C_2   0.622669 0.411718 0.098658 0.622551
O89   O     O_2   0.576130 0.482934 0.084381 -0.391037
O90   O     O_R   0.617662 0.339948 0.160077 -0.704388
H51   H     H_    0.573533 0.355969 0.188348 0.344074
C108  C     C_2   0.377572 0.413409 0.904760 0.623111
O91   O     O_2   0.423352 0.485204 0.918184 -0.386176
O92   O     O_R   0.384322 0.338812 0.845390 -0.704883
H52   H     H_    0.428685 0.354146 0.817430 0.345665

loop_
_geom_bond_atom_site_label_1
_geom_bond_atom_site_label_2
_geom_bond_distance
_ccdc_geom_bond_type
C18   O42   1.270775 A    
C74   C78   1.345250 D    
Cr11  O51   1.990944 S    
O4    C12   1.293328 A    
O47   Cr11  1.933233 S    
O39   C19   1.285457 A    
C47   C56   1.410930 A    
O20   Cr12  2.057564 S    
C44   C55   1.404919 A    
C58   C62   1.424414 A    
C35   C39   1.457255 S    
O78   H45   1.013846 S    
C36   C40   1.463570 S    
C45   C54   1.404591 A    
C60   C64   1.415803 A    
C42   C57   1.404648 A    
C29   C93   1.492482 S    
C77   C105  1.495602 S    
O76   H44   1.013736 S    
O1    C9    1.288677 A    
O90   H51   1.013551 S    
C5    C25   1.441171 S    
C95   O65   1.220876 D    
C26   H10   1.085973 S    
O5    C1    1.285188 A    
C28   H12   1.085410 S    
C13   C76   1.450368 S    
C104  O83   1.224024 D    
C99   O73   1.222358 D    
N4    O60   1.300160 A    
O37   C17   1.285483 A    
C76   C80   1.345361 D    
C69   H25   1.080015 S    
C51   H15   1.067888 S    
C106  O87   1.221588 D    
O25   C21   1.263888 A    
O40   Cr8   1.941586 S    
O35   Cr7   2.057404 S    
O30   C14   1.277529 A    
C105  O85   1.221737 D    
C31   C35   1.349914 D    
C65   C66   1.434702 A    
C64   C68   1.404610 A    
C30   C34   1.336539 D    
C37   H5    1.081403 S    
O80   H46   1.013228 S    
C27   H11   1.086691 S    
O21   C9    1.279761 A    
O8    Cr4   1.937991 S    
O23   Cr11  1.974951 S    
C39   H7    1.082255 S    
C102  O79   1.220183 D    
C90   H30   1.087398 S    
C23   C87   1.447590 S    
O32   Cr4   1.972876 S    
C12   C43   1.486373 S    
C1    O9    1.269126 A    
O44   Cr12  2.076880 S    
C5    O17   1.266573 A    
C18   C70   1.456959 S    
C73   H21   1.079948 S    
C78   C82   1.485066 S    
C3    O11   1.275873 A    
C66   C102  1.500318 S    
C26   C38   1.336285 D    
C87   H36   1.084212 S    
C4    O12   1.277689 A    
C78   C106  1.495251 S    
C71   C83   1.362735 D    
N1    O54   1.299680 A    
C34   C38   1.452011 S    
C65   C101  1.481601 S    
C67   C68   1.418080 A    
C93   O61   1.222893 D    
C7    O19   1.275845 A    
O3    Cr3   2.084948 S    
C108  O91   1.221601 D    
Cr4   O52   1.990261 S    
C46   C53   1.402689 A    
O47   C23   1.280476 A    
O2    Cr2   2.094018 S    
C88   C91   1.332448 D    
O8    C4    1.270144 A    
O88   H50   1.013270 S    
C48   C52   1.380206 A    
C69   C81   1.362729 D    
C46   C50   1.385553 A    
O2    C10   1.261868 A    
C10   C41   1.486989 S    
C93   O62   1.398910 S    
O42   Cr10  2.076880 S    
Cr5   O49   2.005820 S    
N3    O57   1.301018 A    
O18   Cr10  2.057564 S    
C62   C66   1.436908 A    
C101  O77   1.222720 D    
O17   Cr9   2.051972 S    
C43   C60   1.398196 A    
C11   C44   1.488798 S    
C44   C59   1.434601 A    
O5    Cr1   1.940350 S    
O34   Cr6   2.076880 S    
Cr7   O51   2.005820 S    
C68   C104  1.478129 S    
N3    O58   1.299692 A    
O6    Cr2   1.937991 S    
C25   H9    1.086884 S    
C95   O66   1.385806 S    
C6    C26   1.445943 S    
O4    Cr4   2.094018 S    
O24   Cr12  1.960206 S    
O16   Cr8   1.955421 S    
O9    Cr5   2.073836 S    
C36   H4    1.079377 S    
O30   Cr2   1.972876 S    
N4    O59   1.301026 A    
O22   C10   1.300199 A    
O62   H37   1.013424 S    
O48   Cr12  1.937061 S    
O14   Cr6   1.955421 S    
Cr12  O52   2.001542 S    
C80   C84   1.484984 S    
O32   C16   1.277603 A    
C46   H18   1.080799 S    
O70   H41   1.013911 S    
N2    O56   1.300136 A    
C2    O10   1.282162 A    
C27   C39   1.340112 D    
O68   H40   1.009633 S    
C107  O90   1.399306 S    
C62   C97   1.493100 S    
C89   H29   1.086615 S    
C74   H22   1.080240 S    
O7    Cr3   1.940350 S    
O26   Cr2   2.055067 S    
C96   O67   1.220908 D    
C89   C90   1.450637 S    
C45   H17   1.081430 S    
O11   Cr7   2.073836 S    
O12   Cr8   2.059271 S    
O13   C5    1.280530 A    
O40   C20   1.287841 A    
C48   C55   1.411933 A    
O43   Cr11  2.094316 S    
C102  O80   1.398416 S    
O22   Cr10  1.960206 S    
O15   C7    1.276269 A    
C91   C92   1.450774 S    
C20   C72   1.456891 S    
O64   H38   1.012222 S    
C45   C49   1.369675 A    
C97   O69   1.223273 D    
C94   O64   1.391584 S    
C91   H31   1.086619 S    
O46   Cr10  1.937061 S    
O39   Cr7   1.956921 S    
O3    C11   1.263335 A    
C29   C33   1.345778 D    
O7    C3    1.279841 A    
O72   H42   1.013968 S    
C13   O33   1.280902 A    
C79   C83   1.486234 S    
O48   C24   1.275115 A    
C33   C37   1.437169 S    
C79   C107  1.495534 S    
O13   Cr5   1.938043 S    
C94   O63   1.218389 D    
C76   H24   1.080239 S    
C80   C108  1.495234 S    
C81   N1    1.436214 S    
O29   C13   1.282362 A    
Cr2   O50   1.990261 S    
O15   Cr7   1.938043 S    
C41   C54   1.401968 A    
C100  O76   1.399827 S    
C1    C32   1.449504 S    
Cr1   O49   2.001145 S    
C75   H23   1.079958 S    
C63   C100  1.502670 S    
C3    C30   1.449299 S    
Cr3   O51   2.001145 S    
O26   C22   1.271843 A    
C52   H16   1.079853 S    
C97   O70   1.397643 S    
O21   Cr9   1.974951 S    
C59   C63   1.422030 A    
C104  O84   1.392707 S    
O27   Cr3   2.056827 S    
C8    C28   1.446334 S    
C101  O78   1.398692 S    
C6    O18   1.278981 A    
C49   C50   1.382472 A    
C31   C95   1.465092 S    
C47   H19   1.079652 S    
C7    C27   1.450957 S    
C4    C29   1.444428 S    
C38   H6    1.082911 S    
C71   H27   1.080030 S    
C24   C88   1.448079 S    
C9    C42   1.491134 S    
O86   H49   1.013568 S    
C73   C77   1.344601 D    
C47   C51   1.388338 A    
C35   H3    1.086411 S    
O31   Cr3   1.961350 S    
C40   H8    1.083677 S    
C53   C54   1.418422 A    
O38   C18   1.287831 A    
C49   H13   1.078424 S    
C86   H33   1.084186 S    
O25   Cr1   2.056827 S    
C72   H28   1.080367 S    
O27   C23   1.263907 A    
C85   H34   1.084204 S    
O28   C24   1.271862 A    
C25   C37   1.323665 D    
O14   C6    1.281013 A    
O36   Cr8   2.076880 S    
C48   H20   1.080659 S    
C83   N3    1.436220 S    
C22   C86   1.448095 S    
C8    O20   1.285912 A    
C82   N2    1.437002 S    
N2    O55   1.301024 A    
C88   H35   1.084195 S    
C43   C56   1.419407 A    
C32   C96   1.461636 S    
O6    C2    1.270343 A    
C15   O35   1.280962 A    
O82   H47   1.014127 S    
O24   C12   1.267822 A    
C17   O41   1.264754 A    
C51   C52   1.387159 A    
C57   C61   1.404142 A    
O84   H48   1.013506 S    
C96   O68   1.395288 S    
C19   C71   1.459621 S    
C16   C73   1.451049 S    
C14   O34   1.277760 A    
C19   O43   1.264770 A    
C34   H2    1.078123 S    
C20   O44   1.270759 A    
O92   H52   1.013270 S    
O1    Cr1   2.084948 S    
C103  O82   1.399709 S    
C59   C60   1.404348 A    
C33   H1    1.089684 S    
Cr8   O52   2.005600 S    
C108  O92   1.398936 S    
Cr10  O50   2.001542 S    
O33   Cr5   2.057404 S    
C21   C85   1.447536 S    
Cr6   O50   2.005600 S    
C107  O89   1.221728 D    
C17   C69   1.459650 S    
C2    C31   1.453701 S    
O45   C21   1.280492 A    
C14   C75   1.451001 S    
C32   C36   1.334838 D    
O23   C11   1.302702 A    
O19   Cr11  2.051972 S    
C98   O72   1.399242 S    
O38   Cr6   1.941586 S    
C84   N4    1.437056 S    
C41   C58   1.428075 A    
C75   C79   1.344514 D    
O10   Cr6   2.059271 S    
O66   H39   1.008534 S    
C61   C98   1.509019 S    
C55   C56   1.418720 A    
C77   C81   1.486249 S    
C57   C58   1.398570 A    
C86   C89   1.332465 D    
C67   C103  1.496932 S    
C28   C40   1.344146 D    
O29   Cr1   1.961350 S    
C87   C92   1.347317 D    
C92   H32   1.087398 S    
C16   O36   1.277725 A    
C70   H26   1.080372 S    
C61   C65   1.408382 A    
O46   C22   1.275132 A    
C50   H14   1.057895 S    
C30   C94   1.465343 S    
C99   O74   1.398379 S    
N1    O53   1.301018 A    
C105  O86   1.399293 S    
O28   Cr4   2.055067 S    
C63   C67   1.416142 A    
O74   H43   1.013970 S    
C42   C53   1.410603 A    
C72   C84   1.359496 D    
O45   Cr9   1.933233 S    
C70   C82   1.359558 D    
O41   Cr9   2.094316 S    
C64   C99   1.509324 S    
C106  O88   1.398994 S    
O37   Cr5   1.956921 S    
C103  O81   1.218819 D    
O31   C15   1.282265 A    
O16   C8    1.274324 A    
Cr9   O49   1.990944 S    
C85   C90   1.347282 D    
C100  O75   1.223790 D    
C98   O71   1.221914 D    
C15   C74   1.450308 S    
