data_mof_unit_39696.cif
_audit_creation_date              2012-12-11T15:06:44-0500
_audit_creation_method            fapswitch 2.2
_symmetry_space_group_name_H-M    P1
_symmetry_Int_Tables_number       1
_space_group_crystal_system       triclinic
_cell_length_a                    7.222416
_cell_length_b                    15.169988
_cell_length_c                    22.538747
_cell_angle_alpha                 90.000023
_cell_angle_beta                  90.0
_cell_angle_gamma                 89.114285
_cell_volume                      2469.139412

loop_
_atom_site_label
_atom_site_type_symbol
_atom_type_description
_atom_site_fract_x
_atom_site_fract_y
_atom_site_fract_z
_atom_type_partial_charge
O1    O     O_R   0.390810 0.844810 0.447340 -0.539017
O2    O     O_R   0.109190 0.155190 0.947340 -0.539017
O3    O     O_R   0.890810 0.655190 0.552660 -0.536601
O4    O     O_R   0.609190 0.344810 0.052660 -0.536603
O5    O     O_R   0.720550 0.655820 0.440420 -0.539871
O6    O     O_R   0.779450 0.344180 0.940420 -0.539872
O7    O     O_R   0.220550 0.844180 0.559580 -0.538578
O8    O     O_R   0.279450 0.155820 0.059580 -0.538578
C1    C     C_R   0.552924 0.626951 0.426616 0.669292
C2    C     C_R   0.947075 0.373049 0.926616 0.669296
C3    C     C_R   0.050937 0.875495 0.571708 0.676604
C4    C     C_R   0.449062 0.124506 0.071709 0.676601
O9    O     O_R   0.720530 0.844130 0.440420 -0.533603
O10   O     O_R   0.779470 0.155870 0.940420 -0.533601
O11   O     O_R   0.220530 0.655870 0.559580 -0.533594
O12   O     O_R   0.279470 0.344130 0.059580 -0.533591
O13   O     O_R   0.890830 0.844810 0.552660 -0.536523
O14   O     O_R   0.609170 0.155190 0.052660 -0.536521
O15   O     O_R   0.390830 0.655190 0.447340 -0.535124
O16   O     O_R   0.109170 0.344810 0.947340 -0.535123
C5    C     C_R   0.550570 0.869960 0.424064 0.711005
C6    C     C_R   0.949430 0.130040 0.924064 0.711010
C7    C     C_R   0.053008 0.627784 0.574546 0.726133
C8    C     C_R   0.446993 0.372215 0.074547 0.726129
O17   O     O_3   0.557310 0.749980 0.536820 -0.378611
O18   O     O_3   0.942690 0.250020 0.036820 -0.378614
O19   O     O_3   0.057310 0.750020 0.463180 -0.383951
O20   O     O_3   0.442690 0.249980 0.963180 -0.383951
V1    V     V_3+5 0.832160 0.749980 0.493170 1.409282
V2    V     V_3+5 0.667840 0.250020 0.993170 1.409276
V3    V     V_3+5 0.332160 0.750020 0.506830 1.407148
V4    V     V_3+5 0.167840 0.249980 0.006830 1.407148
C9    C     C_R   0.979036 0.602886 0.868122 -0.112690
C10   C     C_R   0.520858 0.397115 0.368127 -0.112711
C11   C     C_R   0.605943 0.903868 0.128153 -0.088187
C12   C     C_R   0.894038 0.096130 0.628153 -0.088162
H1    H     H_    0.939198 0.544657 0.953583 0.126338
H2    H     H_    0.560692 0.455343 0.453588 0.126335
H3    H     H_    0.583499 0.964877 0.042841 0.127960
H4    H     H_    0.916472 0.035119 0.542841 0.127958
H5    H     H_    0.062692 0.723880 0.790778 0.171135
H6    H     H_    0.437169 0.276128 0.290782 0.171146
H7    H     H_    0.717240 0.789764 0.207691 0.161970
H8    H     H_    0.782757 0.210238 0.707691 0.161959
H9    H     H_    0.983853 0.668856 0.886493 0.177220
H10   H     H_    0.515990 0.331147 0.386499 0.177242
H11   H     H_    0.673749 0.845718 0.109871 0.180488
H12   H     H_    0.826225 0.154278 0.609871 0.180456
C13   C     C_R   0.954771 0.446580 0.884470 -0.037572
C14   C     C_R   0.545221 0.553419 0.384471 -0.037565
C15   C     C_R   0.467909 0.047802 0.111660 -0.047933
C16   C     C_R   0.032089 0.952200 0.611659 -0.047939
C17   C     C_R   0.024596 0.470983 0.594876 -0.239539
C18   C     C_R   0.475453 0.529014 0.094875 -0.239530
C19   C     C_R   0.459888 0.020168 0.401394 -0.226950
C20   C     C_R   0.040106 0.979832 0.901393 -0.226954
C21   C     C_R   0.997582 0.398593 0.631217 0.673508
C22   C     C_R   0.502489 0.601402 0.131216 0.673502
C23   C     C_R   0.398371 0.086657 0.364032 0.658886
C24   C     C_R   0.101614 0.913340 0.864031 0.658887
C25   C     C_R   0.987369 0.408602 0.692419 -0.241791
C26   C     C_R   0.512683 0.591394 0.192418 -0.241786
C27   C     C_R   0.405476 0.075632 0.303038 -0.250976
C28   C     C_R   0.094509 0.924366 0.803036 -0.250982
C29   C     C_R   0.009020 0.491837 0.719561 -0.040490
C30   C     C_R   0.490988 0.508161 0.219561 -0.040487
C31   C     C_R   0.482924 0.998635 0.277002 -0.034529
C32   C     C_R   0.017073 0.001366 0.777001 -0.034528
C33   C     C_R   0.043857 0.566866 0.682230 0.005054
C34   C     C_R   0.456125 0.433134 0.182231 0.005049
C35   C     C_R   0.552219 0.929546 0.315558 -0.000917
C36   C     C_R   0.947783 0.070456 0.815557 -0.000920
C37   C     C_R   0.994597 0.502656 0.782761 0.107218
C38   C     C_R   0.505392 0.497343 0.282762 0.107221
C39   C     C_R   0.495827 0.989600 0.213617 0.101970
C40   C     C_R   0.004172 0.010402 0.713616 0.101965
C41   C     C_R   0.002893 0.588518 0.807065 0.065186
C42   C     C_R   0.497035 0.411483 0.307068 0.065189
C43   C     C_R   0.581636 0.913203 0.189628 0.070521
C44   C     C_R   0.918355 0.086797 0.689628 0.070523
C45   C     C_R   0.044475 0.659504 0.771064 -0.196351
C46   C     C_R   0.455428 0.340500 0.271068 -0.196362
C47   C     C_R   0.649507 0.847473 0.226794 -0.196399
C48   C     C_R   0.850489 0.152529 0.726793 -0.196391
C49   C     C_R   0.075315 0.649245 0.710587 0.250138
C50   C     C_R   0.424623 0.350758 0.210588 0.250136
C51   C     C_R   0.638711 0.854255 0.288314 0.238164
C52   C     C_R   0.861296 0.145748 0.788314 0.238170
C53   C     C_R   0.975157 0.431484 0.823197 -0.200967
C54   C     C_R   0.524868 0.568514 0.323196 -0.200976
C55   C     C_R   0.432900 0.055210 0.172817 -0.221339
C56   C     C_R   0.067110 0.944795 0.672815 -0.221336
C57   C     C_R   0.953738 0.532426 0.906427 -0.152482
C58   C     C_R   0.546184 0.467574 0.406431 -0.152481
C59   C     C_R   0.553116 0.971311 0.089746 -0.143664
C60   C     C_R   0.946865 0.028688 0.589746 -0.143656
C61   C     C_R   0.046151 0.555281 0.618741 -0.164128
C62   C     C_R   0.453854 0.444718 0.118741 -0.164123
C63   C     C_R   0.532444 0.940808 0.378968 -0.161357
C64   C     C_R   0.967557 0.059193 0.878967 -0.161357
H13   H     H_    0.982513 0.364015 0.808784 0.108223
H14   H     H_    0.517563 0.635984 0.308782 0.108225
H15   H     H_    0.363330 0.113945 0.187231 0.140097
H16   H     H_    0.136703 0.886066 0.687228 0.140103
H17   H     H_    0.025855 0.461339 0.547203 0.145139
H18   H     H_    0.474212 0.538656 0.047203 0.145139
H19   H     H_    0.444017 0.029446 0.448856 0.144777
H20   H     H_    0.055976 0.970552 0.948855 0.144776
H21   H     H_    0.959236 0.349809 0.717329 0.142680
H22   H     H_    0.540833 0.650186 0.217327 0.142675
H23   H     H_    0.348964 0.129354 0.277466 0.146896
H24   H     H_    0.151004 0.870641 0.777464 0.146904
F1    F     F_    0.976058 0.317798 0.606672 -0.697420
F2    F     F_    0.524055 0.682194 0.106670 -0.697434
F3    F     F_    0.324519 0.161811 0.387286 -0.694003
F4    F     F_    0.175453 0.838184 0.887284 -0.693992
N1    N     N_2   0.154717 0.721930 0.681553 -0.558061
H25   H     H_    0.085179 0.746924 0.645685 0.239626
C65   C     C_3   0.355090 0.722269 0.680493 -0.459872
H26   H     H_    0.403625 0.782842 0.658135 0.194553
H27   H     H_    0.410371 0.663649 0.656447 0.204009
H28   H     H_    0.410140 0.721763 0.726525 0.195399
N2    N     N_2   0.345223 0.278076 0.181551 -0.558062
H29   H     H_    0.414770 0.253079 0.145685 0.239623
C66   C     C_3   0.144851 0.277738 0.180486 -0.459837
H30   H     H_    0.096321 0.217163 0.158129 0.194557
H31   H     H_    0.089575 0.336356 0.156438 0.204008
H32   H     H_    0.089790 0.278246 0.226517 0.195385
N3    N     N_2   0.725191 0.784601 0.320235 -0.548124
H33   H     H_    0.651970 0.755703 0.353540 0.240814
C67   C     C_3   0.924156 0.789264 0.326470 -0.417258
H34   H     H_    0.977541 0.728103 0.347884 0.195817
H35   H     H_    0.961832 0.847107 0.353882 0.199323
H36   H     H_    0.990848 0.794887 0.282244 0.175894
N4    N     N_2   0.774835 0.215408 0.820235 -0.548121
H37   H     H_    0.848066 0.244300 0.853541 0.240807
C68   C     C_3   0.575868 0.210759 0.826470 -0.417258
H38   H     H_    0.522503 0.271922 0.847885 0.195820
H39   H     H_    0.538174 0.152916 0.853879 0.199323
H40   H     H_    0.509173 0.205144 0.782243 0.175889

loop_
_geom_bond_atom_site_label_1
_geom_bond_atom_site_label_2
_ccdc_geom_bond_type
O17   V3    S    
C47   C51   A    
C22   C26   A    
C19   C23   A    
O19   V1    S    
C9    H9    S    
O3    C7    A    
H6    C46   S    
C44   C48   A    
C67   H36   S    
O15   V3    S    
C36   C64   A    
N2    H29   S    
O1    C5    A    
C68   H39   S    
C8    C62   S    
C28   C32   A    
O9    V1    S    
H4    C60   S    
N1    C65   S    
C18   C22   A    
O4    C8    A    
C29   C33   A    
N2    C66   S    
C30   C38   A    
H7    C47   S    
O1    V3    S    
C29   C37   A    
O2    V4    S    
O3    V1    S    
C12   C60   A    
C54   H14   S    
C3    C16   S    
C15   C55   A    
C1    O15   A    
C20   H20   S    
C2    O16   A    
O2    C6    A    
C66   H32   S    
C16   C60   A    
O14   V2    S    
C39   C55   A    
C53   H13   S    
O11   C7    A    
C25   H21   S    
O12   C8    A    
O10   C6    A    
O10   V2    S    
C36   C52   A    
C14   C54   A    
O5    V1    S    
C65   H27   S    
C68   H40   S    
C27   C31   A    
O7    V3    S    
C18   H18   S    
H1    C57   S    
O8    V4    S    
C40   C44   A    
N4    H37   S    
C6    C64   S    
C12   C44   A    
C13   C53   A    
C26   C30   A    
O18   V4    S    
C14   C58   A    
C21   F1    S    
C17   C61   A    
C46   C50   A    
C35   C63   A    
O11   V3    S    
C20   C24   A    
C19   H19   S    
C32   C36   A    
O7    C3    A    
O5    C1    A    
C25   C29   A    
C42   C46   A    
C26   H22   S    
C41   C45   A    
O8    C4    A    
H5    C45   S    
H2    C58   S    
O9    C5    A    
C32   C40   A    
C49   N1    S    
H3    C59   S    
C40   C56   A    
C10   H10   S    
C7    C61   S    
C10   C58   A    
C66   H30   S    
C35   C51   A    
C16   C56   A    
C31   C39   A    
C20   C64   A    
C19   C63   A    
C67   H34   S    
C34   C50   A    
C4    C15   S    
C33   C49   A    
C66   H31   S    
N3    H33   S    
O16   V4    S    
C65   H28   S    
N4    C68   S    
C3    O13   A    
C17   C21   A    
O6    V2    S    
C1    C14   S    
C48   C52   A    
C52   N4    S    
C55   H15   S    
C67   H35   S    
C9    C57   A    
O6    C2    A    
C65   H26   S    
C21   C25   A    
C11   C59   A    
O12   V4    S    
C68   H38   S    
C23   C27   A    
H8    C48   S    
C24   C28   A    
C51   N3    S    
O20   V2    S    
C37   C53   A    
C24   F4    S    
O13   V1    S    
C10   C42   A    
C43   C47   A    
C9    C41   A    
C30   C34   A    
C5    C63   S    
C38   C54   A    
C11   C43   A    
C12   H12   S    
C31   C35   A    
C27   H23   S    
O4    V2    S    
C28   H24   S    
C56   H16   S    
C17   H17   S    
C23   F3    S    
C38   C42   A    
C4    O14   A    
C50   N2    S    
C22   F2    S    
C37   C41   A    
C18   C62   A    
C13   C57   A    
C11   H11   S    
N1    H25   S    
C2    C13   S    
C39   C43   A    
C45   C49   A    
C34   C62   A    
C15   C59   A    
N3    C67   S    
C33   C61   A    
