data_mof_unit_18006.cif
_audit_creation_date              2012-12-10T19:03:04-0500
_audit_creation_method            fapswitch 2.2
_symmetry_space_group_name_H-M    P1
_symmetry_Int_Tables_number       1
_space_group_crystal_system       triclinic
_cell_length_a                    10.879051
_cell_length_b                    10.821948
_cell_length_c                    9.556513
_cell_angle_alpha                 90.387142
_cell_angle_beta                  90.678185
_cell_angle_gamma                 91.396926
_cell_volume                      1124.67128707

loop_
_atom_site_label
_atom_site_type_symbol
_atom_type_description
_atom_site_fract_x
_atom_site_fract_y
_atom_site_fract_z
_atom_type_partial_charge
C1    C     C_R   0.497271 0.262381 0.499486 0.857910
C2    C     C_3   0.877841 0.500060 0.502558 -0.140586
C3    C     C_3   0.930825 0.635998 0.485079 -0.319724
C4    C     C_3   0.926100 0.425790 0.373415 0.172585
C5    C     C_R   0.480632 0.064914 0.624448 0.102713
C6    C     C_R   0.482565 0.129260 0.498720 -0.103624
C7    C     C_R   0.462288 0.062942 0.373210 -0.182006
C8    C     C_R   0.460946 0.933871 0.374392 -0.115933
C9    C     C_R   0.482998 0.870777 0.500115 -0.064598
C10   C     C_R   0.481921 0.938037 0.625053 0.116280
C11   C     C_3   0.564867 0.936560 0.750167 -0.436013
C12   C     C_R   0.260056 0.498332 0.500720 0.906456
C13   C     C_3   0.562313 0.076609 0.750410 -0.414553
C14   C     C_R   0.541984 0.601566 0.075798 0.196770
C15   C     C_R   0.445207 0.406401 0.072846 -0.048320
C16   C     C_R   0.444964 0.406529 0.924095 -0.018432
C17   C     C_R   0.543578 0.600636 0.928134 0.246807
C18   C     C_3   0.672006 0.651705 0.928704 -0.473857
C19   C     C_3   0.668292 0.657352 0.086940 -0.283962
C20   C     C_R   0.497633 0.737805 0.500230 0.892029
C21   C     C_R   0.739866 0.497996 0.500494 0.890536
C22   C     C_3   0.070484 0.421113 0.640649 -0.168094
C23   C     C_3   0.926365 0.435805 0.638706 0.166148
C24   C     C_3   0.076390 0.640046 0.502220 -0.202812
C25   C     C_3   0.068831 0.427787 0.374126 -0.453311
C26   C     C_3   0.122233 0.498994 0.506910 -0.192876
Cu1   Cu    Cu3+1 0.499990 0.499980 0.640670 1.037294
Cu2   Cu    Cu3+1 0.500010 0.500020 0.359330 0.993656
H1    H     H_    0.896615 0.472284 0.275489 0.200094
H2    H     H_    0.907583 0.657162 0.374453 0.183434
H3    H     H_    0.452813 0.109983 0.274139 0.174510
H4    H     H_    0.447442 0.884167 0.276761 0.203173
H5    H     H_    0.518316 0.894330 0.841533 0.237223
H6    H     H_    0.657123 0.901763 0.725628 0.227020
H7    H     H_    0.513898 0.115306 0.841998 0.208897
H8    H     H_    0.652907 0.121345 0.727334 0.213292
H9    H     H_    0.402603 0.329512 0.127141 0.136780
H10   H     H_    0.401724 0.329992 0.867464 0.146530
H11   H     H_    0.736187 0.582309 0.892637 0.275410
H12   H     H_    0.680894 0.742417 0.877295 0.238132
H13   H     H_    0.735165 0.595698 0.138336 0.180596
H14   H     H_    0.879126 0.343934 0.640289 0.190869
H15   H     H_    0.102703 0.468006 0.275423 0.225986
H16   H     H_    0.103347 0.332307 0.367646 0.205623
N1    N     N_R   0.500800 0.500930 0.147930 -0.199593
N2    N     N_R   0.500800 0.500890 0.852020 -0.178297
O1    O     O_R   0.500000 0.319640 0.618810 -0.588802
O2    O     O_R   0.500010 0.319680 0.381230 -0.588755
O3    O     O_R   0.317690 0.499960 0.618790 -0.525165
O4    O     O_R   0.317700 0.500000 0.381210 -0.591059
O5    O     O_R   0.499990 0.680320 0.618770 -0.550231
O6    O     O_R   0.500000 0.680360 0.381190 -0.600072
O7    O     O_R   0.682300 0.500000 0.618790 -0.520400
O8    O     O_R   0.682310 0.500040 0.381210 -0.594527
C27   C     C_2   0.118721 0.451002 0.790824 0.902805
O9    O     O_2   0.183213 0.541413 0.819797 -0.578649
O10   O     O_R   0.082474 0.372561 0.899805 -0.699496
H17   H     H_    0.117257 0.399949 0.994267 0.329145
C28   C     C_2   0.128427 0.709929 0.373297 0.870393
O11   O     O_2   0.201162 0.797279 0.387894 -0.571474
O12   O     O_R   0.088977 0.678187 0.237475 -0.772293
H18   H     H_    0.129119 0.731413 0.163107 0.360513
C29   C     C_2   0.103292 0.283376 0.626246 0.780585
O13   O     O_2   0.031515 0.201274 0.663072 -0.556458
O14   O     O_R   0.220030 0.250722 0.581742 -0.792392
H19   H     H_    0.230336 0.157908 0.578576 0.348325
C30   C     C_2   0.671013 0.787079 0.145466 0.910853
O15   O     O_2   0.609645 0.867445 0.091340 -0.635860
O16   O     O_R   0.745402 0.815385 0.261696 -0.754605
H20   H     H_    0.739528 0.904994 0.292006 0.352196
O17   O     O_3   0.884895 0.493608 0.760408 -0.696287
H21   H     H_    0.922500 0.577207 0.765942 0.377461
C31   C     C_2   0.123704 0.713009 0.633279 0.938828
O18   O     O_2   0.054929 0.748904 0.724307 -0.572133
O19   O     O_R   0.249451 0.739930 0.649222 -0.722579
H22   H     H_    0.270151 0.787662 0.738457 0.345444
C32   C     C_2   0.864694 0.742352 0.553875 0.916498
O20   O     O_2   0.786724 0.724407 0.642392 -0.624753
O21   O     O_R   0.895625 0.863430 0.514859 -0.707023
H23   H     H_    0.846577 0.927378 0.566621 0.338474
O22   O     O_3   0.874617 0.305088 0.364461 -0.706620
H24   H     H_    0.917416 0.251759 0.431994 0.347955

loop_
_geom_bond_atom_site_label_1
_geom_bond_atom_site_label_2
_ccdc_geom_bond_type
C27   O9    D    
C29   O14   S    
C11   C13   S    
C31   O18   D    
C18   H11   S    
C25   H15   S    
C4    C25   S    
C7    C8    A    
C32   O20   D    
C23   H14   S    
C24   C26   S    
C13   H7    S    
C20   O5    A    
C21   O8    A    
C24   C31   S    
C15   C16   A    
C18   C19   S    
C18   H12   S    
C15   H9    S    
C22   C29   S    
Cu2   O4    S    
C4    O22   S    
C8    C9    A    
C19   C30   S    
C9    C10   A    
C5    C13   S    
C4    H1    S    
C28   O11   D    
C31   O19   S    
C14   C17   A    
C3    C24   S    
O12   H18   S    
C30   O15   D    
C25   H16   S    
Cu1   O5    S    
C12   O3    A    
C14   N1    A    
C32   O21   S    
Cu2   N1    S    
C28   O12   S    
C7    H3    S    
C1    C6    S    
C8    H4    S    
C23   O17   S    
C11   H5    S    
C17   N2    A    
C13   H8    S    
C16   N2    A    
Cu2   O8    S    
C1    O1    A    
C25   C26   S    
O22   H24   S    
C29   O13   D    
C12   C26   S    
C30   O16   S    
C3    H2    S    
C2    C4    S    
O19   H22   S    
C9    C20   S    
C2    C21   S    
C17   C18   S    
C6    C7    A    
Cu1   N2    S    
C27   O10   S    
C15   N1    A    
C3    C32   S    
C2    C23   S    
Cu1   O1    S    
Cu2   O2    S    
C14   C19   S    
C11   H6    S    
C12   O4    A    
Cu1   O7    S    
C1    O2    A    
C22   C27   S    
C2    C3    S    
C5    C10   A    
C20   O6    A    
C21   O7    A    
Cu2   O6    S    
O10   H17   S    
C5    C6    A    
C24   C28   S    
O16   H20   S    
C10   C11   S    
O21   H23   S    
C19   H13   S    
O17   H21   S    
O14   H19   S    
C22   C26   S    
Cu1   Cu2   S    
C22   C23   S    
Cu1   O3    S    
C16   H10   S    
