data_mof_unit_11076.cif
_audit_creation_date              2013-03-05T16:00:56-0500
_audit_creation_method            fapswitch 2.2
_symmetry_space_group_name_H-M    P1
_symmetry_Int_Tables_number       1
_space_group_crystal_system       triclinic
_cell_length_a                    6.906152
_cell_length_b                    34.478721
_cell_length_c                    38.273845
_cell_angle_alpha                 99.610236
_cell_angle_beta                  89.631079
_cell_angle_gamma                 90.463072
_cell_volume                      8985.27641362

loop_
_atom_site_label
_atom_site_type_symbol
_atom_site_description
_atom_site_fract_x
_atom_site_fract_y
_atom_site_fract_z
_atom_type_partial_charge
O1    O     O_R   0.494320 0.461440 0.460990 -0.598948
O2    O     O_R   0.821450 0.462560 0.532500 -0.574102
O3    O     O_R   0.994330 0.538560 0.539010 -0.581560
C1    C     C_R   0.651766 0.454754 0.544359 1.066008
O4    O     O_R   0.823870 0.456770 0.460860 -0.605595
O5    O     O_R   0.996760 0.532730 0.466860 -0.606946
C2    C     C_R   0.654961 0.446122 0.447874 0.920402
O6    O     O_R   0.491880 0.467270 0.533140 -0.564840
O7    O     O_3   0.661650 0.524930 0.502050 -0.280924
V1    V     V_3+5 0.935500 0.495380 0.499620 1.206754
O8    O     O_R   0.326630 0.537440 0.467500 -0.606360
C3    C     C_R   0.158725 0.546650 0.456525 0.938964
O9    O     O_R   0.324210 0.543230 0.539140 -0.563779
C4    C     C_R   0.155524 0.553565 0.552439 1.062322
V2    V     V_3+5 0.435810 0.504620 0.500380 1.214976
O10   O     O_3   0.159790 0.475070 0.497950 -0.271777
C5    C     C_R   0.076656 0.833103 0.792411 0.461332
N1    N     N_R   0.090813 0.823231 0.825586 -0.182813
C6    C     C_R   0.124176 0.785034 0.829574 0.473829
C7    C     C_R   0.142132 0.755130 0.799652 -0.071912
C8    C     C_R   0.122988 0.764605 0.765592 -0.004209
C9    C     C_R   0.090480 0.804050 0.761892 -0.048566
C10   C     C_R   0.174409 0.715984 0.803307 -0.156766
C11   C     C_R   0.186893 0.685713 0.773758 0.143277
C12   C     C_R   0.167804 0.694979 0.738782 -0.115694
C13   C     C_R   0.134397 0.734730 0.735213 -0.019284
C14   C     C_R   0.110506 0.744896 0.701242 -0.053401
C15   C     C_R   0.079689 0.784373 0.697958 -0.106109
C16   C     C_R   0.070555 0.813570 0.727861 -0.104955
C17   C     C_R   0.178869 0.666593 0.707108 0.567909
N2    N     N_R   0.145742 0.677019 0.674612 -0.163103
C18   C     C_R   0.114614 0.715300 0.671211 0.534146
O11   O     O_2   0.049584 0.870972 0.788886 -0.544882
O12   O     O_2   0.136504 0.775787 0.862374 -0.549682
H1    H     H_    0.186767 0.708673 0.829659 0.173312
O13   O     O_2   0.223211 0.628885 0.708251 -0.516995
O14   O     O_2   0.085327 0.724641 0.638800 -0.544036
H2    H     H_    0.061567 0.792883 0.672191 0.181937
H3    H     H_    0.045715 0.843603 0.724194 0.182623
C19   C     C_R   0.291317 0.644166 0.618619 -0.031345
H4    H     H_    0.408435 0.665510 0.622223 0.159731
C20   C     C_R   0.294699 0.613879 0.589425 -0.141720
H5    H     H_    0.413619 0.612853 0.570778 0.162232
C21   C     C_R   0.147442 0.585182 0.584224 -0.311778
C22   C     C_R   0.994844 0.587259 0.609427 0.221397
C23   C     C_R   0.989544 0.618384 0.638744 0.264978
C24   C     C_R   0.140063 0.646783 0.643430 0.054391
C25   C     C_R   0.209800 0.862365 0.881683 -0.083652
H6    H     H_    0.345533 0.846633 0.878415 0.127569
C26   C     C_R   0.183558 0.892084 0.910968 -0.211000
H7    H     H_    0.299819 0.897884 0.929981 0.144327
C27   C     C_R   0.010792 0.913928 0.916025 -0.171142
C28   C     C_R   0.859278 0.904129 0.890721 0.121828
C29   C     C_R   0.888653 0.873793 0.861570 -0.114729
H8    H     H_    0.775414 0.866244 0.842089 0.124665
C30   C     C_R   0.063274 0.853220 0.856543 0.199533
C31   C     C_R   0.888346 0.854336 0.174164 0.550821
O15   O     O_2   0.773645 0.886247 0.178648 -0.488317
N3    N     N_R   0.016187 0.848838 0.146234 -0.186095
C32   C     C_R   0.147875 0.818980 0.142699 0.506251
C33   C     C_R   0.178297 0.896362 0.113404 -0.025066
C34   C     C_R   0.173824 0.921615 0.088313 -0.191704
C35   C     C_R   0.835924 0.905120 0.076992 -0.168434
C36   C     C_R   0.841296 0.879527 0.101730 -0.069810
C37   C     C_R   0.012160 0.874996 0.120302 0.185211
C38   C     C_R   0.024210 0.798252 0.196537 -0.071183
C39   C     C_R   0.881271 0.827739 0.198794 -0.224611
C40   C     C_R   0.740606 0.830252 0.226105 0.423621
C41   C     C_R   0.158165 0.794085 0.168215 0.027800
C42   C     C_R   0.002221 0.926450 0.069904 -0.136044
H9    H     H_    0.701485 0.907990 0.063265 0.139188
H10   H     H_    0.711972 0.863157 0.106471 0.145899
C43   C     C_R   0.149335 0.573612 0.429781 -0.197745
C44   C     C_R   0.905473 0.750831 0.276195 0.019872
C45   C     C_R   0.203187 0.721431 0.247797 0.055868
C46   C     C_R   0.059804 0.723695 0.274912 0.088261
C47   C     C_R   0.768357 0.752145 0.303981 -0.285465
C48   C     C_R   0.781995 0.728419 0.330091 0.416826
C49   C     C_R   0.932008 0.700478 0.328473 -0.229954
C50   C     C_R   0.071887 0.698622 0.301046 -0.047515
C51   C     C_R   0.225723 0.671778 0.299877 -0.012989
C52   C     C_R   0.234547 0.646370 0.324933 0.559658
N4    N     N_R   0.095824 0.647600 0.350753 -0.172936
C53   C     C_R   0.946412 0.673864 0.352982 0.616517
C54   C     C_R   0.271046 0.626000 0.399597 -0.070326
C55   C     C_R   0.295006 0.602099 0.425649 0.131268
C56   C     C_R   0.988607 0.569850 0.406914 -0.333692
C57   C     C_R   0.970230 0.592665 0.379946 0.403618
C58   C     C_R   0.111840 0.621687 0.376729 0.020110
O16   O     O_2   0.811509 0.673658 0.378559 -0.516947
C59   C     C_R   0.895489 0.776323 0.250320 0.027818
C60   C     C_R   0.035184 0.773146 0.222651 0.085118
C61   C     C_R   0.186702 0.745175 0.220843 0.057280
C62   C     C_R   0.749276 0.804937 0.251008 -0.290328
H11   H     H_    0.377892 0.648507 0.396826 0.179324
H12   H     H_    0.649061 0.772257 0.307124 0.177124
H13   H     H_    0.635455 0.808507 0.270520 0.173040
O17   O     O_2   0.269411 0.813386 0.114576 -0.568844
C63   C     C_R   0.300927 0.765314 0.165897 -0.073721
H14   H     H_    0.304200 0.937708 0.083666 0.139377
H15   H     H_    0.311123 0.893578 0.127642 0.157553
H16   H     H_    0.404515 0.761281 0.144233 0.163740
C64   C     C_R   0.360530 0.695631 0.248860 -0.207726
C65   C     C_R   0.370137 0.671142 0.274092 -0.069223
O18   O     O_2   0.380182 0.620242 0.323255 -0.476163
C66   C     C_R   0.315721 0.741513 0.191618 -0.218752
H17   H     H_    0.481550 0.693887 0.230824 0.129714
H18   H     H_    0.879359 0.547651 0.409116 0.182444
H19   H     H_    0.493290 0.651740 0.273382 0.176075
H20   H     H_    0.428665 0.719901 0.187240 0.130410
C67   C     C_R   0.761676 0.320477 0.646236 0.501558
O19   O     O_2   0.923419 0.321615 0.626476 -0.523656
N5    N     N_R   0.611479 0.345639 0.643168 -0.179612
C68   C     C_R   0.448876 0.345440 0.664097 0.495562
C69   C     C_R   0.586686 0.413434 0.629993 -0.143524
C70   C     C_R   0.585175 0.440368 0.606174 0.345086
C71   C     C_R   0.684181 0.387713 0.559103 -0.227833
C72   C     C_R   0.673623 0.360795 0.582700 -0.005352
C73   C     C_R   0.625672 0.373372 0.618513 0.145155
C74   C     C_R   0.587769 0.294516 0.692869 -0.063921
C75   C     C_R   0.749931 0.293717 0.670347 -0.076350
C76   C     C_R   0.899322 0.267150 0.673278 -0.081422
C77   C     C_R   0.437790 0.321181 0.690205 -0.053532
C78   C     C_R   0.638718 0.427482 0.570306 -0.280320
H21   H     H_    0.724157 0.377312 0.531742 0.132542
H22   H     H_    0.701956 0.330047 0.572957 0.144655
H23   H     H_    0.029566 0.266837 0.657312 0.179843
C79   C     C_R   0.512516 0.076083 0.931805 -0.194855
C80   C     C_R   0.691100 0.210852 0.741247 -0.122710
C81   C     C_R   0.434364 0.252371 0.772655 0.072123
C82   C     C_R   0.561341 0.219870 0.770369 0.069898
C83   C     C_R   0.787897 0.173905 0.736497 0.300489
C84   C     C_R   0.773423 0.149933 0.762675 -0.157639
C85   C     C_R   0.661943 0.161010 0.793384 -0.105838
C86   C     C_R   0.557556 0.196195 0.797391 -0.055163
C87   C     C_R   0.448844 0.207717 0.828482 -0.026086
C88   C     C_R   0.457969 0.185314 0.855991 0.458146
N6    N     N_R   0.547702 0.149213 0.850845 -0.177620
C89   C     C_R   0.644852 0.136599 0.819459 0.509651
C90   C     C_R   0.697577 0.103156 0.886746 -0.081246
C91   C     C_R   0.682813 0.078140 0.911842 -0.214849
C92   C     C_R   0.354931 0.100851 0.926384 0.104799
C93   C     C_R   0.363930 0.121548 0.897532 -0.090388
C94   C     C_R   0.536505 0.124385 0.878278 0.165440
O20   O     O_2   0.721583 0.100246 0.812851 -0.550401
C95   C     C_R   0.717198 0.239258 0.718380 0.060553
C96   C     C_R   0.576509 0.268964 0.718372 0.092408
C97   C     C_R   0.426820 0.273873 0.744143 0.048489
C98   C     C_R   0.883465 0.240462 0.696889 -0.116815
H24   H     H_    0.805945 0.060142 0.915521 0.138494
H25   H     H_    0.835469 0.105367 0.873631 0.145404
H26   H     H_    0.846706 0.121861 0.758381 0.214410
H27   H     H_    0.006876 0.221991 0.699074 0.161789
O21   O     O_2   0.297213 0.368538 0.659656 -0.517835
C99   C     C_R   0.280407 0.323169 0.713739 -0.084741
H28   H     H_    0.551408 0.423523 0.657605 0.174960
H29   H     H_    0.161096 0.342939 0.711948 0.173667
C100  C     C_R   0.322655 0.262793 0.803794 -0.223259
C101  C     C_R   0.334130 0.241465 0.831584 -0.089705
O22   O     O_2   0.379752 0.200099 0.887775 -0.577827
C102  C     C_R   0.276670 0.300527 0.740705 -0.232452
H30   H     H_    0.231887 0.288517 0.807963 0.134252
H31   H     H_    0.248843 0.251073 0.855255 0.169969
H32   H     H_    0.236846 0.136229 0.890188 0.135686
H33   H     H_    0.151360 0.303427 0.757940 0.133994
C103  C     C_R   0.702137 0.175244 0.197771 0.458272
N7    N     N_R   0.553375 0.176704 0.174337 -0.178514
C104  C     C_R   0.419045 0.206084 0.180164 0.452101
C105  C     C_R   0.428856 0.235192 0.210478 -0.032646
C106  C     C_R   0.582641 0.234904 0.234585 -0.023372
C107  C     C_R   0.724337 0.204843 0.228496 -0.098482
C108  C     C_R   0.286899 0.264549 0.217137 -0.131005
C109  C     C_R   0.297177 0.293652 0.247066 -0.119373
C110  C     C_R   0.449900 0.294251 0.271147 -0.047271
C111  C     C_R   0.592230 0.264726 0.264994 -0.025641
C112  C     C_R   0.742928 0.265036 0.289358 -0.077536
C113  C     C_R   0.884376 0.235786 0.283312 -0.143546
C114  C     C_R   0.879588 0.205517 0.253452 0.134120
C115  C     C_R   0.463893 0.323902 0.301243 0.485677
N8    N     N_R   0.611668 0.323717 0.325069 -0.182719
C116  C     C_R   0.749035 0.294692 0.319675 0.481285
O23   O     O_2   0.824442 0.144626 0.191483 -0.587302
O24   O     O_2   0.276399 0.207372 0.156451 -0.563842
H34   H     H_    0.166407 0.265099 0.199253 0.175643
H35   H     H_    0.184707 0.315683 0.251246 0.175548
O25   O     O_2   0.331946 0.352981 0.306277 -0.555054
O26   O     O_2   0.890191 0.294099 0.343797 -0.563919
H36   H     H_    0.999131 0.236986 0.302444 0.171265
C117  C     C_R   0.464099 0.362063 0.379329 -0.059351
H37   H     H_    0.332212 0.344853 0.374501 0.150209
C118  C     C_R   0.474026 0.391970 0.408950 -0.184021
H38   H     H_    0.348661 0.397318 0.426182 0.138929
C119  C     C_R   0.644698 0.414273 0.416526 -0.123036
C120  C     C_R   0.804544 0.406184 0.393572 -0.173177
H39   H     H_    0.937563 0.423015 0.398498 0.139904
C121  C     C_R   0.792997 0.376884 0.363498 -0.049108
H40   H     H_    0.916728 0.371861 0.345843 0.160756
C122  C     C_R   0.622941 0.354329 0.356080 0.191370
C123  C     C_R   0.693049 0.138984 0.119123 -0.052978
H41   H     H_    0.824940 0.156282 0.123429 0.146278
C124  C     C_R   0.680537 0.108987 0.089648 -0.191383
H42   H     H_    0.803819 0.103732 0.071890 0.138639
C125  C     C_R   0.510312 0.086334 0.082971 -0.132871
C126  C     C_R   0.352851 0.094411 0.106495 -0.176156
H43   H     H_    0.220149 0.077371 0.102175 0.139466
C127  C     C_R   0.367087 0.123848 0.136451 -0.067755
H44   H     H_    0.245788 0.128803 0.154685 0.152060
C128  C     C_R   0.537386 0.146496 0.143102 0.210563
O27   O     O_R   0.662230 0.032770 0.966890 -0.594301
O28   O     O_R   0.330090 0.043230 0.039150 -0.598175
O29   O     O_R   0.157350 0.967260 0.033130 -0.591900
C129  C     C_R   0.499097 0.054078 0.051992 0.934374
O30   O     O_R   0.332650 0.037450 0.967510 -0.607805
O31   O     O_R   0.159930 0.961430 0.960980 -0.592602
C130  C     C_R   0.502283 0.047527 0.957295 0.928952
O32   O     O_R   0.659640 0.038600 0.039040 -0.589718
O33   O     O_3   0.492510 0.975090 0.997960 -0.268657
V3    V     V_3+5 0.218600 0.004620 0.000380 1.133781
O34   O     O_R   0.830050 0.956730 0.960830 -0.597846
C131  C     C_R   0.998559 0.946340 0.947415 0.930553
O35   O     O_R   0.827490 0.962520 0.032470 -0.595166
C132  C     C_R   0.995531 0.953821 0.043768 0.952373
V4    V     V_3+5 0.718310 0.995320 0.999580 1.141419
O36   O     O_3   0.994270 0.024900 0.002040 -0.275471
C133  C     C_3   0.666927 0.925239 0.892485 -0.440134
C134  C     C_3   0.686024 0.965437 0.880685 -0.228329
C135  C     C_3   0.486760 0.982514 0.875571 -0.851629
H45   H     H_    0.406203 0.963038 0.854417 0.271452
H46   H     H_    0.401412 0.985592 0.900546 0.250140
H47   H     H_    0.503432 0.011844 0.867556 0.261836
H48   H     H_    0.767835 0.986084 0.900731 0.189274
H49   H     H_    0.766471 0.962320 0.855117 0.222405
H50   H     H_    0.561788 0.907295 0.874612 0.189404
H51   H     H_    0.600993 0.927915 0.919191 0.212572
N9    N     N_R   0.581690 0.857187 0.228555 0.267411
O37   O     O_R   0.537084 0.878199 0.258980 -0.337276
O38   O     O_R   0.459357 0.854886 0.202585 -0.382920
C136  C     C_3   0.477016 0.608570 0.448001 -0.361282
C137  C     C_3   0.433324 0.629359 0.485834 -0.283645
C138  C     C_3   0.618819 0.636471 0.507544 -0.836916
H52   H     H_    0.684898 0.608009 0.510714 0.261862
H53   H     H_    0.724650 0.653796 0.494366 0.267320
H54   H     H_    0.585124 0.653292 0.534184 0.246192
H55   H     H_    0.364374 0.658170 0.484793 0.220437
H56   H     H_    0.331559 0.611576 0.499356 0.179433
H57   H     H_    0.554241 0.580494 0.447887 0.218953
H58   H     H_    0.581956 0.627238 0.435963 0.211645
N10   N     N_R   0.646620 0.735034 0.359036 0.264674
O39   O     O_R   0.462089 0.735945 0.352633 -0.403973
O40   O     O_R   0.708512 0.749312 0.390648 -0.303425
C139  C     C_3   0.211903 0.644327 0.781703 -0.378771
C140  C     C_3   0.019687 0.621308 0.777475 -0.209626
C141  C     C_3   0.048738 0.578386 0.781207 -0.781387
H59   H     H_    0.147898 0.563839 0.760139 0.289297
H60   H     H_    0.110342 0.576393 0.807583 0.238998
H61   H     H_    0.907223 0.562681 0.778573 0.253083
H62   H     H_    0.916021 0.634945 0.798201 0.182416
H63   H     H_    0.953408 0.622371 0.751308 0.258288
H64   H     H_    0.330634 0.628865 0.765570 0.248222
H65   H     H_    0.260768 0.645296 0.809484 0.161382
N11   N     N_R   0.810678 0.585233 0.355615 0.256484
O41   O     O_R   0.652404 0.568752 0.364828 -0.374400
O42   O     O_R   0.829612 0.590884 0.322987 -0.364689
N12   N     N_R   0.878482 0.157505 0.703505 0.233636
O43   O     O_R   0.035543 0.136870 0.703349 -0.362107
O44   O     O_R   0.787940 0.157680 0.673812 -0.335465
N13   N     N_R   0.528545 0.480272 0.619014 0.261973
O45   O     O_R   0.409452 0.498046 0.600897 -0.338672
O46   O     O_R   0.567390 0.496351 0.651469 -0.294369
C142  C     C_3   0.183061 0.106220 0.951956 -0.405629
C143  C     C_3   0.069243 0.144636 0.953275 -0.268887
C144  C     C_3   0.920500 0.149683 0.983386 -0.859422
H66   H     H_    0.818739 0.124245 0.980273 0.257018
H67   H     H_    0.994123 0.152149 0.009392 0.255270
H68   H     H_    0.836191 0.176891 0.983000 0.260897
H69   H     H_    0.170645 0.170183 0.957377 0.234547
H70   H     H_    0.990304 0.144455 0.928133 0.201469
H71   H     H_    0.083401 0.080730 0.945448 0.202265
H72   H     H_    0.239145 0.106690 0.979197 0.201275
C145  C     C_3   0.038809 0.174401 0.248348 -0.324911
C146  C     C_3   0.202244 0.178986 0.275921 -0.389604
C147  C     C_3   0.351980 0.146465 0.266914 -0.796107
H73   H     H_    0.285236 0.117381 0.268460 0.270208
H74   H     H_    0.410639 0.146050 0.239803 0.246511
H75   H     H_    0.473414 0.151693 0.286042 0.254761
H76   H     H_    0.276433 0.207792 0.276623 0.221455
H77   H     H_    0.141531 0.177290 0.302598 0.226904
H78   H     H_    0.970067 0.145208 0.248694 0.236083
H79   H     H_    0.108019 0.174774 0.222115 0.225596
N14   N     N_R   0.848432 0.557245 0.606001 0.266268
O47   O     O_R   0.896586 0.520746 0.605443 -0.344081
O48   O     O_R   0.666667 0.566491 0.604944 -0.332442
N15   N     N_R   0.834969 0.620514 0.664333 0.250379
O49   O     O_R   0.749410 0.653796 0.675539 -0.427426
O50   O     O_R   0.784734 0.589590 0.677705 -0.280136

loop_
_geom_bond_atom_site_label_1
_geom_bond_atom_site_label_2
_geom_bond_distance
_ccdc_geom_bond_type
C117  C122  1.406840 A    
C146  H77   1.111646 S    
C19   C24   1.400419 A    
C120  C121  1.401215 A    
C8    C13   1.421042 A    
O33   V4    1.700393 S    
C9    C16   1.403200 A    
C69   H28   1.082841 S    
C99   H29   1.083366 S    
N9    O38   1.300564 A    
C105  C106  1.412523 A    
C97   C102  1.412334 A    
O2    C1    1.296374 A    
C96   C97   1.415689 A    
C103  O23   1.346370 S    
C102  H33   1.079860 S    
C1    O6    1.290567 A    
C70   N13   1.438013 S    
C7    C8    1.403116 A    
C118  C119  1.407134 A    
C51   C52   1.404627 A    
C116  O26   1.349555 S    
C140  H63   1.110117 S    
C86   C87   1.404634 A    
O31   C131  1.300043 A    
C115  O25   1.349343 S    
C77   C99   1.401914 A    
C47   C48   1.397177 A    
C99   C102  1.394188 A    
C109  H35   1.083161 S    
C147  H73   1.110663 S    
O27   C130  1.300238 A    
C113  H36   1.078350 S    
C20   C21   1.404777 A    
N4    C53   1.371198 A    
C133  H51   1.106238 S    
C4    C21   1.492910 S    
C15   C16   1.393805 A    
C71   C78   1.404095 A    
C133  C134  1.532160 S    
N1    C6    1.372349 A    
C32   O17   1.349778 S    
C100  H30   1.079569 S    
O1    C2    1.294414 A    
O5    C3    1.298844 A    
N11   O41   1.301505 A    
C61   C66   1.415223 A    
N2    C18   1.366581 A    
C127  C128  1.407293 A    
C121  H40   1.082891 S    
C31   N3    1.371512 A    
C38   C41   1.410236 A    
C67   C75   1.411244 A    
C106  C107  1.420915 A    
C134  H48   1.109680 S    
C63   C66   1.387576 A    
C12   C17   1.427303 A    
N15   O50   1.301211 A    
C1    C78   1.479107 S    
N14   O47   1.300911 A    
C124  H42   1.083306 S    
C52   O18   1.349715 S    
C76   H23   1.083278 S    
C117  C118  1.400996 A    
C98   H27   1.080023 S    
C72   C73   1.405188 A    
C43   C56   1.409671 A    
C64   C65   1.387104 A    
C28   C133  1.515596 S    
C136  C137  1.533892 S    
C87   C101  1.401141 A    
O8    V2    1.983483 S    
C89   O20   1.348681 S    
C56   H18   1.083303 S    
C6    C7    1.412781 A    
C83   C84   1.403876 A    
C44   C47   1.414701 A    
O34   C131  1.297640 A    
C136  H58   1.113075 S    
C140  H62   1.111966 S    
C26   C27   1.411093 A    
N9    O37   1.301182 A    
C7    C10   1.399722 A    
C107  C114  1.437994 A    
C10   C11   1.407821 A    
C137  H55   1.111850 S    
O1    V2    1.976139 S    
C23   N15   1.438049 S    
O9    C4    1.296820 A    
C54   H11   1.084031 S    
C2    C119  1.486716 S    
C142  H72   1.112118 S    
O7    V1    2.149597 S    
C49   C50   1.415906 A    
C142  C143  1.539080 S    
C88   O22   1.349234 S    
C74   C77   1.405888 A    
N1    C30   1.449252 S    
C83   N12   1.436228 S    
C80   C83   1.427454 A    
C139  H64   1.108369 S    
C57   C58   1.413031 A    
C25   C26   1.398598 A    
C120  H39   1.083201 S    
C74   C75   1.406471 A    
C123  H41   1.082994 S    
C135  H47   1.109589 S    
N2    C24   1.448208 S    
C8    C9    1.410572 A    
C145  H79   1.111216 S    
C45   C64   1.414915 A    
C124  C125  1.407039 A    
C34   C42   1.407793 A    
C16   H3    1.083088 S    
C103  N7    1.374879 A    
C143  H69   1.111851 S    
C84   H26   1.083370 S    
C5    O11   1.349454 S    
C85   C89   1.412659 A    
C31   C39   1.420998 A    
O4    V1    1.976359 S    
N10   O40   1.301300 A    
C91   H24   1.080393 S    
C5    N1    1.372629 A    
C134  C135  1.527697 S    
C106  C111  1.420071 A    
O30   C130  1.295714 A    
C137  C138  1.527179 S    
C112  C116  1.413330 A    
N4    C58   1.448640 S    
C29   C30   1.399913 A    
C27   C131  1.500459 S    
C75   C76   1.402537 A    
V2    O10   2.149345 S    
C55   C136  1.518971 S    
C81   C97   1.419376 A    
C39   C40   1.414913 A    
C76   C98   1.396479 A    
C129  O32   1.293818 A    
C147  H75   1.110498 S    
C139  C140  1.536592 S    
C11   C12   1.434301 A    
V4    O36   2.149421 S    
C121  C122  1.407296 A    
O31   V3    1.975875 S    
C59   C60   1.419181 A    
O4    C2    1.296991 A    
C54   C58   1.401201 A    
C127  H44   1.083041 S    
N12   O43   1.301431 A    
C38   C60   1.429999 A    
C62   H13   1.074276 S    
C146  C147  1.526615 S    
C109  C110  1.402899 A    
O29   C132  1.295434 A    
C138  H54   1.109869 S    
C40   C62   1.397581 A    
C118  H38   1.083147 S    
C143  H70   1.108130 S    
C44   C59   1.431961 A    
C33   H15   1.083053 S    
C45   C46   1.422886 A    
C92   C142  1.526158 S    
N3    C32   1.368325 A    
O5    V1    1.983179 S    
N15   O49   1.301255 A    
C141  H59   1.110921 S    
C40   N9    1.435912 S    
C114  C145  1.531226 S    
C139  H65   1.112712 S    
C141  H61   1.110415 S    
C95   C98   1.412540 A    
C145  H78   1.111433 S    
C108  H34   1.083158 S    
C48   N10   1.434954 S    
C135  H45   1.110931 S    
C35   C42   1.407977 A    
C15   H2    1.083113 S    
C17   N2    1.372114 A    
C22   N14   1.431791 S    
C104  O24   1.349742 S    
C136  H57   1.108362 S    
C138  H53   1.110944 S    
C26   H7    1.081917 S    
C13   C14   1.412992 A    
C117  H37   1.082906 S    
C67   N5    1.375680 A    
N5    C73   1.453618 S    
C18   O14   1.349499 S    
C90   C91   1.396736 A    
V3    O36   1.701342 S    
C90   H25   1.081722 S    
C80   C95   1.427930 A    
N5    C68   1.375811 A    
O3    C4    1.296298 A    
C44   C46   1.419125 A    
C74   C96   1.421300 A    
C34   H14   1.083061 S    
C68   C77   1.407472 A    
C41   C63   1.396169 A    
O28   C129  1.297207 A    
C144  H67   1.110889 S    
C25   H6    1.082877 S    
O33   V3    2.149651 S    
C126  C127  1.401995 A    
C119  C120  1.406756 A    
O6    V2    1.983408 S    
C69   C73   1.405473 A    
O9    V2    1.977221 S    
C100  C101  1.393431 A    
C49   C53   1.421964 A    
C84   C85   1.401168 A    
O27   V4    1.984041 S    
C105  C108  1.406177 A    
C101  H31   1.083278 S    
C125  C129  1.486017 S    
C104  C105  1.403252 A    
C46   C50   1.430282 A    
C20   H5    1.081493 S    
C144  H66   1.110676 S    
C108  C109  1.392931 A    
O2    V1    1.983147 S    
C93   H32   1.078607 S    
N7    C104  1.368783 A    
N10   O39   1.300907 A    
C45   C61   1.425640 A    
N11   O42   1.301265 A    
C95   C96   1.417477 A    
C66   H20   1.076003 S    
C53   O16   1.347871 S    
C146  H76   1.110265 S    
C25   C30   1.398333 A    
O29   V3    1.983141 S    
C143  C144  1.527838 S    
C23   C24   1.413799 A    
C112  C113  1.399983 A    
C123  C128  1.406260 A    
C70   C78   1.418166 A    
C67   O19   1.348910 S    
C135  H46   1.110117 S    
C14   C18   1.404156 A    
C48   C49   1.414452 A    
C147  H74   1.109373 S    
C11   C139  1.519206 S    
C21   C22   1.418189 A    
C90   C94   1.405426 A    
C81   C100  1.412215 A    
C35   H9    1.083031 S    
C50   C51   1.410254 A    
C6    O12   1.349212 S    
C54   C55   1.406895 A    
O35   C132  1.295816 A    
C22   C23   1.417774 A    
C64   H17   1.076184 S    
N13   O45   1.300061 A    
C28   C29   1.410986 A    
C85   C86   1.401986 A    
C51   C65   1.396256 A    
C115  N8    1.373740 A    
C88   N6    1.378846 A    
C47   H12   1.074329 S    
C82   C86   1.420512 A    
C5    C9    1.409394 A    
O28   V3    1.976225 S    
C17   O13   1.345952 S    
C137  H56   1.109960 S    
O30   V3    1.983100 S    
C133  H50   1.111653 S    
N7    C128  1.452657 S    
C142  H71   1.107928 S    
C81   C82   1.419321 A    
C12   C13   1.420692 A    
O32   V4    1.980232 S    
C145  C146  1.539283 S    
O35   V4    1.983299 S    
C111  C112  1.400639 A    
V1    O10   1.701501 S    
C71   C72   1.400089 A    
C36   C37   1.404623 A    
C59   C62   1.414471 A    
C138  H52   1.110730 S    
N13   O46   1.301632 A    
C29   H8    1.083843 S    
C31   O15   1.347893 S    
C65   H19   1.083707 S    
C71   H21   1.083515 S    
C32   C41   1.406171 A    
N6    C94   1.462588 S    
C144  H68   1.110336 S    
C134  H49   1.112072 S    
C19   C20   1.396416 A    
C60   C61   1.422292 A    
C42   C132  1.486566 S    
C38   C39   1.414700 A    
N14   O48   1.300179 A    
C79   C91   1.406129 A    
C36   H10   1.083114 S    
C57   N11   1.440834 S    
O7    V2    1.701692 S    
C33   C34   1.400461 A    
C10   H1    1.083723 S    
C123  C124  1.400003 A    
C43   C55   1.426756 A    
N8    C122  1.452733 S    
N6    C89   1.379221 A    
C113  C114  1.413534 A    
C79   C130  1.498296 S    
O34   V4    1.976978 S    
C35   C36   1.398738 A    
C33   C37   1.405770 A    
C103  C107  1.430706 A    
C63   H16   1.083551 S    
C126  H43   1.083161 S    
C56   C57   1.405246 A    
N12   O44   1.301573 A    
C52   N4    1.367734 A    
C141  H60   1.110860 S    
C14   C15   1.405636 A    
O3    V1    1.975636 S    
C92   C93   1.412115 A    
C87   C88   1.407969 A    
C19   H4    1.082930 S    
C72   H22   1.082449 S    
C125  C126  1.406881 A    
C69   C70   1.405874 A    
C3    C43   1.495231 S    
C79   C92   1.426116 A    
C110  C115  1.409957 A    
C68   O21   1.349512 S    
N3    C37   1.448764 S    
N8    C116  1.374026 A    
C93   C94   1.408533 A    
O8    C3    1.295636 A    
C27   C28   1.430073 A    
C140  C141  1.525288 S    
C80   C82   1.420558 A    
C110  C111  1.411072 A    
