data_mof_unit_37665.cif
_audit_creation_date              2012-12-10T16:58:22-0500
_audit_creation_method            fapswitch 2.2
_symmetry_space_group_name_H-M    P1
_symmetry_Int_Tables_number       1
_space_group_crystal_system       triclinic
_cell_length_a                    7.776642
_cell_length_b                    8.550933
_cell_length_c                    23.390934
_cell_angle_alpha                 91.750613
_cell_angle_beta                  85.327558
_cell_angle_gamma                 92.981076
_cell_volume                      1547.63149218

loop_
_atom_site_label
_atom_site_type_symbol
_atom_type_description
_atom_site_fract_x
_atom_site_fract_y
_atom_site_fract_z
_atom_type_partial_charge
C1    C     C_R   0.544319 0.794557 0.498721 0.927981
C2    C     C_R   0.650786 0.499558 0.292207 -0.199266
C3    C     C_R   0.352168 0.499483 0.766956 -0.094786
C4    C     C_R   0.647848 0.500695 0.233046 -0.094774
C5    C     C_R   0.509986 0.497593 0.791348 0.319748
C6    C     C_R   0.490023 0.502457 0.208652 0.319720
C7    C     C_2   0.562569 0.956179 0.508242 -0.084372
C8    C     C_2   0.437430 0.043821 0.491758 -0.084372
C9    C     C_R   0.501450 0.500132 0.610633 0.867844
C10   C     C_R   0.498551 0.499870 0.389367 0.867843
C11   C     C_R   0.450261 0.365099 0.119421 0.506445
C12   C     C_R   0.455681 0.205443 0.501279 0.927982
C13   C     C_R   0.549748 0.634953 0.880578 0.506449
C14   C     C_R   0.528938 0.639496 0.120264 0.507953
C15   C     C_R   0.471069 0.360557 0.879735 0.507958
C16   C     C_R   0.534502 0.641481 0.060514 -0.014639
C17   C     C_R   0.465505 0.358572 0.939486 -0.014642
C18   C     C_R   0.497057 0.500660 0.030077 -0.019800
C19   C     C_R   0.502950 0.499393 0.969923 -0.019800
C20   C     C_R   0.453954 0.361060 0.059650 -0.014314
C21   C     C_R   0.546054 0.638993 0.940350 -0.014318
C22   C     C_R   0.577281 0.779898 0.030678 -0.164429
C23   C     C_R   0.665310 0.496652 0.756934 -0.097951
C24   C     C_R   0.422726 0.220155 0.969322 -0.164431
C25   C     C_R   0.583045 0.778658 0.971052 -0.168711
C26   C     C_R   0.416962 0.221395 0.028947 -0.168709
C27   C     C_R   0.334687 0.503254 0.243066 -0.097932
C28   C     C_R   0.662896 0.497287 0.697680 -0.176749
C29   C     C_R   0.337099 0.502602 0.302319 -0.176764
C30   C     C_R   0.504658 0.499394 0.672794 -0.034718
C31   C     C_R   0.495344 0.500621 0.327206 -0.034714
C32   C     C_R   0.349227 0.500603 0.707795 -0.199251
H1    H     H_    0.606754 0.889288 0.053242 0.196701
H2    H     H_    0.774370 0.498264 0.310419 0.167921
H3    H     H_    0.232256 0.500454 0.793960 0.138397
H4    H     H_    0.767768 0.499834 0.206043 0.138409
H5    H     H_    0.937448 0.303363 0.427502 0.346028
H6    H     H_    0.062551 0.696636 0.572498 0.346027
H7    H     H_    0.393253 0.110764 0.946758 0.196700
H8    H     H_    0.616556 0.887173 0.949163 0.194119
H9    H     H_    0.383452 0.112880 0.050837 0.194120
H10   H     H_    0.787242 0.495266 0.776183 0.137784
H11   H     H_    0.212749 0.504536 0.223815 0.137795
H12   H     H_    0.784388 0.496603 0.671518 0.181720
H13   H     H_    0.215599 0.503168 0.328480 0.181724
H14   H     H_    0.225648 0.501999 0.689585 0.167918
I1    I     I_    0.757974 0.027413 0.565280 -0.235387
I2    I     I_    0.242026 0.972587 0.434720 -0.235382
N1    N     N_R   0.488050 0.502666 0.148042 -0.364237
N2    N     N_R   0.511958 0.497386 0.851958 -0.364242
N3    N     N_2   0.950330 0.457950 0.484560 0.185664
N4    N     N_2   0.049670 0.542050 0.515440 0.185663
O1    O     O_R   0.389250 0.738570 0.503790 -0.620478
O2    O     O_2   0.589099 0.767159 0.851156 -0.524932
O3    O     O_2   0.564117 0.772642 0.150540 -0.523293
O4    O     O_2   0.435884 0.227412 0.849459 -0.523288
O5    O     O_3   0.031182 0.358358 0.447608 -0.639084
O6    O     O_3   0.968818 0.641641 0.552392 -0.639072
O7    O     O_R   0.610750 0.261430 0.496210 -0.620478
O8    O     O_R   0.678390 0.711620 0.493890 -0.555930
O9    O     O_R   0.321610 0.288380 0.506110 -0.555929
O10   O     O_R   0.355400 0.513520 0.588790 -0.646671
O11   O     O_R   0.644600 0.486480 0.411210 -0.646669
O12   O     O_R   0.644550 0.486570 0.578900 -0.574794
O13   O     O_R   0.355450 0.513430 0.421100 -0.574792
O14   O     O_2   0.410915 0.232892 0.148843 -0.524940
Zn1   Zn    Zn3+2 0.306930 0.518000 0.506610 1.076213
Zn2   Zn    Zn3+2 0.693070 0.482000 0.493390 1.076212

loop_
_geom_bond_atom_site_label_1
_geom_bond_atom_site_label_2
_ccdc_geom_bond_type
C19   C21   A    
C2    C4    A    
C8    I2    S    
C1    O8    A    
C11   N1    A    
O7    Zn2   S    
C27   C29   A    
C9    O12   A    
O9    Zn1   S    
C10   O11   A    
C5    C23   A    
C11   O14   S    
C3    H3    S    
C8    C12   S    
C9    O10   A    
C15   O4    S    
C2    H2    S    
C28   C30   A    
C14   O3    S    
C13   C21   A    
C7    C8    D    
C29   C31   A    
H6    O6    S    
C23   C28   A    
C30   C32   A    
C12   O9    A    
N4    Zn1   S    
C20   C26   A    
C23   H10   S    
N4    O6    S    
O10   Zn1   S    
N3    O5    S    
O12   Zn2   S    
C4    C6    A    
C13   N2    A    
C17   C19   A    
C24   C26   A    
C13   O2    S    
C18   C20   A    
N3    Zn2   S    
C25   H8    S    
C3    C32   A    
O1    Zn1   S    
C14   C16   A    
C11   C20   A    
C10   O13   A    
C14   N1    A    
N3    N4    D    
C17   C24   A    
C27   H11   S    
C5    N2    S    
C24   H7    S    
C4    H4    S    
O8    Zn2   S    
C9    C30   S    
C16   C18   A    
C18   C19   A    
C15   N2    A    
C29   H13   S    
C15   C17   A    
C22   H1    S    
C1    O1    A    
O11   Zn2   S    
C21   C25   A    
O13   Zn1   S    
C1    C7    S    
C12   O7    A    
C32   H14   S    
C10   C31   S    
C28   H12   S    
H5    O5    S    
C6    N1    S    
C6    C27   A    
C26   H9    S    
C16   C22   A    
C2    C31   A    
C3    C5    A    
C22   C25   A    
C7    I1    S    
