data_mof_unit_22409.cif
_audit_creation_date              2012-12-11T16:24:26-0500
_audit_creation_method            fapswitch 2.2
_symmetry_space_group_name_H-M    P1
_symmetry_Int_Tables_number       1
_space_group_crystal_system       triclinic
_cell_length_a                    14.705415
_cell_length_b                    14.735849
_cell_length_c                    33.31365
_cell_angle_alpha                 95.830752
_cell_angle_beta                  95.935807
_cell_angle_gamma                 61.227276
_cell_volume                      6282.62725428

loop_
_atom_site_label
_atom_site_type_symbol
_atom_type_description
_atom_site_fract_x
_atom_site_fract_y
_atom_site_fract_z
_atom_type_partial_charge
C1    C     C_R   0.390919 0.700079 0.446105 0.539901
C2    C     C_1   0.314217 0.338404 0.229152 0.027749
C3    C     C_3   0.072885 0.876147 0.066025 -0.225346
C4    C     C_2   0.222883 0.745527 0.144092 0.633640
C5    C     C_2   0.465282 0.914821 0.090539 0.606757
C6    C     C_2   0.187140 0.524514 0.577492 0.600160
C7    C     C_2   0.135312 0.483157 0.913964 0.592448
C8    C     C_3   0.901423 0.482048 0.588604 -0.270212
C9    C     C_2   0.935078 0.436735 0.806493 0.567149
C10   C     C_3   0.782713 0.557557 0.716163 -0.283127
C11   C     C_3   0.474393 0.961129 0.797261 -0.291771
C12   C     C_3   0.158773 0.919609 0.563074 -0.282809
C13   C     C_1   0.320985 0.345089 0.265416 0.037537
C14   C     C_2   0.281692 0.717778 0.807843 0.608923
C15   C     C_2   0.239113 0.779991 0.894133 0.627724
C16   C     C_3   0.017456 0.511247 0.165106 -0.274823
C17   C     C_2   0.171949 0.532894 0.312715 0.564495
C18   C     C_2   0.869028 0.460342 0.432649 0.620493
C19   C     C_R   0.405774 0.386432 0.434042 0.549458
C20   C     C_R   0.288242 0.294672 0.101919 -0.006644
C21   C     C_R   0.761426 0.370811 0.411210 -0.024731
C22   C     C_R   0.826936 0.409578 0.400764 0.065665
C23   C     C_R   0.857199 0.392610 0.360395 0.113770
C24   C     C_R   0.827765 0.331023 0.332320 0.020768
C25   C     C_R   0.773752 0.283741 0.344848 -0.148519
C26   C     C_R   0.740044 0.304194 0.383588 -0.167940
C27   C     C_R   0.330483 0.353083 0.308699 0.013789
C28   C     C_R   0.854569 0.306692 0.207764 0.348260
C29   C     C_R   0.844599 0.320771 0.289066 0.341728
C30   C     C_R   0.828303 0.387328 0.142202 -0.127970
C31   C     C_R   0.702298 0.409354 0.447943 0.574335
C32   C     C_R   0.848025 0.379640 0.101326 0.029810
C33   C     C_R   0.935367 0.191431 0.103340 -0.153765
C34   C     C_R   0.913273 0.200334 0.143493 -0.124492
C35   C     C_R   0.864103 0.298129 0.163815 0.005708
C36   C     C_R   0.908654 0.279931 0.082458 0.001053
C37   C     C_R   0.372078 0.754615 0.408791 0.040521
C38   C     C_R   0.413186 0.270134 0.328080 -0.140895
C39   C     C_R   0.273086 0.800691 0.387712 0.136039
C40   C     C_R   0.265496 0.823823 0.347285 -0.097211
C41   C     C_R   0.354143 0.804750 0.328055 0.010711
C42   C     C_R   0.449506 0.770111 0.350628 -0.130950
C43   C     C_R   0.392864 0.702200 0.561006 0.538177
C44   C     C_R   0.458361 0.745368 0.390502 -0.162896
C45   C     C_R   0.342790 0.818530 0.202627 0.364774
C46   C     C_R   0.348905 0.813962 0.284101 0.347508
C47   C     C_R   0.267826 0.808667 0.131575 0.078006
C48   C     C_R   0.248861 0.841476 0.091649 0.096260
C49   C     C_R   0.433185 0.277200 0.369679 -0.132094
C50   C     C_R   0.387167 0.890281 0.104217 0.016828
C51   C     C_R   0.399921 0.863638 0.144135 -0.147327
C52   C     C_R   0.337250 0.828772 0.158696 -0.045952
C53   C     C_R   0.302729 0.891157 0.078898 -0.018504
C54   C     C_R   0.366336 0.365172 0.583202 0.007212
C55   C     C_R   0.405903 0.388092 0.548511 0.553359
C56   C     C_R   0.269983 0.436401 0.599734 -0.014719
C57   C     C_R   0.251084 0.423304 0.638603 -0.154926
C58   C     C_R   0.324443 0.339336 0.660544 0.021532
C59   C     C_R   0.413267 0.263217 0.641984 -0.124645
C60   C     C_R   0.392302 0.260134 0.165237 -0.119181
C61   C     C_R   0.434013 0.276081 0.603904 -0.145708
C62   C     C_R   0.308537 0.332305 0.784618 0.370231
C63   C     C_R   0.313596 0.334552 0.703612 0.355683
C64   C     C_R   0.225328 0.405988 0.850560 -0.085338
C65   C     C_R   0.218362 0.395232 0.891428 0.038829
C66   C     C_R   0.379019 0.231412 0.888314 -0.153835
C67   C     C_R   0.702821 0.412699 0.562367 0.562836
C68   C     C_R   0.386391 0.244646 0.848479 -0.139796
C69   C     C_R   0.306781 0.328674 0.828516 0.013601
C70   C     C_R   0.291816 0.301905 0.909488 -0.000905
C71   C     C_R   0.384194 0.242089 0.123527 -0.103733
C72   C     C_R   0.760805 0.376146 0.601683 0.015900
C73   C     C_R   0.801810 0.433713 0.626474 0.132805
C74   C     C_R   0.831778 0.411253 0.667589 0.166678
C75   C     C_R   0.827551 0.327325 0.682516 0.041577
C76   C     C_R   0.795860 0.265543 0.656950 -0.168159
C77   C     C_R   0.762338 0.289878 0.617028 -0.173438
C78   C     C_R   0.878509 0.217296 0.823258 -0.129605
C79   C     C_R   0.370210 0.367523 0.392584 -0.005160
C80   C     C_R   0.897200 0.212022 0.865226 -0.122276
C81   C     C_R   0.926777 0.360766 0.868025 -0.118773
C82   C     C_R   0.201952 0.370642 0.122313 -0.089412
C83   C     C_R   0.913968 0.363190 0.825963 0.062330
C84   C     C_R   0.888735 0.291181 0.803450 0.013030
C85   C     C_1   0.868999 0.296073 0.760359 0.028961
C86   C     C_1   0.851355 0.307023 0.724630 0.041762
C87   C     C_R   0.922569 0.283215 0.887927 -0.005096
C88   C     C_R   0.374691 0.756979 0.601448 0.041109
C89   C     C_R   0.273596 0.812568 0.616004 0.136268
C90   C     C_R   0.262687 0.839276 0.657542 -0.092776
C91   C     C_R   0.282176 0.447409 0.373593 -0.116657
C92   C     C_R   0.350301 0.814064 0.684121 0.014999
C93   C     C_R   0.208003 0.387863 0.164628 0.175009
C94   C     C_R   0.449202 0.766885 0.669364 -0.130415
C95   C     C_R   0.461426 0.738716 0.628309 -0.160488
C96   C     C_R   0.337193 0.946290 0.824814 0.122464
C97   C     C_R   0.322979 0.970754 0.865893 -0.142925
C98   C     C_R   0.274380 0.835412 0.869893 0.014013
C99   C     C_R   0.291145 0.808074 0.828026 0.011830
C100  C     C_R   0.319569 0.866386 0.805608 0.018097
C101  C     C_1   0.330327 0.846499 0.762665 0.069352
C102  C     C_1   0.339222 0.832135 0.726808 0.021731
C103  C     C_R   0.261874 0.442283 0.331533 0.064726
C104  C     C_R   0.304608 0.330112 0.185875 0.054030
C105  C     C_R   0.289545 0.918354 0.888452 -0.032891
C106  C     C_R   0.962304 0.264589 0.045306 0.568773
C107  C     C_R   0.272395 0.259569 0.060028 0.546353
C108  C     C_R   0.260872 0.956551 0.043162 0.563553
C109  C     C_R   0.964362 0.267327 0.930354 0.552508
C110  C     C_R   0.271568 0.264823 0.945578 0.552363
C111  C     C_R   0.256788 0.964353 0.929251 0.587565
C112  C     C_2   0.803743 0.476625 0.079579 0.589050
C113  C     C_3   0.872201 0.538014 0.338416 -0.209787
C114  C     C_3   0.145886 0.905232 0.436202 -0.281340
Cr1   Cr    Cr6+3 0.576280 0.580550 0.506370 1.042358
Cr2   Cr    Cr6+3 0.346780 0.572400 0.496520 1.108858
Cr3   Cr    Cr6+3 0.576960 0.347070 0.497150 1.017688
Cr4   Cr    Cr6+3 0.087320 0.083240 0.984860 1.031738
Cr5   Cr    Cr6+3 0.087720 0.316210 0.996740 1.094400
Cr6   Cr    Cr6+3 0.317350 0.090340 0.995890 1.083371
H1    H     H_    0.451855 0.183922 0.108449 0.157190
H2    H     H_    0.518959 0.756451 0.336900 0.147507
H3    H     H_    0.458900 0.871415 0.164288 0.183087
H4    H     H_    0.506990 0.218774 0.591872 0.139975
H5    H     H_    0.179537 0.479565 0.651967 0.130807
H6    H     H_    0.470403 0.196230 0.657771 0.140029
H7    H     H_    0.465211 0.201250 0.310705 0.125147
H8    H     H_    0.166702 0.474259 0.835828 0.195397
H9    H     H_    0.438745 0.161063 0.901434 0.148397
H10   H     H_    0.452305 0.185462 0.832758 0.139411
H11   H     H_    0.894604 0.150864 0.879737 0.142671
H12   H     H_    0.691350 0.272528 0.391045 0.148162
H13   H     H_    0.858679 0.162038 0.806113 0.129172
H14   H     H_    0.792966 0.200730 0.668361 0.125389
H15   H     H_    0.732724 0.243603 0.598722 0.144545
H16   H     H_    0.949040 0.414630 0.884889 0.187358
H17   H     H_    0.501334 0.214262 0.383499 0.139639
H18   H     H_    0.333056 0.035387 0.879827 0.133734
H19   H     H_    0.517317 0.747862 0.689843 0.111450
H20   H     H_    0.539623 0.696407 0.618115 0.145049
H21   H     H_    0.185965 0.877878 0.669204 0.121288
H22   H     H_    0.233151 0.517328 0.391189 0.177316
H23   H     H_    0.751163 0.236135 0.323691 0.146903
H24   H     H_    0.128458 0.411080 0.105279 0.137929
H25   H     H_    0.752422 0.631098 0.083063 0.360238
H26   H     H_    0.980111 0.381007 0.330018 0.259960
H27   H     H_    0.789726 0.580221 0.346530 0.158250
H28   H     H_    0.914254 0.577611 0.354699 0.217835
H29   H     H_    0.874642 0.542317 0.305495 0.159055
H30   H     H_    0.122521 0.822105 0.385957 0.263634
H31   H     H_    0.078329 0.910584 0.450449 0.151658
H32   H     H_    0.121423 0.979077 0.421846 0.140972
H33   H     H_    0.207901 0.893858 0.460313 0.149337
H34   H     H_    0.785604 0.463198 0.157347 0.179128
H35   H     H_    0.208506 0.793453 0.034305 0.276771
H36   H     H_    0.037116 0.921301 0.038741 0.145945
H37   H     H_    0.052576 0.930943 0.093178 0.168468
H38   H     H_    0.039024 0.823682 0.067450 0.184784
H39   H     H_    0.094994 0.735055 0.153341 0.347087
H40   H     H_    0.555884 0.983213 0.103883 0.335033
H41   H     H_    0.169391 0.630710 0.623790 0.296208
H42   H     H_    0.991220 0.605920 0.912051 0.354545
H43   H     H_    0.793761 0.579776 0.629854 0.248236
H44   H     H_    0.972116 0.448653 0.609510 0.137820
H45   H     H_    0.980737 0.114449 0.089618 0.132931
H46   H     H_    0.897630 0.549305 0.574748 0.170286
H47   H     H_    0.906803 0.423002 0.564058 0.177366
H48   H     H_    0.005764 0.459497 0.762717 0.355316
H49   H     H_    0.911787 0.495594 0.681674 0.255428
H50   H     H_    0.815635 0.599753 0.736921 0.175009
H51   H     H_    0.745363 0.527389 0.734528 0.170979
H52   H     H_    0.722966 0.612846 0.694962 0.114617
H53   H     H_    0.332317 0.083288 0.812393 0.262065
H54   H     H_    0.488001 0.009699 0.777770 0.166728
H55   H     H_    0.504762 0.881818 0.782472 0.159245
H56   H     H_    0.940297 0.130108 0.159180 0.155447
H57   H     H_    0.517227 0.957697 0.827072 0.144201
H58   H     H_    0.118964 0.848888 0.603605 0.263032
H59   H     H_    0.090818 0.930276 0.542227 0.149086
H60   H     H_    0.225220 0.899639 0.544549 0.146989
H61   H     H_    0.139349 0.993651 0.581115 0.135519
H62   H     H_    0.226143 0.660349 0.759724 0.353404
H63   H     H_    0.251928 0.717307 0.946904 0.348519
H64   H     H_    0.116319 0.439541 0.214763 0.276455
H65   H     H_    0.959045 0.563870 0.186776 0.167882
H66   H     H_    0.993897 0.453308 0.151255 0.157639
H67   H     H_    0.534904 0.711870 0.405988 0.148706
H68   H     H_    0.018343 0.559273 0.141679 0.171505
H69   H     H_    0.105878 0.616803 0.263590 0.351690
H70   H     H_    0.925964 0.462208 0.490338 0.343431
H71   H     H_    0.466395 0.216377 0.181675 0.132862
H72   H     H_    0.190478 0.854122 0.330642 0.141174
N1    N     N_R   0.827881 0.398394 0.229198 -0.231392
N2    N     N_R   0.435055 0.793852 0.265440 -0.223409
N3    N     N_R   0.431915 0.796734 0.225530 -0.212964
N4    N     N_R   0.236186 0.414739 0.764209 -0.213357
N5    N     N_2   0.923030 0.430670 0.348994 -0.489003
N6    N     N_2   0.181895 0.819338 0.406110 -0.481102
N7    N     N_2   0.184466 0.814573 0.063388 -0.485982
N8    N     N_2   0.809282 0.515771 0.610399 -0.504608
N9    N     N_2   0.864950 0.473193 0.694162 -0.491624
N10   N     N_2   0.364291 0.006179 0.802385 -0.502602
N11   N     N_2   0.183174 0.837819 0.589559 -0.468118
N12   N     N_R   0.238994 0.416036 0.724444 -0.232510
N13   N     N_2   0.118773 0.459576 0.186290 -0.498937
N14   N     N_R   0.384739 0.251858 0.724026 -0.233865
N15   N     N_R   0.382005 0.250619 0.763633 -0.239846
N16   N     N_R   0.822409 0.405368 0.269070 -0.223775
N17   N     N_R   0.870772 0.229149 0.267684 -0.222406
N18   N     N_R   0.876507 0.222070 0.227822 -0.218960
N19   N     N_R   0.256448 0.839354 0.221279 -0.181874
N20   N     N_R   0.259586 0.836507 0.261196 -0.210455
O1    O     O_R   0.679450 0.499830 0.463150 -0.486308
O2    O     O_R   0.340240 0.172500 0.045430 -0.497093
O3    O     O_R   0.309670 0.000990 0.032050 -0.455054
O4    O     O_R   0.480650 0.664000 0.464630 -0.517474
O5    O     O_R   0.168330 0.982130 0.939200 -0.490275
O6    O     O_R   0.000140 0.178170 0.944610 -0.501232
O7    O     O_R   0.983010 0.336750 0.948660 -0.496376
O8    O     O_R   0.181800 0.312190 0.959860 -0.464725
O9    O     O_R   0.338500 0.175680 0.956950 -0.526713
O10   O     O_R   0.308050 0.003930 0.950020 -0.492712
O11   O     O_3   0.164130 0.163270 0.992500 -0.272623
O12   O     O_R   0.356040 0.477400 0.534170 -0.458795
O13   O     O_R   0.323930 0.675950 0.455370 -0.472742
O14   O     O_R   0.354700 0.475360 0.451930 -0.489218
O15   O     O_R   0.494470 0.320860 0.448390 -0.520534
O16   O     O_R   0.662580 0.357570 0.460050 -0.505358
O17   O     O_R   0.680900 0.502040 0.551870 -0.468675
O18   O     O_R   0.481990 0.666040 0.546870 -0.517575
O19   O     O_R   0.325370 0.678160 0.544080 -0.458556
O20   O     O_2   0.781575 0.475551 0.043183 -0.472696
O21   O     O_R   0.783709 0.570338 0.101055 -0.714469
O22   O     O_2   0.280884 0.659083 0.156051 -0.476363
O23   O     O_R   0.495910 0.323070 0.537100 -0.526572
O24   O     O_R   0.115298 0.785596 0.143746 -0.702963
O25   O     O_2   0.502313 0.879220 0.057756 -0.484139
O26   O     O_R   0.500993 0.973731 0.116190 -0.714586
O27   O     O_2   0.159884 0.509320 0.542713 -0.458031
O28   O     O_R   0.137547 0.624640 0.595857 -0.663094
O29   O     O_2   0.150542 0.501751 0.949905 -0.493254
O30   O     O_R   0.041171 0.548097 0.893601 -0.666580
O31   O     O_2   0.906115 0.524788 0.821515 -0.492751
O32   O     O_R   0.992454 0.403832 0.772090 -0.672077
O33   O     O_2   0.322950 0.634985 0.823913 -0.471923
O34   O     O_R   0.663920 0.359620 0.542290 -0.512105
O35   O     O_R   0.226400 0.727190 0.770369 -0.694272
O36   O     O_2   0.171101 0.758534 0.880122 -0.467415
O37   O     O_R   0.282870 0.753762 0.933311 -0.675053
O38   O     O_2   0.098773 0.592120 0.332876 -0.536096
O39   O     O_R   0.171228 0.552688 0.272495 -0.680468
O40   O     O_2   0.877800 0.535408 0.425587 -0.501332
O41   O     O_R   0.898731 0.421532 0.471165 -0.699829
O42   O     O_3   0.500010 0.500010 0.500010 -0.262222
O43   O     O_R   0.170070 0.978950 0.027680 -0.520550
O44   O     O_R   0.001760 0.175230 0.026640 -0.511801
O45   O     O_R   0.984760 0.333570 0.037150 -0.479207
O46   O     O_R   0.183410 0.309240 0.041890 -0.500066

loop_
_geom_bond_atom_site_label_1
_geom_bond_atom_site_label_2
_ccdc_geom_bond_type
C45   N3    A    
C66   C68   A    
C21   C26   A    
Cr3   O16   S    
Cr6   O9    S    
C20   C82   A    
C51   H3    S    
C41   C42   A    
C97   H18   S    
C62   N4    A    
C93   N13   S    
C38   H7    S    
C43   O18   A    
C26   H12   S    
C14   C99   S    
C38   C49   A    
Cr2   O42   S    
C85   C86   T    
Cr6   O3    S    
H30   N6    S    
C21   C31   S    
C95   H20   S    
C45   N19   A    
C98   C105  A    
C5    O25   D    
C30   C35   A    
C61   H4    S    
C43   C88   S    
C32   C36   A    
C113  H28   S    
C21   C22   A    
C19   O14   A    
C34   C35   A    
C80   C87   A    
C49   H17   S    
C16   H65   S    
C57   H5    S    
C67   O34   A    
C78   C80   A    
C12   H59   S    
Cr3   O23   S    
C27   C38   A    
C28   N18   A    
C65   C70   A    
C73   N8    S    
C17   O38   D    
C33   C36   A    
C56   C57   A    
Cr1   O1    S    
C67   C72   S    
H39   O24   S    
C12   N11   S    
C2    C13   T    
C19   O15   A    
C24   C29   S    
C3    H36   S    
Cr1   O18   S    
C13   C27   S    
C109  O6    A    
C70   C110  S    
C14   O33   D    
C99   C100  A    
C28   C35   S    
C18   O40   D    
C68   C69   A    
C64   H8    S    
C63   N14   A    
Cr4   O6    S    
C3    H38   S    
C3    N7    S    
C23   C24   A    
C20   C71   A    
C11   H57   S    
C114  H32   S    
N4    N12   A    
C110  O8    A    
C8    N8    S    
C114  H33   S    
C79   C91   A    
C24   C25   A    
C92   C102  S    
C91   H22   S    
C97   C105  A    
N2    N3    A    
C105  C111  S    
C88   C95   A    
C80   H11   S    
H58   N11   S    
Cr5   O7    S    
C94   H19   S    
C4    O24   S    
C25   H23   S    
C42   C44   A    
C114  H31   S    
C1    O4    A    
C93   C104  A    
C92   C94   A    
C81   C83   A    
C46   N2    A    
C18   O41   S    
C48   C53   A    
N17   N18   A    
C54   C56   A    
C59   C61   A    
C50   C53   A    
Cr1   O42   S    
C74   C75   A    
C48   N7    S    
C36   C106  S    
C51   C52   A    
C90   H21   S    
C101  C102  T    
C106  O44   A    
C84   C85   S    
C82   H24   S    
C16   N13   S    
C8    H44   S    
C6    C56   S    
C39   C40   A    
H41   O28   S    
C106  O45   A    
C76   H14   S    
N14   N15   A    
H40   O26   S    
C15   O37   S    
C60   C71   A    
C10   H51   S    
Cr3   O34   S    
C6    O28   S    
C17   O39   S    
H64   N13   S    
C49   C79   A    
C62   C69   S    
Cr2   O14   S    
H53   N10   S    
C59   H6    S    
C111  O10   A    
Cr2   O12   S    
C19   C79   S    
C75   C76   A    
H63   O37   S    
N19   N20   A    
C72   C77   A    
C109  O7    A    
C8    H47   S    
C113  H29   S    
C7    C65   S    
H49   N9    S    
Cr3   O42   S    
C75   C86   S    
C90   C92   A    
C83   C84   A    
C40   H72   S    
C2    C104  S    
C41   C46   S    
C96   C97   A    
C7    O29   D    
Cr4   O5    S    
Cr5   O11   S    
C50   C51   A    
C15   O36   D    
C64   C69   A    
C76   C77   A    
C68   H10   S    
C29   N16   A    
C81   C87   A    
C8    H46   S    
C9    C83   S    
C31   O1    A    
C40   C41   A    
C89   N11   S    
C39   N6    S    
H43   N8    S    
Cr6   O11   S    
C107  O46   A    
C108  O43   A    
C16   H68   S    
Cr5   O8    S    
C5    C50   S    
C58   C59   A    
H42   O30   S    
C15   C98   S    
C9    O31   D    
C73   C74   A    
C62   N15   A    
H35   N7    S    
C63   N12   A    
C42   H2    S    
C81   H16   S    
C3    H37   S    
C14   O35   S    
C1    O13   A    
C58   C63   S    
C54   C55   S    
Cr3   O15   S    
C11   H54   S    
Cr6   O10   S    
C32   C112  S    
Cr5   O45   S    
H25   O21   S    
C18   C22   S    
C4    O22   D    
C71   H1    S    
C33   H45   S    
C12   H60   S    
C91   C103  A    
C72   C73   A    
C47   C48   A    
C74   N9    S    
C28   N1    A    
N1    N16   A    
C29   N17   A    
C47   C52   A    
C87   C109  S    
C54   C61   A    
C1    C37   S    
C10   H50   S    
C77   H15   S    
C6    O27   D    
C23   N5    S    
C20   C107  S    
C11   H55   S    
C112  O20   D    
Cr2   O13   S    
H69   O39   S    
C45   C52   S    
C66   H9    S    
H26   N5    S    
C10   N9    S    
C25   C26   A    
C96   N10   S    
Cr2   O19   S    
C60   C104  A    
H62   O35   S    
C64   C65   A    
C30   C32   A    
C110  O9    A    
C53   C108  S    
C113  H27   S    
C57   C58   A    
C66   C70   A    
C107  O2    A    
C37   C44   A    
C60   H71   S    
C46   N20   A    
C96   C100  A    
C7    O30   S    
C27   C103  A    
C100  C101  S    
C33   C34   A    
Cr1   O4    S    
C43   O19   A    
C55   O23   A    
C17   C103  S    
C94   C95   A    
C78   H13   S    
C12   H61   S    
Cr1   O17   S    
C108  O3    A    
C34   H56   S    
Cr4   O43   S    
Cr4   O11   S    
C44   H67   S    
H70   O41   S    
C78   C84   A    
C30   H34   S    
Cr5   O46   S    
C88   C89   A    
C67   O17   A    
C37   C39   A    
C98   C99   A    
C114  N6    S    
C10   H52   S    
C82   C93   A    
H48   O32   S    
C113  N5    S    
C22   C23   A    
Cr4   O44   S    
C16   H66   S    
C5    O26   S    
C111  O5    A    
C89   C90   A    
C31   O16   A    
C9    O32   S    
Cr6   O2    S    
C11   N10   S    
C112  O21   S    
C55   O12   A    
C4    C47   S    
