data_mof_unit_66524.cif
_audit_creation_date              2012-12-10T18:20:22-0500
_audit_creation_method            fapswitch 2.2
_symmetry_space_group_name_H-M    P1
_symmetry_Int_Tables_number       1
_space_group_crystal_system       triclinic
_cell_length_a                    21.530692
_cell_length_b                    21.567014
_cell_length_c                    22.159299
_cell_angle_alpha                 119.21813
_cell_angle_beta                  120.250132
_cell_angle_gamma                 89.03049
_cell_volume                      7391.212513

loop_
_atom_site_label
_atom_site_type_symbol
_atom_type_description
_atom_site_fract_x
_atom_site_fract_y
_atom_site_fract_z
_atom_type_partial_charge
C1    C     C_R   0.498931 0.120524 0.498649 0.862512
C2    C     C_R   0.500701 0.878870 0.500129 0.870802
C3    C     C_3   0.711785 0.207677 0.917091 0.150949
C4    C     C_3   0.289259 0.789994 0.082767 0.118058
C5    C     C_3   0.729381 0.324711 0.047089 -0.413674
C6    C     C_3   0.292291 0.719844 0.951524 -0.415872
C7    C     C_3   0.791303 0.290328 0.082464 0.198409
C8    C     C_3   0.207446 0.708906 0.917376 0.173590
C9    C     C_3   0.755687 0.208245 0.049079 -0.038836
C10   C     C_3   0.190901 0.785668 0.949852 -0.030869
C11   C     C_3   0.696240 0.164065 0.951833 -0.089466
C12   C     C_3   0.250256 0.838797 0.046899 -0.087566
C13   C     C_1   0.837356 0.337314 0.174080 -0.044554
C14   C     C_1   0.161811 0.662076 0.825796 -0.054484
C15   C     C_1   0.665353 0.162247 0.825504 -0.053929
C16   C     C_1   0.335602 0.836582 0.174513 -0.086038
C17   C     C_1   0.626699 0.125222 0.750534 -0.221443
C18   C     C_1   0.373532 0.874548 0.249445 -0.206843
C19   C     C_3   0.416450 0.192066 0.451043 0.018731
C20   C     C_3   0.583702 0.816800 0.564938 0.006861
C21   C     C_3   0.419365 0.266706 0.457701 -0.486105
C22   C     C_3   0.583897 0.741065 0.556576 -0.499635
C23   C     C_R   0.581320 0.081031 0.661854 0.899270
C24   C     C_R   0.418690 0.919329 0.338135 0.897117
C25   C     C_3   0.546582 0.260182 0.595239 0.361816
C26   C     C_3   0.474184 0.740589 0.407030 0.368162
C27   C     C_3   0.536542 0.191334 0.455870 -0.421454
C28   C     C_3   0.447782 0.796858 0.521818 -0.428291
C29   C     C_3   0.499489 0.189584 0.500518 0.108785
C30   C     C_3   0.501588 0.809811 0.498218 0.110334
C31   C     C_3   0.501535 0.310812 0.501306 0.019479
C32   C     C_3   0.501412 0.688777 0.498215 0.063473
C33   C     C_3   0.549283 0.331109 0.593177 -0.374972
C34   C     C_3   0.468367 0.669101 0.407714 -0.365056
C35   C     C_3   0.533510 0.260518 0.451259 0.011023
C36   C     C_3   0.456332 0.732025 0.533279 0.009867
C37   C     C_3   0.725300 0.576284 0.526108 -0.396376
C38   C     C_3   0.311474 0.462134 0.549153 -0.416934
C39   C     C_3   0.824657 0.487453 0.569737 -0.403414
C40   C     C_3   0.165295 0.459899 0.411604 -0.466191
C41   C     C_3   0.751734 0.479976 0.566387 0.021811
C42   C     C_3   0.232572 0.442625 0.404752 0.045260
C43   C     C_3   0.691960 0.499177 0.503723 0.165085
C44   C     C_3   0.308049 0.491837 0.496867 0.166653
C45   C     C_3   0.744457 0.439313 0.415588 -0.428893
C46   C     C_3   0.243107 0.578977 0.554955 -0.418389
C47   C     C_3   0.672670 0.439682 0.414509 -0.447351
C48   C     C_3   0.305244 0.573631 0.539656 -0.486044
C49   C     C_R   0.879911 0.501385 0.501857 0.838191
C50   C     C_R   0.123544 0.501942 0.505217 0.837632
C51   C     C_R   0.919293 0.419281 0.338062 0.911949
C52   C     C_R   0.080652 0.580678 0.661913 0.895641
C53   C     C_R   0.377718 0.495513 0.498935 0.847527
C54   C     C_R   0.622275 0.497857 0.500985 0.824124
C55   C     C_R   0.499848 0.378618 0.500502 0.847865
C56   C     C_R   0.502175 0.621267 0.499476 0.890259
C57   C     C_3   0.812655 0.502001 0.503254 0.148980
C58   C     C_3   0.190884 0.499516 0.504054 0.178192
C59   C     C_3   0.796497 0.578050 0.525900 -0.379752
C60   C     C_3   0.237114 0.457533 0.543573 -0.383246
C61   C     C_3   0.684879 0.281387 0.949135 0.387929
C62   C     C_3   0.342863 0.761893 0.049479 0.398718
C63   C     C_3   0.801333 0.228418 0.954308 0.328210
C64   C     C_3   0.224968 0.720396 0.048348 0.326308
C65   C     C_3   0.842582 0.288815 0.051282 -0.540196
C66   C     C_3   0.187945 0.668143 0.950612 -0.460300
C67   C     C_1   0.874938 0.375221 0.249136 -0.216876
C68   C     C_1   0.124637 0.624511 0.750775 -0.209649
H1    H     H_    0.682851 0.586894 0.479038 0.146376
H2    H     H_    0.359593 0.500540 0.616039 0.184699
H3    H     H_    0.895919 0.279576 0.088675 0.163334
H4    H     H_    0.125683 0.646759 0.914638 0.175993
H5    H     H_    0.642169 0.166640 0.943995 0.216511
H6    H     H_    0.293558 0.873617 0.054663 0.217591
H7    H     H_    0.690541 0.325938 0.066076 0.185539
H8    H     H_    0.309839 0.749375 0.930984 0.185871
H9    H     H_    0.802994 0.183942 0.061860 0.111643
H10   H     H_    0.134477 0.772702 0.937330 0.112381
H11   H     H_    0.387623 0.189248 0.479807 0.182668
H12   H     H_    0.623785 0.829339 0.551994 0.184215
H13   H     H_    0.383268 0.256143 0.394030 0.202172
H14   H     H_    0.613475 0.749776 0.619528 0.204549
H15   H     H_    0.737157 0.447385 0.366700 0.165752
H16   H     H_    0.268255 0.606022 0.623083 0.168971
H17   H     H_    0.396082 0.300477 0.493671 0.146241
H18   H     H_    0.616415 0.714205 0.530058 0.146792
H19   H     H_    0.527911 0.370020 0.628675 0.177492
H20   H     H_    0.499268 0.634265 0.383593 0.158411
H21   H     H_    0.595402 0.189756 0.488270 0.200855
H22   H     H_    0.388416 0.787327 0.474523 0.199169
H23   H     H_    0.507668 0.140126 0.391369 0.163113
H24   H     H_    0.461104 0.847765 0.581207 0.164993
H25   H     H_    0.492588 0.240894 0.384188 0.176074
H26   H     H_    0.492928 0.757888 0.602437 0.135338
H27   H     H_    0.608259 0.363453 0.625456 0.163984
H28   H     H_    0.409351 0.632554 0.363308 0.191571
H29   H     H_    0.738458 0.622459 0.587577 0.178137
H30   H     H_    0.321130 0.406683 0.526851 0.148564
H31   H     H_    0.632549 0.451879 0.367900 0.196519
H32   H     H_    0.359920 0.612859 0.600429 0.189508
H33   H     H_    0.839934 0.435039 0.558107 0.161583
H34   H     H_    0.143623 0.496545 0.388678 0.159621
H35   H     H_    0.873303 0.533072 0.632777 0.164612
H36   H     H_    0.116702 0.408732 0.370867 0.154895
H37   H     H_    0.753894 0.384054 0.399762 0.181575
H38   H     H_    0.212069 0.614877 0.536000 0.189711
H39   H     H_    0.788071 0.590342 0.479446 0.181265
H40   H     H_    0.250236 0.482454 0.607616 0.156010
H41   H     H_    0.727947 0.419683 0.536560 0.102162
H42   H     H_    0.232965 0.460338 0.365364 0.145028
H43   H     H_    0.644817 0.383184 0.392881 0.177399
H44   H     H_    0.291467 0.591586 0.496697 0.180028
H45   H     H_    0.845373 0.623794 0.588851 0.161482
H46   H     H_    0.203556 0.398083 0.505107 0.180510
H47   H     H_    0.756270 0.384782 0.078216 0.167286
H48   H     H_    0.300153 0.664170 0.921117 0.165366
H49   H     H_    0.860143 0.345411 0.066142 0.191592
H50   H     H_    0.207150 0.617926 0.934277 0.189916
O1    O     O_R   0.447710 0.092600 0.500010 -0.633670
O2    O     O_R   0.552290 0.907400 0.499990 -0.636961
O3    O     O_R   0.441990 0.534630 0.569310 -0.631497
O4    O     O_R   0.558010 0.465370 0.430690 -0.630479
O5    O     O_R   0.465370 0.372730 0.430660 -0.635477
O6    O     O_R   0.534630 0.627270 0.569340 -0.637952
O7    O     O_R   0.534650 0.442080 0.569370 -0.636706
O8    O     O_R   0.465350 0.557920 0.430630 -0.630637
O9    O     O_R   0.552280 0.092600 0.499960 -0.632363
O10   O     O_R   0.447720 0.907400 0.500040 -0.629512
O11   O     O_R   0.509140 0.061430 0.622880 -0.616606
O12   O     O_R   0.490860 0.938570 0.377120 -0.618681
O13   O     O_R   0.613710 0.061430 0.622840 -0.621884
O14   O     O_R   0.386290 0.938570 0.377160 -0.620072
O15   O     O_R   0.907580 0.552300 0.500030 -0.631861
O16   O     O_R   0.092420 0.447700 0.499970 -0.632951
O17   O     O_R   0.907560 0.447760 0.500050 -0.631547
O18   O     O_R   0.092440 0.552240 0.499950 -0.630214
O19   O     O_R   0.938770 0.490850 0.377130 -0.614461
O20   O     O_R   0.061230 0.509150 0.622870 -0.620013
O21   O     O_R   0.938740 0.386300 0.377150 -0.617420
O22   O     O_R   0.061260 0.613700 0.622850 -0.619199
O23   O     O_R   0.372700 0.465280 0.430600 -0.625626
O24   O     O_R   0.627300 0.534720 0.569400 -0.624412
Zn1   Zn    Zn3+2 0.430180 1.000000 0.500030 0.929271
Zn2   Zn    Zn3+2 0.569820 0.000000 0.499970 0.925524
Zn3   Zn    Zn3+2 0.000200 0.569810 0.499990 0.928712
Zn4   Zn    Zn3+2 0.999800 0.430190 0.500010 0.925328
Zn5   Zn    Zn3+2 0.453740 0.453690 0.407380 0.905984
Zn6   Zn    Zn3+2 0.546260 0.546310 0.592620 0.905530
C69   C     C_3   0.685677 0.078165 0.905204 -0.424043
C70   C     C_3   0.604579 0.030796 0.856734 -0.918043
H51   H     H_    0.587734 0.043730 0.900439 0.260877
H52   H     H_    0.565255 0.041725 0.808740 0.272922
H53   H     H_    0.600460 0.970720 0.824429 0.253078
H54   H     H_    0.699732 0.059200 0.858884 0.249189
H55   H     H_    0.722958 0.063498 0.950287 0.203967
C71   C     C_3   0.219304 0.896804 0.093064 -0.433933
C72   C     C_3   0.260911 0.977520 0.134225 -0.909176
H56   H     H_    0.321808 0.991052 0.181682 0.268385
H57   H     H_    0.254642 0.986095 0.086165 0.259164
H58   H     H_    0.236953 0.016007 0.166054 0.258543
H59   H     H_    0.158496 0.886996 0.048759 0.203418
H60   H     H_    0.224680 0.893569 0.143682 0.227064
C73   C     C_3   0.727213 0.196717 0.096327 -0.386729
C74   C     C_3   0.670742 0.236510 0.107402 -0.879307
H61   H     H_    0.698571 0.297464 0.153553 0.256573
H62   H     H_    0.621560 0.224346 0.046852 0.246376
H63   H     H_    0.649377 0.216507 0.133115 0.244396
H64   H     H_    0.701178 0.136045 0.062852 0.209874
H65   H     H_    0.776622 0.214568 0.159838 0.208848
C75   C     C_3   0.177813 0.823370 0.901313 -0.383154
C76   C     C_3   0.239405 0.837067 0.889908 -0.872457
H66   H     H_    0.295564 0.867523 0.950369 0.244139
H67   H     H_    0.240101 0.783750 0.844020 0.259393
H68   H     H_    0.226660 0.871826 0.863674 0.243587
H69   H     H_    0.124121 0.788980 0.837839 0.207350
H70   H     H_    0.169154 0.877777 0.933942 0.208935
C77   C     C_3   0.597772 0.262306 0.909797 -0.896976
H71   H     H_    0.578442 0.235900 0.931755 0.203505
H72   H     H_    0.580469 0.313823 0.927781 0.235273
H73   H     H_    0.564118 0.226731 0.840146 0.255082
C78   C     C_3   0.409534 0.827418 0.087214 -0.900928
H74   H     H_    0.392447 0.863442 0.063206 0.203981
H75   H     H_    0.442452 0.862964 0.156812 0.253989
H76   H     H_    0.449438 0.805682 0.070371 0.238162
C79   C     C_3   0.365665 0.125614 0.358052 -0.955312
H77   H     H_    0.306425 0.127106 0.331068 0.245828
H78   H     H_    0.382956 0.128119 0.319642 0.246742
H79   H     H_    0.366278 0.071377 0.351762 0.257691
C80   C     C_3   0.616195 0.881726 0.656405 -0.947112
H80   H     H_    0.676474 0.887602 0.697777 0.245033
H81   H     H_    0.613576 0.935369 0.661463 0.246185
H82   H     H_    0.586055 0.872147 0.680913 0.245995
C81   C     C_3   0.510359 0.264712 0.642333 -0.923999
H83   H     H_    0.454222 0.273381 0.615001 0.217669
H84   H     H_    0.505049 0.214016 0.643001 0.256936
H85   H     H_    0.546076 0.313003 0.708905 0.242186
C82   C     C_3   0.529552 0.744114 0.382241 -0.913966
H86   H     H_    0.585642 0.741975 0.423729 0.215218
H87   H     H_    0.507023 0.695110 0.317825 0.237252
H88   H     H_    0.536763 0.794242 0.381196 0.264640
C83   C     C_3   0.610923 0.301386 0.479429 -0.420359
C84   C     C_3   0.631491 0.255191 0.417314 -0.920587
H89   H     H_    0.635980 0.201578 0.411766 0.265634
H90   H     H_    0.588233 0.243652 0.354406 0.258337
H91   H     H_    0.686800 0.286501 0.439360 0.245838
H92   H     H_    0.609025 0.354396 0.483101 0.196797
H93   H     H_    0.656432 0.315138 0.542686 0.206230
C85   C     C_3   0.381961 0.686622 0.506289 -0.419347
C86   C     C_3   0.319894 0.637414 0.412065 -0.882546
H94   H     H_    0.311123 0.667214 0.381063 0.255644
H95   H     H_    0.332700 0.585458 0.381366 0.267560
H96   H     H_    0.265471 0.620818 0.402270 0.231667
H97   H     H_    0.396920 0.651043 0.531199 0.203639
H98   H     H_    0.358400 0.726013 0.538107 0.204072
C87   C     C_3   0.628814 0.260099 0.648589 -0.902146
H99   H     H_    0.629709 0.210611 0.652349 0.251592
H100  H     H_    0.662191 0.262132 0.624220 0.221302
H101  H     H_    0.659302 0.310186 0.714032 0.232973
C88   C     C_3   0.396672 0.734360 0.336344 -0.921224
H102  H     H_    0.378011 0.683727 0.274313 0.238884
H103  H     H_    0.351225 0.730170 0.345095 0.220902
H104  H     H_    0.400666 0.783171 0.332150 0.237167
C89   C     C_3   0.769744 0.516438 0.656129 -0.371095
C90   C     C_3   0.799244 0.601802 0.713058 -0.837633
H105  H     H_    0.842204 0.624759 0.709677 0.244309
H106  H     H_    0.752573 0.626532 0.697395 0.264715
H107  H     H_    0.825956 0.619613 0.779157 0.229039
H108  H     H_    0.720081 0.496421 0.652541 0.210201
H109  H     H_    0.813557 0.495141 0.688383 0.186785
C91   C     C_3   0.215884 0.355890 0.355944 -0.424994
C92   C     C_3   0.268255 0.325379 0.329628 -0.846258
H110  H     H_    0.271982 0.346463 0.294411 0.269553
H111  H     H_    0.324321 0.340449 0.385741 0.270522
H112  H     H_    0.246088 0.263550 0.288116 0.228424
H113  H     H_    0.214079 0.334148 0.391373 0.214443
H114  H     H_    0.158558 0.330116 0.296461 0.203885
C93   C     C_3   0.698183 0.335225 0.926083 -0.914073
H115  H     H_    0.662214 0.372744 0.927884 0.240740
H116  H     H_    0.755757 0.375401 0.972999 0.213317
H117  H     H_    0.684600 0.303965 0.861448 0.237546
C94   C     C_3   0.382882 0.708396 0.071772 -0.906630
H118  H     H_    0.421613 0.694680 0.051111 0.233672
H119  H     H_    0.418001 0.734477 0.140726 0.243124
H120  H     H_    0.342682 0.653648 0.037769 0.233408
C95   C     C_3   0.834551 0.160062 0.943214 -0.338994
C96   C     C_3   0.813578 0.100535 0.854453 -0.912043
H121  H     H_    0.752786 0.081630 0.805300 0.264080
H122  H     H_    0.844442 0.120942 0.836845 0.263543
H123  H     H_    0.829834 0.051049 0.853392 0.240270
H124  H     H_    0.897166 0.181361 0.984331 0.204372
H125  H     H_    0.822961 0.131126 0.967256 0.171269
C97   C     C_3   0.162014 0.746636 0.063622 -0.396061
C98   C     C_3   0.100563 0.686609 0.039194 -0.890159
H126  H     H_    0.070890 0.639227 0.972751 0.251340
H127  H     H_    0.123643 0.665590 0.080474 0.267409
H128  H     H_    0.057641 0.711764 0.047202 0.240586
H129  H     H_    0.189506 0.789841 0.131476 0.193209
H130  H     H_    0.130466 0.771787 0.029331 0.193892
C99   C     C_3   0.822667 0.260430 0.913947 -0.332905
C100  C     C_3   0.907410 0.283982 0.950982 -0.923616
H131  H     H_    0.941385 0.322862 0.020328 0.255272
H132  H     H_    0.929274 0.235752 0.934214 0.263210
H133  H     H_    0.916534 0.313280 0.925184 0.246264
H134  H     H_    0.791469 0.219533 0.845056 0.216578
H135  H     H_    0.807412 0.310595 0.921055 0.198091
C101  C     C_3   0.258859 0.680502 0.097375 -0.311377
C102  C     C_3   0.227012 0.595186 0.045707 -0.921479
H136  H     H_    0.164971 0.575480 0.000065 0.274785
H137  H     H_    0.253303 0.567796 0.011460 0.243920
H138  H     H_    0.240449 0.576798 0.088655 0.246056
H139  H     H_    0.320614 0.695564 0.134827 0.192038
H140  H     H_    0.250971 0.703236 0.149297 0.201016

loop_
_geom_bond_atom_site_label_1
_geom_bond_atom_site_label_2
_ccdc_geom_bond_type
C95   H124  S    
C63   C65   S    
O21   Zn4   S    
C61   C77   S    
C85   H97   S    
C12   H6    S    
C27   C29   S    
O1    Zn1   S    
C83   C84   S    
C38   C60   S    
C60   H46   S    
C89   C90   S    
O2    Zn2   S    
C38   H30   S    
C90   H105  S    
C38   H2    S    
C10   H10   S    
C49   C57   S    
C39   C41   S    
C75   H70   S    
C78   H74   S    
C56   O6    A    
C82   H88   S    
C8    C66   S    
C76   H67   S    
C45   C57   S    
C72   H56   S    
C22   C32   S    
C18   C24   S    
C22   H14   S    
O19   Zn3   S    
C74   H61   S    
C19   C21   S    
C34   H28   S    
C37   H1    S    
C101  H139  S    
C87   H100  S    
C36   C85   S    
C98   H126  S    
C10   C12   S    
C102  H138  S    
C79   H78   S    
C40   H36   S    
C75   C76   S    
C58   C60   S    
C39   C57   S    
C4    C62   S    
C86   H96   S    
C47   H31   S    
C23   O11   A    
C9    H9    S    
C82   H87   S    
C94   H118  S    
C1    O1    A    
C45   C47   S    
C89   H109  S    
C80   H81   S    
C26   C82   S    
C46   C58   S    
C86   H95   S    
C64   C97   S    
C69   H55   S    
C44   C53   S    
C26   C34   S    
C66   H4    S    
C37   C59   S    
C55   O7    A    
C45   H37   S    
C85   C86   S    
C81   H84   S    
C84   H91   S    
C52   O20   A    
C83   H92   S    
C31   C33   S    
C91   H114  S    
C56   O8    A    
C5    H7    S    
C4    C12   S    
O12   Zn2   S    
O18   Zn3   S    
C60   H40   S    
C24   O12   A    
C53   O3    A    
C77   H73   S    
O14   Zn1   S    
C40   C42   S    
C95   H125  S    
C71   H60   S    
C72   H57   S    
C41   H41   S    
C95   C96   S    
C5    H47   S    
C102  H136  S    
C41   C43   S    
C91   C92   S    
C42   C44   S    
C12   C71   S    
C100  H133  S    
C63   C95   S    
C33   H27   S    
C37   H29   S    
C62   C78   S    
C11   C69   S    
C97   H129  S    
C39   H33   S    
C14   C68   T    
C46   C48   S    
C75   H69   S    
C3    C61   S    
C25   C29   S    
C48   H32   S    
C76   H68   S    
C96   H122  S    
C40   C58   S    
C84   H89   S    
C20   H12   S    
C97   H130  S    
C50   C58   S    
O24   Zn6   S    
C25   C87   S    
C3    C11   S    
C100  H132  S    
C99   H134  S    
C11   H5    S    
C87   H101  S    
C88   H102  S    
C5    C7    S    
C2    O2    A    
C89   H108  S    
C35   C83   S    
C79   H79   S    
C34   H20   S    
C77   H72   S    
C65   H3    S    
C70   H53   S    
C21   H17   S    
C59   H39   S    
C49   O17   A    
C90   H106  S    
C94   H119  S    
C32   C34   S    
C4    C16   S    
C80   H82   S    
C19   H11   S    
C69   H54   S    
C38   C44   S    
C99   H135  S    
C70   H52   S    
C63   C99   S    
C88   H103  S    
C21   C31   S    
C24   O14   A    
C43   C54   S    
C82   H86   S    
C92   H110  S    
C7    C13   S    
C59   H45   S    
O17   Zn4   S    
C1    C29   S    
C86   H94   S    
C83   H93   S    
O3    Zn6   S    
C5    C61   S    
C91   H113  S    
C92   H111  S    
C17   C23   S    
O4    Zn5   S    
C27   H23   S    
C51   O21   A    
C9    C11   S    
C76   H66   S    
C6    H48   S    
C41   C89   S    
C84   H90   S    
C77   H71   S    
C46   H16   S    
C42   C91   S    
C8    C10   S    
C54   O24   A    
C21   H13   S    
C71   H59   S    
C26   C30   S    
C72   H58   S    
C93   H116  S    
C50   O16   A    
C8    C14   S    
C37   C43   S    
O13   Zn2   S    
O15   Zn3   S    
C99   C100  S    
C19   C29   S    
C90   H107  S    
C51   O19   A    
C20   C80   S    
C45   H15   S    
C25   C81   S    
C62   C94   S    
C98   H127  S    
C35   H25   S    
C13   C67   T    
C78   H76   S    
C7    C9    S    
C49   O15   A    
C96   H121  S    
C71   C72   S    
C85   H98   S    
O6    Zn6   S    
C28   H22   S    
C48   H44   S    
C26   C88   S    
C6    H8    S    
C74   H63   S    
C1    O9    A    
C20   C22   S    
C100  H131  S    
C55   O5    A    
O7    Zn6   S    
C52   C68   S    
O22   Zn3   S    
C98   H128  S    
C6    C8    S    
O8    Zn5   S    
C32   C36   S    
C15   C17   T    
O11   Zn1   S    
C3    C63   S    
C10   C75   S    
C4    C64   S    
C7    C65   S    
C2    C30   S    
O16   Zn4   S    
C27   C35   S    
C94   H120  S    
C28   C30   S    
C73   H64   S    
C33   H19   S    
C61   C93   S    
C50   O18   A    
C69   C70   S    
C20   C30   S    
C81   H85   S    
C102  H137  S    
C6    C62   S    
C79   H77   S    
C51   C67   S    
O20   Zn4   S    
C47   H43   S    
C46   H38   S    
C31   C35   S    
C74   H62   S    
C52   O22   A    
C9    C73   S    
C27   H21   S    
C92   H112  S    
C53   O23   A    
O9    Zn2   S    
C22   H18   S    
C87   H99   S    
C42   H42   S    
C80   H80   S    
C73   H65   S    
O10   Zn1   S    
C73   C74   S    
C57   C59   S    
C101  C102  S    
O23   Zn5   S    
C40   H34   S    
C28   H24   S    
C36   H26   S    
C54   O4    A    
O5    Zn5   S    
C28   C36   S    
C16   C18   T    
C81   H83   S    
C66   H50   S    
C93   H117  S    
C25   C33   S    
C23   O13   A    
C39   H35   S    
C65   H49   S    
C70   H51   S    
C3    C15   S    
C101  H140  S    
C31   C55   S    
C93   H115  S    
C43   C47   S    
C32   C56   S    
C19   C79   S    
C64   C101  S    
C44   C48   S    
C78   H75   S    
C64   C66   S    
C97   C98   S    
C88   H104  S    
C96   H123  S    
C2    O10   A    
