data_mof_unit_65894.cif
_audit_creation_date              2012-12-10T18:52:00-0500
_audit_creation_method            fapswitch 2.2
_symmetry_space_group_name_H-M    P1
_symmetry_Int_Tables_number       1
_space_group_crystal_system       triclinic
_cell_length_a                    37.217362
_cell_length_b                    30.261912
_cell_length_c                    21.612097
_cell_angle_alpha                 90.255918
_cell_angle_beta                  54.290145
_cell_angle_gamma                 90.187047
_cell_volume                      19764.2982199

loop_
_atom_site_label
_atom_site_type_symbol
_atom_type_description
_atom_site_fract_x
_atom_site_fract_y
_atom_site_fract_z
_atom_type_partial_charge
C1    C     C_R   0.086240 0.500023 0.414021 0.868933
C2    C     C_R   0.995451 0.499209 0.318303 -0.107629
C3    C     C_R   0.996531 0.796667 0.946241 0.164609
C4    C     C_R   0.000025 0.586344 0.999783 0.860617
C5    C     C_R   0.500017 0.086348 0.999929 0.879208
C6    C     C_R   0.500004 0.413652 0.999872 0.924967
C7    C     C_R   0.000020 0.913648 0.999842 0.924831
C8    C     C_R   0.413801 0.499492 0.086235 0.895520
C9    C     C_R   0.586200 0.499469 0.913752 0.895383
C10   C     C_R   0.913800 0.999482 0.086240 0.895515
C11   C     C_R   0.086201 0.999470 0.913752 0.895459
C12   C     C_R   0.504002 0.342560 0.051416 -0.179516
C13   C     C_R   0.504798 0.999708 0.681427 -0.107439
C14   C     C_R   0.496164 0.342447 0.947441 -0.180136
C15   C     C_R   0.004025 0.842466 0.051220 -0.180157
C16   C     C_R   0.996455 0.842503 0.946939 -0.179677
C17   C     C_R   0.500025 0.586285 0.000097 0.889853
C18   C     C_R   0.000014 0.086287 0.000119 0.890388
C19   C     C_R   0.023078 0.297285 0.023385 -0.074060
C20   C     C_R   0.976339 0.296720 0.979167 -0.079332
C21   C     C_R   0.522366 0.797283 0.024501 -0.077745
C22   C     C_R   0.477372 0.796801 0.976826 -0.078267
C23   C     C_R   0.500095 0.634224 0.000273 -0.113647
C24   C     C_R   0.495454 0.999208 0.318301 -0.107205
C25   C     C_R   0.000057 0.134230 0.000398 -0.114203
C26   C     C_R   0.022545 0.343104 0.025291 0.390881
C27   C     C_R   0.976907 0.342505 0.976688 0.403844
C28   C     C_R   0.521830 0.843100 0.026462 0.392859
C29   C     C_R   0.477957 0.842598 0.974458 0.393489
C30   C     C_R   0.999841 0.366089 0.000639 -0.283454
C31   C     C_R   0.499931 0.866121 0.000309 -0.282803
C32   C     C_R   0.500147 0.273782 0.999067 -0.043137
C33   C     C_R   0.000421 0.773761 0.998375 -0.043114
C34   C     C_R   0.500053 0.365583 0.999565 -0.113257
C35   C     C_R   0.975480 0.473260 0.742750 -0.178245
C36   C     C_R   0.000146 0.865569 0.999357 -0.113038
C37   C     C_R   0.999772 0.274218 0.001262 0.002704
C38   C     C_R   0.499885 0.774245 0.000709 0.002005
C39   C     C_R   0.516979 0.703200 0.931973 0.412053
C40   C     C_R   0.483176 0.703351 0.068995 0.412101
C41   C     C_R   0.016228 0.203274 0.932570 0.412982
C42   C     C_R   0.983889 0.203290 0.069032 0.411573
C43   C     C_R   0.516519 0.657057 0.932579 -0.293664
C44   C     C_R   0.483703 0.657196 0.068098 -0.294169
C45   C     C_R   0.015786 0.157134 0.933041 -0.294198
C46   C     C_R   0.024640 0.526595 0.257126 -0.183515
C47   C     C_R   0.984377 0.157142 0.068011 -0.293139
C48   C     C_R   0.065280 0.556024 0.621178 -0.168571
C49   C     C_R   0.934647 0.444062 0.378939 -0.168877
C50   C     C_R   0.565774 0.944866 0.619882 -0.168047
C51   C     C_R   0.434628 0.944086 0.378968 -0.168646
C52   C     C_R   0.090949 0.586723 0.627623 -0.119510
C53   C     C_R   0.908899 0.413420 0.372602 -0.130705
C54   C     C_R   0.591538 0.914237 0.625737 -0.131181
C55   C     C_R   0.408862 0.913457 0.372651 -0.131299
C56   C     C_R   0.085223 0.592284 0.696775 -0.117606
C57   C     C_R   0.475561 0.026979 0.743012 -0.183925
C58   C     C_R   0.914635 0.407802 0.303446 -0.103720
C59   C     C_R   0.585681 0.908402 0.694883 -0.104144
C60   C     C_R   0.414586 0.907842 0.303505 -0.103712
C61   C     C_R   0.054958 0.566037 0.758983 -0.161719
C62   C     C_R   0.944977 0.433952 0.241138 -0.159134
C63   C     C_R   0.555206 0.934331 0.757680 -0.157941
C64   C     C_R   0.444937 0.933979 0.241184 -0.157838
C65   C     C_R   0.029740 0.533554 0.752777 0.101616
C66   C     C_R   0.970249 0.466402 0.247260 0.096237
C67   C     C_R   0.529933 0.966791 0.752060 0.095949
C68   C     C_R   0.524655 0.026579 0.257111 -0.183417
C69   C     C_R   0.470231 0.966413 0.247281 0.096108
C70   C     C_R   0.973680 0.474993 0.808033 -0.184126
C71   C     C_R   0.026437 0.524834 0.191848 -0.176609
C72   C     C_R   0.473671 0.025066 0.808367 -0.177493
C73   C     C_R   0.913764 0.499976 0.585935 0.869536
C74   C     C_R   0.526450 0.024816 0.191834 -0.177279
C75   C     C_R   0.000681 0.504509 0.813106 -0.106964
C76   C     C_R   0.999351 0.495386 0.186867 -0.106029
C77   C     C_R   0.500704 0.995575 0.812988 -0.105786
C78   C     C_R   0.499349 0.995382 0.186870 -0.105752
C79   C     C_R   0.202831 0.466292 0.327654 -0.151520
C80   C     C_R   0.797229 0.466063 0.671380 -0.149233
C81   C     C_R   0.702757 0.966331 0.328420 -0.149587
C82   C     C_R   0.297224 0.966110 0.671357 -0.149631
C83   C     C_R   0.156978 0.466225 0.373449 -0.180358
C84   C     C_R   0.586238 0.000010 0.414062 0.868955
C85   C     C_R   0.843089 0.466094 0.625663 -0.188030
C86   C     C_R   0.656899 0.966334 0.374175 -0.186183
C87   C     C_R   0.343083 0.966136 0.625624 -0.186217
C88   C     C_R   0.134130 0.500122 0.366414 -0.069923
C89   C     C_R   0.865882 0.499945 0.633453 -0.063942
C90   C     C_R   0.634123 0.000047 0.366544 -0.061365
C91   C     C_R   0.365884 0.999948 0.633482 -0.061181
C92   C     C_R   0.157188 0.533997 0.313331 -0.216784
C93   C     C_R   0.842782 0.533648 0.687216 -0.208435
C94   C     C_R   0.657244 0.033648 0.312906 -0.210344
C95   C     C_R   0.413764 0.999977 0.585942 0.869102
C96   C     C_R   0.342793 0.033611 0.687335 -0.210237
C97   C     C_R   0.203133 0.533671 0.265984 0.195482
C98   C     C_R   0.796840 0.533215 0.734475 0.195102
C99   C     C_R   0.703189 0.033241 0.265614 0.195926
C100  C     C_R   0.296850 0.033180 0.734606 0.196074
C101  C     C_R   0.001975 0.500131 0.618088 0.864626
C102  C     C_R   0.998040 0.499852 0.381898 0.867942
C103  C     C_R   0.501990 0.000027 0.618067 0.866960
C104  C     C_R   0.498042 0.999852 0.381896 0.866952
C105  C     C_R   0.225937 0.499552 0.273328 0.097877
C106  C     C_R   0.033151 0.530253 0.684530 0.097971
C107  C     C_R   0.774078 0.499172 0.726349 0.098700
C108  C     C_R   0.725928 0.999328 0.273569 0.099042
C109  C     C_R   0.274080 0.999182 0.726406 0.099112
C110  C     C_R   0.296343 0.529719 0.238053 -0.154379
C111  C     C_R   0.703746 0.529392 0.761931 -0.153278
C112  C     C_R   0.796325 0.029641 0.238089 -0.153076
C113  C     C_R   0.203752 0.029439 0.762026 -0.152852
C114  C     C_R   0.342086 0.531523 0.191745 0.436880
C115  C     C_R   0.658011 0.531332 0.808420 0.436515
C116  C     C_R   0.842066 0.031518 0.191674 0.436395
C117  C     C_R   0.966834 0.469744 0.315508 0.105142
C118  C     C_R   0.158016 0.031367 0.808488 0.436545
C119  C     C_R   0.365850 0.499158 0.134030 -0.246296
C120  C     C_R   0.634156 0.499035 0.865895 -0.246712
C121  C     C_R   0.865847 0.999094 0.134079 -0.246555
C122  C     C_R   0.134157 0.999039 0.865901 -0.246804
C123  C     C_R   0.343358 0.466088 0.122512 0.090646
C124  C     C_R   0.656563 0.465868 0.876949 0.091702
C125  C     C_R   0.843372 0.965862 0.122832 0.090844
C126  C     C_R   0.156559 0.965848 0.876918 0.091053
C127  C     C_R   0.296975 0.466406 0.167247 0.181188
C128  C     C_R   0.533465 0.970328 0.683780 0.105154
C129  C     C_R   0.702955 0.466026 0.832003 0.180895
C130  C     C_R   0.796981 0.966061 0.167739 0.180773
C131  C     C_R   0.202951 0.966009 0.831993 0.180730
C132  C     C_R   0.273927 0.498296 0.225128 -0.089663
C133  C     C_R   0.726084 0.497883 0.774421 -0.091176
C134  C     C_R   0.773920 0.998045 0.225443 -0.091286
C135  C     C_R   0.226085 0.997900 0.774475 -0.091615
C136  C     C_R   0.000110 0.634411 0.999090 -0.043281
C137  C     C_R   0.500053 0.134427 0.999603 -0.048689
C138  C     C_R   0.040373 0.703279 0.954034 -0.104892
C139  C     C_R   0.466823 0.969755 0.315523 0.105126
C140  C     C_R   0.960147 0.703438 0.042557 -0.104002
C141  C     C_R   0.540291 0.203375 0.956926 -0.103870
C142  C     C_R   0.459908 0.203386 0.041237 -0.103376
C143  C     C_R   0.500024 0.726126 0.000567 0.034722
C144  C     C_R   0.000003 0.226119 0.000954 0.034126
C145  C     C_R   0.040316 0.657469 0.954441 -0.186951
C146  C     C_R   0.959997 0.657630 0.043008 -0.167488
C147  C     C_R   0.540306 0.157567 0.957243 -0.172754
C148  C     C_R   0.459831 0.157578 0.041562 -0.172678
C149  C     C_R   0.000315 0.726043 0.998191 0.147920
C150  C     C_R   0.004586 0.500746 0.681665 -0.112232
C151  C     C_R   0.500115 0.226065 0.998955 0.145618
C152  C     C_R   0.999968 0.413886 0.000124 0.839594
C153  C     C_R   0.499982 0.913897 0.000050 0.821122
C154  C     C_R   0.000105 0.501878 0.879821 0.857199
C155  C     C_R   0.999898 0.498046 0.120174 0.854315
C156  C     C_R   0.500104 0.998078 0.879788 0.854553
C157  C     C_R   0.499897 0.998042 0.120175 0.854279
C158  C     C_R   0.504115 0.296737 0.051375 0.165923
C159  C     C_R   0.496142 0.296611 0.946991 0.165870
C160  C     C_R   0.004229 0.796635 0.050934 0.166168
H1    H     H_    0.071618 0.640199 0.919913 0.162999
H2    H     H_    0.722192 0.553759 0.717268 0.189058
H3    H     H_    0.777930 0.054100 0.282853 0.189058
H4    H     H_    0.222202 0.053831 0.717410 0.189498
H5    H     H_    0.507137 0.360046 0.091875 0.197758
H6    H     H_    0.492993 0.359852 0.907181 0.197486
H7    H     H_    0.007046 0.859895 0.091854 0.197549
H8    H     H_    0.993348 0.859961 0.906649 0.197469
H9    H     H_    0.071444 0.721022 0.919659 0.153851
H10   H     H_    0.929159 0.721306 0.076714 0.155779
H11   H     H_    0.571396 0.221177 0.924242 0.155800
H12   H     H_    0.928619 0.640490 0.077831 0.167764
H13   H     H_    0.428828 0.221195 0.073796 0.156210
H14   H     H_    0.041113 0.279506 0.040638 0.192918
H15   H     H_    0.958289 0.278501 0.962127 0.191467
H16   H     H_    0.539761 0.779481 0.042994 0.193091
H17   H     H_    0.459991 0.778621 0.958423 0.192731
H18   H     H_    0.953597 0.450795 0.740257 0.173417
H19   H     H_    0.046577 0.549014 0.259557 0.168780
H20   H     H_    0.453596 0.049338 0.740897 0.168624
H21   H     H_    0.546603 0.048988 0.259530 0.168630
H22   H     H_    0.529629 0.639000 0.880065 0.174864
H23   H     H_    0.571705 0.140364 0.924418 0.167427
H24   H     H_    0.470615 0.639240 0.120488 0.174512
H25   H     H_    0.028350 0.139142 0.880671 0.175503
H26   H     H_    0.971832 0.139151 0.120166 0.175073
H27   H     H_    0.071376 0.552418 0.566008 0.152162
H28   H     H_    0.928578 0.447697 0.434079 0.143404
H29   H     H_    0.571910 0.948674 0.564759 0.142848
H30   H     H_    0.428566 0.947721 0.434101 0.143323
H31   H     H_    0.115132 0.606492 0.578929 0.150415
H32   H     H_    0.884656 0.393737 0.421379 0.144464
H33   H     H_    0.615877 0.894726 0.576597 0.144574
H34   H     H_    0.428408 0.140386 0.074639 0.167685
H35   H     H_    0.384612 0.893784 0.421438 0.144139
H36   H     H_    0.104551 0.616766 0.702097 0.148408
H37   H     H_    0.895251 0.383354 0.298204 0.153547
H38   H     H_    0.605068 0.883953 0.699749 0.153889
H39   H     H_    0.395187 0.883405 0.298280 0.153379
H40   H     H_    0.051240 0.571943 0.811812 0.149729
H41   H     H_    0.948706 0.428016 0.188308 0.149073
H42   H     H_    0.551375 0.928210 0.810481 0.150109
H43   H     H_    0.448652 0.928045 0.188365 0.150063
H44   H     H_    0.951541 0.452764 0.854469 0.174937
H45   H     H_    0.139500 0.560036 0.307386 0.176511
H46   H     H_    0.048620 0.547011 0.145352 0.169352
H47   H     H_    0.451428 0.047125 0.855237 0.169030
H48   H     H_    0.548644 0.046982 0.145327 0.168910
H49   H     H_    0.220414 0.440191 0.333747 0.164437
H50   H     H_    0.779680 0.440016 0.664702 0.161200
H51   H     H_    0.720289 0.940386 0.334967 0.161042
H52   H     H_    0.279668 0.940096 0.664624 0.160665
H53   H     H_    0.139378 0.440094 0.414853 0.164966
H54   H     H_    0.860730 0.440088 0.583739 0.151039
H55   H     H_    0.639249 0.940404 0.415988 0.150892
H56   H     H_    0.860440 0.559633 0.693735 0.178907
H57   H     H_    0.360719 0.940160 0.583634 0.150618
H58   H     H_    0.392278 0.570429 0.158317 0.333444
H59   H     H_    0.607965 0.570391 0.842396 0.333392
H60   H     H_    0.892252 0.070494 0.158022 0.333504
H61   H     H_    0.107954 0.070407 0.842465 0.333705
H62   H     H_    0.033221 0.394345 0.067885 0.333467
H63   H     H_    0.966020 0.393072 0.933781 0.336097
H64   H     H_    0.532126 0.894470 0.069425 0.334738
H65   H     H_    0.467720 0.893406 0.931025 0.334825
H66   H     H_    0.544856 0.705468 0.822744 0.347223
H67   H     H_    0.639603 0.059522 0.306498 0.175269
H68   H     H_    0.455361 0.705856 0.178208 0.346839
H69   H     H_    0.042917 0.205671 0.823768 0.348134
H70   H     H_    0.957252 0.205701 0.177834 0.347162
H71   H     H_    0.360459 0.059559 0.693912 0.175234
H72   H     H_    0.277959 0.554099 0.282966 0.186866
I1    I     I_    0.235831 0.584141 0.182695 -0.302488
I2    I     I_    0.738571 0.419847 0.852144 -0.248032
I3    I     I_    0.761271 0.919734 0.147382 -0.241567
I4    I     I_    0.238559 0.919776 0.852062 -0.243976
I5    I     I_    0.510098 0.264110 0.131760 -0.308642
I6    I     I_    0.490191 0.263762 0.866328 -0.309434
I7    I     I_    0.010276 0.763855 0.131125 -0.309780
I8    I     I_    0.990723 0.763907 0.865343 -0.315960
I9    I     I_    0.764072 0.583423 0.818789 -0.291751
I10   I     I_    0.735996 0.083273 0.181501 -0.297898
I11   I     I_    0.264093 0.083325 0.819044 -0.294745
I12   I     I_    0.379218 0.413916 0.041343 -0.248218
I13   I     I_    0.620551 0.413811 0.957759 -0.249802
I14   I     I_    0.879288 0.913667 0.041762 -0.248559
I15   I     I_    0.120539 0.913758 0.957647 -0.250805
I16   I     I_    0.261270 0.420413 0.146334 -0.238126
O1    O     O_R   0.065470 0.536950 0.434540 -0.630459
O2    O     O_R   0.565480 0.500010 0.986250 -0.587661
O3    O     O_R   0.934520 0.000010 0.013750 -0.587707
O4    O     O_R   0.065480 0.000010 0.986250 -0.587499
O5    O     O_R   0.500010 0.565480 0.051720 -0.623782
O6    O     O_R   0.499990 0.565480 0.948280 -0.623332
O7    O     O_R   0.000010 0.065480 0.051720 -0.623979
O8    O     O_R   0.999990 0.065480 0.948280 -0.623449
O9    O     O_R   0.065460 0.463040 0.434540 -0.609285
O10   O     O_R   0.934540 0.463040 0.565460 -0.625008
O11   O     O_R   0.565460 0.963040 0.434540 -0.620758
O12   O     O_R   0.934530 0.536950 0.565460 -0.612933
O13   O     O_R   0.434540 0.963040 0.565460 -0.620771
O14   O     O_R   0.000010 0.536950 0.591610 -0.618427
O15   O     O_R   0.999990 0.536950 0.408390 -0.613784
O16   O     O_R   0.500010 0.036950 0.591610 -0.614567
O17   O     O_R   0.499990 0.036950 0.408390 -0.614325
O18   O     O_R   1.000000 0.463040 0.591610 -0.614734
O19   O     O_R   1.000000 0.463040 0.408390 -0.617287
O20   O     O_R   0.500000 0.963040 0.591610 -0.616790
O21   O     O_R   0.500000 0.963040 0.408390 -0.617254
O22   O     O_R   0.963040 0.434520 0.036950 -0.612728
O23   O     O_R   0.565470 0.036950 0.434540 -0.617345
O24   O     O_R   0.036960 0.434520 0.963050 -0.590989
O25   O     O_R   0.463040 0.934520 0.036950 -0.608155
O26   O     O_R   0.536960 0.934520 0.963050 -0.607422
O27   O     O_R   0.963030 0.499980 0.945350 -0.612012
O28   O     O_R   0.036970 0.499980 0.054650 -0.610418
O29   O     O_R   0.463030 0.999980 0.945350 -0.610618
O30   O     O_R   0.536970 0.999980 0.054650 -0.610596
O31   O     O_R   0.036950 0.500000 0.871430 -0.621236
O32   O     O_R   0.963050 0.500000 0.128570 -0.620904
O33   O     O_R   0.536950 1.000000 0.871430 -0.621386
O34   O     O_R   0.434530 0.036950 0.565460 -0.617056
O35   O     O_R   0.463050 1.000000 0.128570 -0.621131
O36   O     O_R   0.963030 0.565450 0.036970 -0.616969
O37   O     O_R   0.036970 0.565450 0.963030 -0.633449
O38   O     O_R   0.463030 0.065450 0.036970 -0.620039
O39   O     O_R   0.536970 0.065450 0.963030 -0.620127
O40   O     O_R   0.499990 0.434540 0.051720 -0.612946
O41   O     O_R   0.500010 0.434540 0.948280 -0.613310
O42   O     O_R   0.999990 0.934540 0.051720 -0.612860
O43   O     O_R   0.000010 0.934540 0.948280 -0.613526
O44   O     O_3   0.361827 0.565734 0.204308 -0.738652
O45   O     O_R   0.434530 0.500010 0.117180 -0.610541
O46   O     O_3   0.638369 0.565617 0.796287 -0.737208
O47   O     O_3   0.861786 0.065862 0.204009 -0.737340
O48   O     O_3   0.138378 0.065672 0.796387 -0.736103
O49   O     O_3   0.043987 0.363658 0.052508 -0.727603
O50   O     O_3   0.955314 0.362416 0.949507 -0.736464
O51   O     O_3   0.542484 0.863600 0.055187 -0.729631
O52   O     O_3   0.457317 0.862575 0.945567 -0.729962
O53   O     O_3   0.534399 0.726557 0.865313 -0.754468
O54   O     O_3   0.465740 0.726852 0.135789 -0.755260
O55   O     O_3   0.032914 0.226710 0.866229 -0.749355
O56   O     O_R   0.565470 0.500010 0.882820 -0.610612
O57   O     O_3   0.967184 0.226735 0.135638 -0.755151
O58   O     O_R   0.934530 0.000010 0.117180 -0.610671
O59   O     O_R   0.065470 0.000010 0.882820 -0.610772
O60   O     O_R   0.434520 0.500010 0.013750 -0.587790
Zn1   Zn    Zn3+2 1.000000 0.549350 0.500000 0.995030
Zn2   Zn    Zn3+2 0.500000 0.500010 0.930940 1.031640
Zn3   Zn    Zn3+2 0.000000 0.000010 0.069060 1.031525
Zn4   Zn    Zn3+2 0.000000 0.000010 0.930940 1.031344
Zn5   Zn    Zn3+2 0.500000 0.049350 0.500000 1.001289
Zn6   Zn    Zn3+2 1.000000 0.450640 0.500000 0.994813
Zn7   Zn    Zn3+2 0.500000 0.950640 0.500000 0.992328
Zn8   Zn    Zn3+2 0.950640 0.499980 0.049350 0.998487
Zn9   Zn    Zn3+2 0.049360 0.499980 0.950650 1.001327
Zn10  Zn    Zn3+2 0.450640 0.999980 0.049350 0.998763
Zn11  Zn    Zn3+2 0.549360 0.999980 0.950650 0.998799
Zn12  Zn    Zn3+2 0.500000 0.500010 0.069060 1.031714

loop_
_geom_bond_atom_site_label_1
_geom_bond_atom_site_label_2
_ccdc_geom_bond_type
C69   C139  A    
C63   H42   S    
C87   C91   A    
C41   O55   S    
O56   Zn2   S    
C80   C107  A    
C22   C29   A    
C77   C156  S    
C156  O33   A    
C20   H15   S    
C8    O45   A    
C138  C145  A    
C82   C87   A    
C10   O58   A    
C130  I3    S    
C23   C43   A    
C5    O38   A    
C104  O21   A    
C19   C37   A    
C31   C153  S    
C91   C96   A    
C13   C103  S    
C28   O51   S    
C81   C86   A    
C157  O35   A    
C97   C105  A    
C35   H18   S    
C83   C88   A    
C81   C108  A    
C100  C109  A    
C115  O46   S    
O23   Zn5   S    
C125  I14   S    
C130  C134  A    
C18   C25   S    
C2    C117  A    
C70   H44   S    
H63   O50   S    
C116  C121  A    
O13   Zn7   S    
C86   C90   A    
C18   O8    A    
C142  C151  A    
C62   H41   S    
O25   Zn10  S    
C66   C76   A    
C47   H26   S    
C51   H30   S    
C94   H67   S    
C129  C133  A    
C81   H51   S    
C21   C28   A    
C18   O7    A    
O6    Zn2   S    
C80   H50   S    
C8    O60   A    
C114  O44   S    
C46   H19   S    
C112  C134  A    
C155  O28   A    
C57   H20   S    
C53   C58   A    
O10   Zn6   S    
C5    C137  S    
C119  C123  A    
C76   C155  S    
C59   C63   A    
C4    O37   A    
C60   C64   A    
C19   H14   S    
C15   C160  A    
C33   C149  S    
C45   H25   S    
C49   H28   S    
C145  H1    S    
C49   C53   A    
C51   C55   A    
C53   H32   S    
C141  C147  A    
C61   C65   A    
C95   O13   A    
C113  C135  A    
H66   O53   S    
C41   C45   A    
C153  O25   A    
C127  I16   S    
C136  C146  A    
C22   C38   A    
C101  O18   A    
C116  O47   S    
C106  C150  A    
C37   C144  S    
C109  C135  S    
C38   C143  S    
C137  C148  A    
C67   C77   A    
C99   C108  A    
C17   C23   S    
C118  O48   S    
C154  O31   A    
C7    O42   A    
C1    O1    A    
O26   Zn11  S    
C13   C57   A    
C2    C102  S    
C68   C74   A    
C141  H11   S    
O59   Zn4   S    
C118  C122  A    
C50   H29   S    
C92   H45   S    
H59   O46   S    
C30   C152  S    
C49   C117  A    
C21   C38   A    
C35   C150  A    
C14   H6    S    
C110  C114  A    
C114  C119  A    
C33   C160  A    
C3    I8    S    
C21   H16   S    
C101  O14   A    
C93   H56   S    
C15   H7    S    
C84   C90   S    
C22   H17   S    
O60   Zn2   S    
C92   C97   A    
C142  H13   S    
C82   H52   S    
C54   C59   A    
C138  C149  A    
C41   C144  A    
C17   O6    A    
C11   O59   A    
C62   C66   A    
C42   O57   S    
C82   C109  A    
C104  O17   A    
C12   H5    S    
H64   O51   S    
C26   O49   S    
C52   H31   S    
C121  C125  A    
O7    Zn3   S    
C123  C127  A    
O8    Zn4   S    
C48   C52   A    
O32   Zn8   S    
C64   C69   A    
O29   Zn10  S    
C26   C30   A    
C102  O19   A    
H62   O49   S    
C11   C122  S    
O15   Zn1   S    
C25   C45   A    
C15   C36   A    
C112  C116  A    
C84   O23   A    
C126  I15   S    
C14   C34   A    
C72   C77   A    
O2    Zn12  S    
O27   Zn8   S    
C11   O4    A    
C129  I2    S    
C99   I10   S    
C9    O2    A    
C67   C128  A    
C16   C36   A    
C20   C37   A    
C96   C100  A    
C4    O36   A    
C159  I6    S    
O17   Zn5   S    
C89   C93   A    
C91   C95   S    
O42   Zn3   S    
C40   C143  A    
C70   C75   A    
C9    C120  S    
C102  O15   A    
C12   C158  A    
C140  C149  A    
C3    C16   A    
C8    C119  S    
O11   Zn7   S    
C58   C62   A    
C58   H37   S    
O3    Zn4   S    
C160  I7    S    
C7    C36   S    
C84   O11   A    
C50   C54   A    
H65   O52   S    
C71   C76   A    
C3    C33   A    
C59   H38   S    
C101  C150  S    
C96   H71   S    
O28   Zn9   S    
C19   C26   A    
O30   Zn11  S    
C56   H36   S    
C7    O43   A    
C48   C106  A    
C66   C117  A    
C103  O16   A    
C110  C132  A    
C25   C47   A    
C4    C136  S    
C32   C159  A    
C1    C88   S    
C55   C60   A    
C111  H2    S    
C90   C94   A    
C105  C132  S    
C1    O9    A    
C24   C139  A    
C138  H9    S    
O37   Zn9   S    
C68   H21   S    
O39   Zn11  S    
O40   Zn12  S    
C9    O56   A    
C140  C146  A    
H70   O57   S    
C85   C89   A    
C73   O10   A    
C23   C44   A    
C6    C34   S    
C5    O39   A    
C6    O40   A    
C108  C134  S    
C80   C85   A    
O16   Zn5   S    
C103  O20   A    
C40   O54   S    
C46   C71   A    
C48   H27   S    
C148  H34   S    
C64   H43   S    
H68   O54   S    
H69   O55   S    
C50   C128  A    
C12   C34   A    
O1    Zn1   S    
C79   H49   S    
C112  H3    S    
C140  H10   S    
C137  C147  A    
C28   C31   A    
O58   Zn3   S    
O21   Zn7   S    
C20   C27   A    
C131  I4    S    
O22   Zn8   S    
C14   C159  A    
C73   C89   S    
C107  C133  S    
C79   C83   A    
C124  C129  A    
C57   C72   A    
O34   Zn5   S    
C24   C68   A    
C158  I5    S    
O4    Zn3   S    
C74   C78   A    
C56   C61   A    
C85   H54   S    
C55   H35   S    
C146  H12   S    
O12   Zn1   S    
C75   C154  S    
C10   C121  S    
C73   O12   A    
C74   H48   S    
C2    C46   A    
C17   O5    A    
C126  C131  A    
O18   Zn6   S    
C152  O24   A    
C131  C135  A    
C29   O52   S    
O33   Zn11  S    
O9    Zn6   S    
C79   C105  A    
C10   O3    A    
C124  I13   S    
C127  C132  A    
C98   I9    S    
C60   H39   S    
C157  O30   A    
C86   H55   S    
O20   Zn7   S    
C125  C130  A    
C71   H46   S    
C88   C92   A    
H61   O48   S    
C152  O22   A    
C153  O26   A    
O19   Zn6   S    
C44   H24   S    
C136  C145  A    
C6    O41   A    
C54   H33   S    
C27   C30   A    
C13   C128  A    
C27   O50   S    
C69   C78   A    
C61   H40   S    
C123  I12   S    
C83   H53   S    
C72   H47   S    
C32   C158  A    
O36   Zn8   S    
C63   C67   A    
C142  C148  A    
C35   C70   A    
C111  C133  A    
C39   C43   A    
C24   C104  S    
C122  C126  A    
C155  O32   A    
O35   Zn10  S    
C78   C157  S    
C40   C44   A    
C95   O34   A    
C97   I1    S    
C100  I11   S    
C110  H72   S    
C39   C143  A    
O38   Zn10  S    
O24   Zn9   S    
O14   Zn1   S    
C65   C106  A    
O45   Zn12  S    
C141  C151  A    
C147  H23   S    
O41   Zn2   S    
O43   Zn4   S    
C43   H22   S    
C65   C75   A    
C39   O53   S    
C156  O29   A    
C29   C31   A    
C113  H4    S    
C42   C144  A    
H60   O47   S    
C32   C151  S    
C94   C99   A    
C16   H8    S    
O5    Zn12  S    
C42   C47   A    
C87   H57   S    
C154  O27   A    
C113  C118  A    
C120  C124  A    
O31   Zn9   S    
C115  C120  A    
H58   O44   S    
C111  C115  A    
C93   C98   A    
C52   C56   A    
C51   C139  A    
C98   C107  A    
