data_mof_unit_5939.cif
_audit_creation_date              2012-12-11T15:34:58-0500
_audit_creation_method            fapswitch 2.2
_symmetry_space_group_name_H-M    P1
_symmetry_Int_Tables_number       1
_space_group_crystal_system       triclinic
_cell_length_a                    30.318873
_cell_length_b                    7.251247
_cell_length_c                    26.062149
_cell_angle_alpha                 89.834709
_cell_angle_beta                  112.42967
_cell_angle_gamma                 90.385735
_cell_volume                      5296.16961287

loop_
_atom_site_label
_atom_site_type_symbol
_atom_type_description
_atom_site_fract_x
_atom_site_fract_y
_atom_site_fract_z
_atom_type_partial_charge
O1    O     O_R   0.295360 0.592990 0.320420 -0.533528
O2    O     O_R   0.704640 0.407010 0.679580 -0.538588
O3    O     O_R   0.204640 0.092990 0.179580 -0.525612
O4    O     O_R   0.795360 0.907010 0.820420 -0.541463
O5    O     O_R   0.294060 0.265620 0.213230 -0.544474
O6    O     O_R   0.705940 0.734380 0.786770 -0.533411
O7    O     O_R   0.205940 0.765620 0.286770 -0.535112
O8    O     O_R   0.794060 0.234380 0.713230 -0.535837
C1    C     C_R   0.303122 0.432156 0.198382 0.694849
C2    C     C_R   0.696016 0.567149 0.800337 0.661937
C3    C     C_R   0.196111 0.931112 0.300412 0.674436
C4    C     C_R   0.804678 0.068186 0.699953 0.695622
O9    O     O_R   0.300850 0.263360 0.322080 -0.538047
O10   O     O_R   0.699150 0.736640 0.677920 -0.532175
O11   O     O_R   0.199150 0.763360 0.177920 -0.536799
O12   O     O_R   0.800850 0.236640 0.822080 -0.532058
O13   O     O_R   0.211480 0.091820 0.289210 -0.533561
O14   O     O_R   0.788520 0.908180 0.710790 -0.523404
O15   O     O_R   0.288520 0.591820 0.210790 -0.528280
O16   O     O_R   0.711480 0.408180 0.789210 -0.541421
C5    C     C_R   0.313515 0.431839 0.343296 0.719608
C6    C     C_R   0.686309 0.568160 0.656743 0.715472
C7    C     C_R   0.186920 0.931012 0.156311 0.716417
C8    C     C_R   0.813465 0.068582 0.843237 0.722850
O17   O     O_3   0.220670 0.426670 0.239090 -0.368437
O18   O     O_3   0.779330 0.573330 0.760910 -0.364552
O19   O     O_3   0.279330 0.926670 0.260910 -0.373099
O20   O     O_3   0.720670 0.073330 0.739090 -0.376254
V1    V     V_3+5 0.255440 0.152290 0.252020 1.495749
V2    V     V_3+5 0.744560 0.847710 0.747980 1.512069
V3    V     V_3+5 0.244560 0.652290 0.247980 1.511000
V4    V     V_3+5 0.755440 0.347710 0.752020 1.513960
C9    C     C_R   0.849875 0.059204 0.900589 -0.183439
C10   C     C_R   0.151352 0.931479 0.098089 -0.150525
C11   C     C_R   0.649660 0.557670 0.599216 -0.172252
C12   C     C_R   0.349900 0.436625 0.400925 -0.178694
C13   C     C_R   0.871042 0.043386 0.000660 -0.031016
C14   C     C_R   0.126908 0.826852 0.001892 -0.035946
C15   C     C_R   0.628919 0.538193 0.499199 -0.025465
C16   C     C_R   0.371397 0.400783 0.500735 -0.016036
C17   C     C_R   0.836298 0.071324 0.946352 -0.150497
C18   C     C_R   0.162528 0.844734 0.056147 -0.134517
C19   C     C_R   0.662543 0.582223 0.553145 -0.170908
C20   C     C_R   0.335960 0.421004 0.446416 -0.144102
C21   C     C_R   0.898455 0.053264 0.909237 0.392841
C22   C     C_R   0.104602 0.992875 0.086625 0.399203
C23   C     C_R   0.601255 0.535337 0.590595 0.395610
C24   C     C_R   0.398223 0.465553 0.410256 0.393381
C25   C     C_R   0.933222 0.001099 0.962305 0.003282
C26   C     C_R   0.066901 0.947762 0.034827 0.004581
C27   C     C_R   0.567329 0.477994 0.537507 0.008402
C28   C     C_R   0.434633 0.424096 0.463262 0.007646
C29   C     C_R   0.918663 0.991745 0.008122 -0.057753
C30   C     C_R   0.079674 0.892582 0.990176 -0.072388
C31   C     C_R   0.582457 0.470724 0.492145 -0.059071
C32   C     C_R   0.420584 0.384627 0.508397 -0.063339
C33   C     C_R   0.981873 0.958025 0.971217 -0.061014
C34   C     C_R   0.017134 0.955493 0.026132 -0.032142
C35   C     C_R   0.518922 0.426689 0.527966 -0.026774
C36   C     C_R   0.484539 0.419383 0.472809 -0.024582
C37   C     C_R   0.001387 0.924631 0.070140 0.311584
C38   C     C_R   0.995622 0.901426 0.927638 0.377271
C39   C     C_R   0.501267 0.379236 0.430313 0.313665
C40   C     C_R   0.505168 0.355919 0.570314 0.316812
C41   C     C_R   0.952069 0.927465 0.060024 -0.157778
C42   C     C_R   0.044303 0.897884 0.935442 -0.126537
C43   C     C_R   0.550678 0.392693 0.441138 -0.155429
C44   C     C_R   0.456199 0.324348 0.559539 -0.137898
C45   C     C_R   0.092511 0.041447 0.476597 0.688656
C46   C     C_R   0.912185 0.942206 0.527904 0.599269
C47   C     C_R   0.418228 0.620624 0.035629 0.633153
C48   C     C_R   0.571539 0.369102 0.950489 0.600458
N1    N     N_R   0.074566 0.966179 0.424129 -0.507132
N2    N     N_R   0.931029 0.007697 0.581010 -0.568482
N3    N     N_R   0.422328 0.475555 0.070614 -0.532923
N4    N     N_R   0.571998 0.526012 0.921612 -0.576241
C49   C     C_R   0.025665 0.966281 0.398222 0.540913
C50   C     C_R   0.977464 0.065418 0.604468 0.552897
C51   C     C_R   0.454450 0.337827 0.076584 0.610819
C52   C     C_R   0.543372 0.671768 0.920556 0.584752
C53   C     C_R   0.996428 0.948054 0.429404 -0.144074
C54   C     C_R   0.008546 0.046206 0.575528 -0.148629
C55   C     C_R   0.482915 0.335682 0.043989 -0.101996
C56   C     C_R   0.508934 0.657371 0.945136 -0.122005
C57   C     C_R   0.017051 0.987572 0.486786 -0.034193
C58   C     C_R   0.988382 0.992051 0.518919 -0.038784
C59   C     C_R   0.479922 0.488481 0.008529 -0.010298
C60   C     C_R   0.510729 0.501205 0.978943 -0.017075
C61   C     C_R   0.065880 0.034898 0.510988 -0.141604
C62   C     C_R   0.939221 0.947081 0.494014 -0.140545
C63   C     C_R   0.446112 0.629059 0.002712 -0.134059
C64   C     C_R   0.543605 0.358259 0.983352 -0.098253
C65   C     C_R   0.947289 0.900209 0.404595 -0.112319
C66   C     C_R   0.058451 0.083441 0.600541 -0.103140
C67   C     C_R   0.515169 0.190128 0.046947 -0.053531
C68   C     C_R   0.473058 0.792484 0.937086 -0.074133
C69   C     C_R   0.918694 0.905699 0.436413 0.390427
C70   C     C_R   0.086864 0.074538 0.568572 0.406374
C71   C     C_R   0.546362 0.205524 0.018561 0.383404
C72   C     C_R   0.441222 0.774851 0.964521 0.329589
O21   O     O_2   0.134116 0.135756 0.493944 -0.483356
O22   O     O_2   0.867452 0.872547 0.508438 -0.459280
O23   O     O_2   0.388115 0.758413 0.034231 -0.514397
O24   O     O_2   0.597701 0.224082 0.946571 -0.475414
O25   O     O_2   0.005254 0.006526 0.343718 -0.522248
O26   O     O_2   0.992730 0.144887 0.655011 -0.512434
O27   O     O_2   0.459474 0.207465 0.115345 -0.527454
O28   O     O_2   0.549033 0.830000 0.896428 -0.505082
C73   C     C_R   0.901406 0.890890 0.651727 -0.008766
C74   C     C_R   0.088691 0.850327 0.338981 -0.045608
C75   C     C_R   0.584762 0.498004 0.833507 -0.010714
C76   C     C_R   0.404173 0.568472 0.151893 -0.068908
C77   C     C_R   0.872384 0.912565 0.682848 0.424851
C78   C     C_R   0.116548 0.875348 0.306561 0.356778
C79   C     C_R   0.615403 0.502779 0.803949 0.375650
C80   C     C_R   0.376339 0.550417 0.184596 0.354606
C81   C     C_R   0.838826 0.058947 0.670715 -0.255968
C82   C     C_R   0.164942 0.931963 0.332493 -0.228607
C83   C     C_R   0.664059 0.555460 0.831524 -0.250430
C84   C     C_R   0.334131 0.440447 0.165658 -0.214420
C85   C     C_R   0.838085 0.193188 0.630478 -0.091517
C86   C     C_R   0.185716 0.944793 0.391138 -0.165180
C87   C     C_R   0.682292 0.596378 0.889083 -0.124601
C88   C     C_R   0.320569 0.345660 0.114146 -0.133681
C89   C     C_R   0.869105 0.176492 0.601424 -0.008610
C90   C     C_R   0.156761 0.912784 0.422180 0.014623
C91   C     C_R   0.651837 0.581525 0.919082 -0.011280
C92   C     C_R   0.350619 0.353339 0.083584 -0.021575
C93   C     C_R   0.900451 0.025402 0.612014 0.141637
C94   C     C_R   0.106211 0.915954 0.394673 0.152921
C95   C     C_R   0.603057 0.537373 0.890954 0.131238
C96   C     C_R   0.391870 0.467164 0.102064 0.198954
C97   C     C_2   0.935714 0.831013 0.100180 0.445893
H1    H     H_    0.952903 0.855294 0.144443 0.088283
O29   O     O_2   0.903082 0.718825 0.083747 -0.474480
C98   C     C_2   0.057739 0.938283 0.886929 0.518669
H2    H     H_    0.094197 0.974630 0.893367 0.046215
O30   O     O_2   0.028075 0.943546 0.839476 -0.484516
C99   C     C_2   0.569319 0.295875 0.403371 0.437004
H3    H     H_    0.552310 0.310450 0.358705 0.060141
O31   O     O_2   0.603894 0.194930 0.422340 -0.477329
C100  C     C_2   0.443523 0.201080 0.597632 0.411353
H4    H     H_    0.458619 0.222567 0.642151 0.085909
O32   O     O_2   0.416165 0.071394 0.579128 -0.489065
C101  C     C_2   0.805246 0.352020 0.619279 0.586612
H5    H     H_    0.767947 0.329749 0.612187 -0.007613
O33   O     O_2   0.820124 0.509199 0.619848 -0.502378
C102  C     C_2   0.237976 0.979919 0.419425 0.427431
H6    H     H_    0.262338 0.942928 0.399657 0.037365
O34   O     O_2   0.254267 0.057344 0.464358 -0.482935
C103  C     C_2   0.733099 0.656520 0.916707 0.548995
H7    H     H_    0.759602 0.611088 0.900992 0.012561
O35   O     O_2   0.745693 0.762722 0.955977 -0.476302
C104  C     C_2   0.273346 0.248775 0.090681 0.413413
H8    H     H_    0.257574 0.186479 0.117375 0.047794
O36   O     O_2   0.250342 0.243413 0.040704 -0.504260
C105  C     C_2   0.868626 0.311498 0.557952 0.567579
H9    H     H_    0.901411 0.343997 0.552154 0.025130
O37   O     O_2   0.831544 0.380985 0.526560 -0.457727
C106  C     C_2   0.178537 0.825080 0.478170 0.529388
H10   H     H_    0.216248 0.837705 0.503097 0.144948
O38   O     O_2   0.154592 0.727824 0.496089 -0.519300
C107  C     C_2   0.669987 0.603773 0.980376 0.623817
H11   H     H_    0.648138 0.670904 0.999401 0.053390
O39   O     O_2   0.708131 0.538015 0.010336 -0.445101
C108  C     C_2   0.339970 0.234895 0.033552 0.592514
H12   H     H_    0.322959 0.101400 0.031358 0.082187
O40   O     O_2   0.349275 0.285333 0.994068 -0.490686
O41   O     O_3   0.097540 0.103148 0.125937 -0.629839
H13   H     H_    0.068914 0.179753 0.107160 0.304062
O42   O     O_3   0.910671 0.116801 0.866391 -0.614664
H14   H     H_    0.942062 0.179802 0.882874 0.315773
O43   O     O_3   0.407945 0.548888 0.368045 -0.634674
H15   H     H_    0.436779 0.627207 0.384992 0.306179
O44   O     O_3   0.588003 0.590184 0.633286 -0.624590
H16   H     H_    0.555560 0.643263 0.616812 0.311458
C109  C     C_2   0.212120 0.774973 0.070372 0.422227
H17   H     H_    0.242065 0.845424 0.101475 0.019142
O45   O     O_2   0.220018 0.634528 0.049747 -0.505484
C110  C     C_2   0.786517 0.129530 0.936070 0.556566
H18   H     H_    0.757021 0.079341 0.899813 0.007902
O46   O     O_2   0.778181 0.242081 0.965888 -0.478993
C111  C     C_2   0.284355 0.442382 0.435998 0.533088
H19   H     H_    0.257379 0.381368 0.399375 0.013063
O47   O     O_2   0.271348 0.537161 0.466183 -0.506530
C112  C     C_2   0.709579 0.671427 0.562574 0.530756
H20   H     H_    0.739047 0.656818 0.602148 0.038893
O48   O     O_2   0.715094 0.773575 0.528162 -0.463616
C113  C     C_2   0.858657 0.078417 0.049775 0.654650
H21   H     H_    0.883555 0.153118 0.085109 0.008723
O49   O     O_2   0.822006 0.016460 0.052358 -0.427672
C114  C     C_2   0.138062 0.719176 0.959901 0.467946
H22   H     H_    0.170965 0.744698 0.953652 0.105056
O50   O     O_2   0.110967 0.598254 0.932891 -0.505425
C115  C     C_2   0.641082 0.571522 0.449794 0.642726
H23   H     H_    0.615112 0.635297 0.413039 0.010777
O51   O     O_2   0.678940 0.519374 0.448722 -0.441930
C116  C     C_2   0.357758 0.407172 0.549826 0.624828
H24   H     H_    0.379640 0.484861 0.586307 0.009633
O52   O     O_2   0.323740 0.318925 0.551069 -0.439556
O53   O     O_3   0.033551 0.856314 0.119708 -0.609279
H25   H     H_    0.025288 0.906137 0.150180 0.325126
O54   O     O_3   0.961311 0.829487 0.879879 -0.596192
H26   H     H_    0.976428 0.737521 0.863793 0.351514
O55   O     O_3   0.470231 0.294689 0.382628 -0.611368
H27   H     H_    0.478929 0.331782 0.351150 0.304140
O56   O     O_3   0.540399 0.286916 0.617653 -0.610859
H28   H     H_    0.529959 0.297332 0.649103 0.332834
C117  C     C_2   0.925997 0.831293 0.346366 0.626331
H29   H     H_    0.947516 0.752912 0.329249 0.046907
O57   O     O_2   0.884421 0.861336 0.316850 -0.449116
C118  C     C_2   0.083034 0.113028 0.661350 0.611227
H30   H     H_    0.073313 0.030923 0.690328 0.074381
O58   O     O_2   0.114657 0.228593 0.679636 -0.461051
C119  C     C_2   0.515936 0.015788 0.077598 0.554796
H31   H     H_    0.482843 0.951426 0.075143 0.071908
O59   O     O_2   0.553498 0.941559 0.105604 -0.482913
C120  C     C_2   0.464170 0.942437 0.895248 0.567044
H32   H     H_    0.466650 0.915341 0.855541 0.068414
O60   O     O_2   0.453365 0.097234 0.904457 -0.498887
O61   O     O_3   0.870571 0.870259 0.410073 -0.554796
H33   H     H_    0.853770 0.978029 0.417232 0.355240
O62   O     O_3   0.135691 0.092080 0.595796 -0.566214
H34   H     H_    0.150819 0.993628 0.581940 0.342037
O63   O     O_3   0.579005 0.066867 0.025439 -0.584138
H35   H     H_    0.610884 0.126827 0.038285 0.346241
O64   O     O_3   0.404117 0.898339 0.951209 -0.577588
H36   H     H_    0.374291 0.824453 0.940213 0.347322
C121  C     C_2   0.933383 0.728090 0.660305 0.587550
H37   H     H_    0.956803 0.716459 0.637778 0.013388
O65   O     O_2   0.933672 0.602773 0.691814 -0.461996
C122  C     C_2   0.047543 0.719189 0.319408 0.587303
H38   H     H_    0.036152 0.651045 0.349447 0.000926
O66   O     O_2   0.026014 0.685193 0.270226 -0.475948
C123  C     C_2   0.533334 0.446118 0.805294 0.517795
H39   H     H_    0.511704 0.418897 0.829404 0.045803
O67   O     O_2   0.514053 0.434469 0.754855 -0.501369
C124  C     C_2   0.447808 0.687630 0.170432 0.565651
H40   H     H_    0.473280 0.677346 0.150569 0.030095
O68   O     O_2   0.455745 0.801097 0.207450 -0.465751
O69   O     O_3   0.878413 0.791136 0.725927 -0.574356
H41   H     H_    0.874188 0.859364 0.756605 0.322086
O70   O     O_3   0.096152 0.833762 0.250533 -0.594635
H42   H     H_    0.115331 0.887837 0.230858 0.311478
O71   O     O_3   0.596381 0.455527 0.748257 -0.594703
H43   H     H_    0.621581 0.446672 0.733143 0.321713
O72   O     O_3   0.391898 0.639834 0.235311 -0.591284
H44   H     H_    0.378086 0.579873 0.259904 0.320765

loop_
_geom_bond_atom_site_label_1
_geom_bond_atom_site_label_2
_ccdc_geom_bond_type
O17   V3    S    
C52   O28   S    
C55   C59   A    
O54   H26   S    
O1    C5    A    
C105  H9    S    
C54   C66   A    
C88   C104  S    
O19   V1    S    
C9    C21   A    
O53   H25   S    
C17   C110  S    
O3    C7    A    
O62   H34   S    
C10   C18   A    
C48   N4    A    
C11   C23   A    
C101  H5    S    
C120  H32   S    
C25   C33   A    
C33   C38   A    
C5    C12   S    
C27   C31   A    
O55   H27   S    
C110  H18   S    
O7    C3    A    
C6    C11   S    
C35   C40   A    
C26   C30   A    
C36   C39   A    
C59   C60   A    
C40   C44   A    
O9    V1    S    
C107  O39   D    
C102  O34   D    
C14   C18   A    
C59   C63   A    
C119  O59   D    
C56   C68   A    
O13   V1    S    
C48   C64   A    
N4    C95   S    
C89   C105  S    
C66   C70   A    
C18   C109  S    
O70   H42   S    
C115  O51   D    
C21   O42   S    
O1    V3    S    
C67   C119  S    
C31   C43   A    
O2    V4    S    
O69   H41   S    
C82   C86   A    
C32   C44   A    
O3    V1    S    
C81   C85   A    
C2    C83   S    
C28   C36   A    
C37   O53   S    
N1    C94   S    
C28   C32   A    
C73   C121  S    
C1    O15   A    
C15   C31   A    
C60   C64   A    
C2    O16   A    
C109  O45   D    
C46   N2    A    
C75   C123  S    
C123  H39   S    
C45   N1    A    
C116  H24   S    
C10   C22   A    
C86   C102  S    
C63   C72   A    
C43   C99   S    
C74   C78   A    
C62   C69   A    
C104  O36   D    
C73   C77   A    
C88   C92   A    
C13   C29   A    
C34   C37   A    
O11   C7    A    
C78   O70   S    
C103  H7    S    
O15   V3    S    
C35   C36   A    
O12   C8    A    
O43   H15   S    
O71   H43   S    
C108  O40   D    
C41   C97   S    
C123  O67   D    
C46   C62   A    
O10   V2    S    
C45   C61   A    
C92   C96   A    
C101  O33   D    
C121  H37   S    
C110  O46   D    
O63   H35   S    
C12   C24   A    
C124  O68   D    
C75   C79   A    
C40   O56   S    
C39   C43   A    
O7    V3    S    
C13   C113  S    
C38   C42   A    
O9    C5    A    
O56   H28   S    
C26   C34   A    
O41   H13   S    
C56   C60   A    
C102  H6    S    
C98   O30   D    
C58   C62   A    
C52   C56   A    
C57   C61   A    
O18   V4    S    
C23   C27   A    
C48   O24   S    
C19   C112  S    
C16   C32   A    
C57   C58   A    
C120  O60   D    
C15   C115  S    
C68   C120  S    
C113  O49   D    
C80   C84   A    
C79   C83   A    
O8    V4    S    
C86   C90   A    
C72   O64   S    
C119  H31   S    
C111  H19   S    
C85   C89   A    
O61   H33   S    
C37   C41   A    
C53   C65   A    
C50   C54   A    
C87   C91   A    
O64   H36   S    
C14   C30   A    
C80   O72   S    
C21   C25   A    
O8    C4    A    
C7    C10   S    
C55   C67   A    
C70   O62   S    
C122  O66   D    
C117  H29   S    
C51   O27   S    
C78   C82   A    
C76   C96   A    
C44   C100  S    
O42   H14   S    
C104  H8    S    
C71   O63   S    
C74   C122  S    
C77   C81   A    
C46   O22   S    
C75   C95   A    
O14   V2    S    
O6    V2    S    
C118  O58   D    
C76   C124  S    
C65   C117  S    
C108  H12   S    
C85   C101  S    
C12   C20   A    
C27   C35   A    
C112  O48   D    
O5    V1    S    
C65   C69   A    
C76   C80   A    
C100  O32   D    
C11   C19   A    
N3    C96   S    
C24   O43   S    
O16   V4    S    
C47   O23   S    
C124  H40   S    
C3    O13   A    
C91   C107  S    
C87   C103  S    
N4    C52   A    
O5    C1    A    
C98   H2    S    
O6    C2    A    
C15   C19   A    
C99   H3    S    
C92   C108  S    
O11   V3    S    
N1    C49   A    
C30   C42   A    
C83   C87   A    
O12   V4    S    
C22   C26   A    
C74   C94   A    
C14   C114  S    
C8    C9    S    
C22   O41   S    
C61   C70   A    
C50   O26   S    
C9    C17   A    
C114  H22   S    
O2    C6    A    
C91   C95   A    
C111  O47   D    
C39   O55   S    
O20   V2    S    
C121  O65   D    
O44   H16   S    
C54   C58   A    
C66   C118  S    
C106  H10   S    
C47   N3    A    
C99   O31   D    
O10   C6    A    
C33   C34   A    
C97   H1    S    
C16   C116  S    
C29   C41   A    
O4    C8    A    
C25   C29   A    
C68   C72   A    
C49   O25   S    
C122  H38   S    
C117  O57   D    
C69   O61   S    
C42   C98   S    
C67   C71   A    
C103  O35   D    
C13   C17   A    
C113  H21   S    
C49   C53   A    
O4    V2    S    
C38   O54   S    
C107  H11   S    
C23   O44   S    
C115  H23   S    
C51   C55   A    
C89   C93   A    
C24   C28   A    
C47   C63   A    
C118  H30   S    
C64   C71   A    
C77   O69   S    
C105  O37   D    
C109  H17   S    
N2    C50   A    
N2    C93   S    
C4    O14   A    
C16   C20   A    
C97   O29   D    
C1    C84   S    
C90   C94   A    
C100  H4    S    
C20   C111  S    
C116  O52   D    
C4    C81   S    
C79   O71   S    
C112  H20   S    
C73   C93   A    
N3    C51   A    
C3    C82   S    
C53   C57   A    
C84   C88   A    
O72   H44   S    
C106  O38   D    
C90   C106  S    
C45   O21   S    
C114  O50   D    
