data_mof_unit_67156.cif
_audit_creation_date              2013-03-05T15:58:58-0500
_audit_creation_method            fapswitch 2.2
_symmetry_space_group_name_H-M    P1
_symmetry_Int_Tables_number       1
_space_group_crystal_system       triclinic
_cell_length_a                    8.370578
_cell_length_b                    12.624827
_cell_length_c                    14.87107
_cell_angle_alpha                 96.195734
_cell_angle_beta                  97.941051
_cell_angle_gamma                 99.174622
_cell_volume                      1522.91740489

loop_
_atom_site_label
_atom_site_type_symbol
_atom_site_description
_atom_site_fract_x
_atom_site_fract_y
_atom_site_fract_z
_atom_type_partial_charge
P1    P     P_3+3 0.998730 0.403530 0.291970 0.461323
O1    O     O_2   0.827880 0.435260 0.277750 -0.391968
O2    O     O_3   0.100280 0.438960 0.391170 -0.376735
O3    O     O_3   0.625580 0.634130 0.333250 -0.348847
O4    O     O_2   0.664859 0.532376 0.175612 -0.425617
O5    O     O_3   0.964851 0.262199 0.270413 -0.564118
O6    O     O_3   0.667864 0.738661 0.165494 -0.606762
H1    H     H_    0.743882 0.844704 0.288140 0.049906
C1    C     C_3   0.751383 0.931965 0.167994 -0.973113
H2    H     H_    0.710894 0.010080 0.185299 0.273504
H3    H     H_    0.883401 0.952560 0.187553 0.263601
P2    P     P_3+3 0.687380 0.751030 0.571310 0.458022
P3    P     P_3+3 0.106472 0.827863 0.374075 0.489162
O7    O     O_2   0.857130 0.766340 0.543890 -0.382520
O8    O     O_3   0.056550 0.691050 0.379010 -0.396700
O9    O     O_2   0.985091 0.879616 0.426799 -0.402590
O10   O     O_3   0.727001 0.781958 0.690911 -0.567919
O11   O     O_3   0.056933 0.856768 0.260424 -0.542575
C2    C     C_3   0.061686 0.773032 0.188563 0.485885
H4    H     H_    0.177325 0.744902 0.195043 0.160721
C3    C     C_3   0.035175 0.814010 0.093034 -0.551127
H5    H     H_    0.903239 0.796833 0.063446 0.219454
C4    C     C_3   0.271205 0.781399 0.654184 0.367655
H6    H     H_    0.376113 0.748788 0.631495 0.096763
H7    H     H_    0.163914 0.763789 0.598500 0.124755
C5    C     C_3   0.319516 0.902945 0.679186 -0.868807
H8    H     H_    0.436289 0.921044 0.727829 0.281567
H9    H     H_    0.337171 0.942691 0.617865 0.196729
H10   H     H_    0.221939 0.935836 0.710817 0.302090
Ba1   Ba    Ba6+2 0.843750 0.550210 0.455600 1.567108
C6    C     C_3   0.867055 0.214786 0.329261 0.397860
H11   H     H_    0.743385 0.184917 0.289548 0.128567
H12   H     H_    0.857852 0.270831 0.390396 0.094268
C7    C     C_3   0.937474 0.118295 0.359928 -0.914650
H13   H     H_    0.996699 0.080208 0.305844 0.276791
H14   H     H_    0.839431 0.056975 0.376696 0.231863
H15   H     H_    0.032176 0.145744 0.420855 0.280392
C8    C     C_3   0.779145 0.695235 0.730516 0.445073
H16   H     H_    0.893392 0.679174 0.706540 0.090970
H17   H     H_    0.683056 0.621349 0.713744 0.125111
C9    C     C_3   0.812794 0.725855 0.834148 -0.956056
H18   H     H_    0.907557 0.800249 0.853067 0.269746
H19   H     H_    0.857002 0.659827 0.868170 0.206341
H20   H     H_    0.698437 0.740616 0.859382 0.285023
P4    P     P_3+3 0.190990 0.596560 0.708040 0.457782
O12   O     O_2   0.361830 0.564780 0.722310 -0.369753
O13   O     O_3   0.089430 0.561130 0.608830 -0.410650
O14   O     O_3   0.564130 0.365960 0.666760 -0.355116
O15   O     O_3   0.232685 0.737494 0.732155 -0.553166
P5    P     P_3+3 0.084220 0.170133 0.625203 0.453905
O16   O     O_3   0.601940 0.368240 0.453770 -0.403872
O17   O     O_3   0.133170 0.309040 0.621000 -0.377298
O18   O     O_2   0.201738 0.116694 0.570730 -0.392090
O19   O     O_3   0.143427 0.147054 0.738108 -0.501163
Ba2   Ba    Ba6+2 0.346090 0.449880 0.544410 1.563336
P6    P     P_3+3 0.579214 0.623265 0.213201 0.493920
C10   C     C_3   0.675486 0.840537 0.218096 1.033371
H21   H     H_    0.720006 0.909715 0.092720 0.293283
O20   O     O_3   0.587780 0.631850 0.546230 -0.400798
C11   C     C_3   0.412899 0.286091 0.266088 0.395926
H22   H     H_    0.302793 0.307910 0.292077 0.118925
H23   H     H_    0.513878 0.357291 0.280263 0.119704
C12   C     C_3   0.371088 0.254449 0.162797 -0.916250
H24   H     H_    0.267662 0.184865 0.146075 0.267592
H25   H     H_    0.335339 0.323540 0.129535 0.210798
H26   H     H_    0.479378 0.231525 0.135319 0.284024
P7    P     P_3+3 0.504622 0.233189 0.425087 0.435052
O21   O     O_2   0.332590 0.233690 0.456160 -0.363064
O22   O     O_3   0.461016 0.198102 0.306094 -0.544212
H27   H     H_    0.094357 0.766453 0.043947 0.198538
C13   C     C_3   0.116494 0.234406 0.797807 0.520065
H28   H     H_    0.198599 0.310289 0.790530 0.143106
H29   H     H_    0.986965 0.245691 0.783846 -0.043961
C14   C     C_3   0.154308 0.212404 0.896509 -0.914342
H30   H     H_    0.288292 0.218179 0.916894 0.315226
H31   H     H_    0.112643 0.273221 0.943104 0.208579
H32   H     H_    0.090684 0.130527 0.904359 0.255434
P8    P     P_3+3 0.608499 0.375275 0.785578 0.456820
C15   C     C_3   0.608793 0.168436 0.769305 0.295661
H33   H     H_    0.692766 0.199663 0.722572 -0.039860
O23   O     O_2   0.497990 0.448715 0.826100 -0.393787
O24   O     O_3   0.537683 0.247824 0.815594 -0.493530
H34   H     H_    0.509286 0.109000 0.725673 0.128903
H35   H     H_    0.806068 0.171423 0.880385 0.074059
C16   C     C_3   0.705191 0.111418 0.838264 0.146424
H36   H     H_    0.759854 0.049180 0.800353 0.051410
C17   C     C_R   0.827366 0.430649 0.829102 0.162676
C18   C     C_R   0.897406 0.436657 0.922039 -0.043922
C19   C     C_R   0.040838 0.449918 0.109147 -0.079034
C20   C     C_R   0.882681 0.390966 0.076187 -0.051841
C21   C     C_R   0.810852 0.387207 0.985430 -0.172410
C22   C     C_R   0.109588 0.463310 0.203574 0.189441
H37   H     H_    0.810636 0.347838 0.119955 0.181725
H38   H     H_    0.687084 0.343416 0.965831 0.199389
C23   C     C_R   0.267450 0.522955 0.232183 -0.518097
C24   C     C_R   0.082524 0.530153 0.794848 0.242598
C25   C     C_R   0.151108 0.541768 0.888958 -0.052686
C26   C     C_R   0.060045 0.492329 0.952133 0.024432
C27   C     C_R   0.308823 0.600597 0.921900 -0.092069
C28   C     C_R   0.379688 0.605082 0.012462 -0.081900
C29   C     C_R   0.292276 0.557935 0.076444 -0.046446
C30   C     C_R   0.130883 0.500344 0.046081 -0.017093
C31   C     C_R   0.360730 0.567757 0.169975 0.311246
C32   C     C_R   0.922968 0.472628 0.766463 -0.527133
H39   H     H_    0.503573 0.647808 0.030765 0.189649
H40   H     H_    0.381591 0.643824 0.878606 0.181415
H41   H     H_    0.321184 0.530962 0.303598 0.189019
H42   H     H_    0.868983 0.465714 0.695187 0.179319
C33   C     C_R   0.768169 0.182765 0.538474 -0.466463
C34   C     C_R   0.415031 0.809997 0.470879 -0.425578
C35   C     C_R   0.382941 0.989253 0.440524 -0.091926
C36   C     C_R   0.317215 0.880499 0.435012 0.314355
C37   C     C_R   0.576306 0.848243 0.515764 0.275209
C38   C     C_R   0.642171 0.960431 0.525009 -0.079056
C39   C     C_R   0.544817 0.030813 0.484495 -0.067417
C40   C     C_R   0.611483 0.141361 0.489221 0.257992
C41   C     C_R   0.866676 0.114498 0.576531 0.186869
C42   C     C_R   0.802739 0.004371 0.571679 -0.199046
H43   H     H_    0.305282 0.039419 0.408531 0.181734
H44   H     H_    0.881230 0.954817 0.603882 0.186424
H45   H     H_    0.817597 0.268077 0.542929 0.168707
H46   H     H_    0.364218 0.724649 0.464325 0.164686
S1    S     S_3+6 0.477965 0.862646 0.222978 -0.124590
O25   O     O_2   0.412858 0.788513 0.285913 -0.405632
O26   O     O_2   0.470625 0.977576 0.257930 -0.342835
O27   O     O_3   0.381151 0.828687 0.114640 -0.613665
H47   H     H_    0.423429 0.888001 0.081043 0.372372
N1    N     N_3   0.938594 0.678078 0.187913 -0.140788
H48   H     H_    0.983715 0.626855 0.230607 0.155494
H49   H     H_    0.914780 0.632834 0.122821 0.103681
S2    S     S_3+6 0.582912 0.047990 0.913969 -0.043728
O28   O     O_2   0.623757 0.937424 0.922056 -0.321987
O29   O     O_2   0.621828 0.114776 0.006760 -0.308931
O30   O     O_3   0.382002 0.035684 0.874511 -0.511741
H50   H     H_    0.326070 0.992167 0.916384 0.360407
N2    N     N_3   0.093928 0.930258 0.095452 -0.160638
H51   H     H_    0.199558 0.957184 0.143495 0.258151
H52   H     H_    0.122622 0.944384 0.031056 0.140594

loop_
_geom_bond_atom_site_label_1
_geom_bond_atom_site_label_2
_geom_bond_distance
_ccdc_geom_bond_type
P8    C17   1.852107 S    
O14   Ba2   2.806993 S    
C8    H17   1.111012 S    
C17   C18   1.413822 A    
C12   H25   1.109286 S    
O27   H47   0.990319 S    
Ba2   O20   2.803699 S    
C19   C30   1.422729 A    
P5    C41   1.857787 S    
C9    H18   1.110946 S    
O4    P6    1.541980 D    
C2    H4    1.078704 S    
C15   C16   1.528670 S    
Ba1   O16   2.804264 S    
S2    O30   1.679585 S    
N1    H48   1.031608 S    
C15   O24   1.409692 S    
C38   C39   1.423881 A    
C16   S2    1.791080 S    
C33   C41   1.394983 A    
S1    O25   1.488693 D    
P4    O12   1.538988 D    
C28   H39   1.073467 S    
P5    O19   1.752523 S    
C14   H31   1.108441 S    
P3    O11   1.774647 S    
C20   H37   1.078907 S    
C11   C12   1.521813 S    
C11   H23   1.111073 S    
C2    C3    1.563079 S    
P1    O1    1.538772 D    
P3    C36   1.851797 S    
C16   H36   1.111265 S    
C8    H16   1.105990 S    
C4    O15   1.393093 S    
C39   C40   1.408480 A    
C7    H15   1.102534 S    
C2    N1    1.449016 S    
C35   H43   1.077454 S    
C7    H13   1.107509 S    
C4    C5    1.514562 S    
O14   P8    1.741777 S    
C1    C10   1.540659 S    
C28   C29   1.403824 A    
C33   C40   1.401140 A    
P2    O20   1.578294 S    
O2    Ba2   2.826992 S    
O19   C13   1.406565 S    
C35   C36   1.384521 A    
C14   H32   1.110597 S    
O12   Ba2   2.852187 S    
P5    O17   1.746067 S    
C4    H6    1.105276 S    
C6    H12   1.109510 S    
C1    H2    1.108845 S    
C3    N2    1.466490 S    
C7    H14   1.109329 S    
O17   Ba2   2.760937 S    
O5    C6    1.396079 S    
C12   H26   1.110346 S    
C29   C31   1.413578 A    
C3    H5    1.108629 S    
O3    P6    1.759343 S    
C9    H19   1.107014 S    
O6    P6    1.788914 S    
O7    Ba1   2.875817 S    
C25   C27   1.401621 A    
C23   C31   1.398959 A    
C25   C26   1.423363 A    
C42   H44   1.077589 S    
P4    O13   1.577720 S    
P5    O18   1.546895 D    
C14   H30   1.109163 S    
C12   H24   1.110818 S    
P7    O21   1.572675 D    
C29   C30   1.415968 A    
Ba1   O13   2.826225 S    
H35   C16   1.107567 S    
C8    C9    1.523347 S    
N2    H52   1.045621 S    
C13   H29   1.110137 S    
Ba2   O21   2.876110 S    
O11   C2    1.429144 S    
S1    O27   1.677956 S    
C26   C30   1.426598 A    
C22   C23   1.397258 A    
C17   C32   1.402233 A    
C11   H22   1.109548 S    
P1    O2    1.577566 S    
P2    O10   1.752613 S    
O2    Ba1   2.956577 S    
P7    C40   1.840466 S    
H1    C10   1.108758 S    
C10   S1    1.729960 S    
P8    O24   1.750317 S    
C6    H11   1.105043 S    
C18   C21   1.405299 A    
P4    O15   1.745237 S    
C24   C25   1.420068 A    
C5    H8    1.108437 S    
C6    C7    1.521181 S    
O16   P7    1.748329 S    
C19   C22   1.423387 A    
C1    H3    1.084723 S    
C34   C37   1.405226 A    
C38   C42   1.420301 A    
C23   H41   1.082015 S    
P2    O7    1.520569 D    
P1    C22   1.867242 S    
P3    O8    1.723083 S    
C9    H20   1.110345 S    
S2    O28   1.502295 D    
C32   H42   1.081870 S    
O8    Ba1   2.760335 S    
O13   Ba2   2.957443 S    
C37   C38   1.420191 A    
C27   H40   1.077750 S    
C1    H21   1.108295 S    
P2    Ba1   3.441058 S    
P6    C31   1.848834 S    
N2    H51   1.041608 S    
S2    O29   1.502742 D    
N1    H49   1.045956 S    
C13   C14   1.522979 S    
O30   H50   0.990537 S    
Ba1   Ba2   4.571691 S    
C5    H9    1.103426 S    
C27   C28   1.385973 A    
C3    H27   1.113057 S    
O1    Ba1   2.851617 S    
C24   C32   1.399325 A    
C13   H28   1.111218 S    
C41   C42   1.398230 A    
C34   H46   1.082206 S    
C21   H38   1.078452 S    
C15   H34   1.106391 S    
P8    O23   1.544468 D    
C33   H45   1.081911 S    
C20   C21   1.392172 A    
C11   O22   1.403300 S    
P1    Ba1   3.420374 S    
P2    C37   1.850278 S    
O16   Ba2   2.944036 S    
O10   C8    1.398815 S    
C4    H7    1.110319 S    
C34   C36   1.400470 A    
S1    O26   1.501234 D    
C15   H33   1.112755 S    
C18   C26   1.416428 A    
P4    Ba2   3.420941 S    
C5    H10   1.110391 S    
P3    O9    1.547636 D    
P1    O5    1.748392 S    
Ba1   O20   2.944808 S    
C35   C39   1.411838 A    
P7    O22   1.749736 S    
C19   C20   1.405189 A    
P4    C24   1.873076 S    
O6    C10   1.418833 S    
O3    Ba1   2.807668 S    
