data_mof_unit_52440.cif
_audit_creation_date              2012-12-10T18:02:48-0500
_audit_creation_method            fapswitch 2.2
_symmetry_space_group_name_H-M    P1
_symmetry_Int_Tables_number       1
_space_group_crystal_system       triclinic
_cell_length_a                    10.815975
_cell_length_b                    9.639877
_cell_length_c                    27.801287
_cell_angle_alpha                 89.586365
_cell_angle_beta                  92.402821
_cell_angle_gamma                 89.697658
_cell_volume                      2896.02272019

loop_
_atom_site_label
_atom_site_type_symbol
_atom_type_description
_atom_site_fract_x
_atom_site_fract_y
_atom_site_fract_z
_atom_type_partial_charge
C1    C     C_R   0.262437 0.500169 0.500150 0.784456
C2    C     C_R   0.737557 0.499749 0.500226 0.795646
C3    C     C_R   0.504267 0.500030 0.101924 -0.044100
C4    C     C_R   0.501019 0.495810 0.897997 -0.044150
C5    C     C_R   0.392902 0.514642 0.125934 -0.020435
C6    C     C_R   0.612989 0.497570 0.873904 -0.020692
C7    C     C_R   0.281362 0.528250 0.099161 -0.144581
C8    C     C_R   0.725158 0.500058 0.900595 -0.144964
C9    C     C_R   0.616432 0.486586 0.129206 -0.021500
C10   C     C_R   0.388218 0.493405 0.870796 -0.021700
C11   C     C_R   0.503609 0.501356 0.354615 -0.039692
C12   C     C_R   0.498715 0.498498 0.645391 -0.041664
C13   C     C_R   0.387922 0.499867 0.972811 0.043179
C14   C     C_R   0.617135 0.488834 0.027144 0.042998
C15   C     C_R   0.616573 0.494277 0.976022 0.043792
C16   C     C_R   0.388981 0.507597 0.023867 0.043662
C17   C     C_R   0.501844 0.496611 0.949155 0.067659
C18   C     C_R   0.503459 0.498817 0.050767 0.067804
C19   C     C_R   0.276439 0.494258 0.944331 -0.204001
C20   C     C_R   0.727797 0.472730 0.055734 -0.204373
C21   C     C_R   0.276869 0.491297 0.894403 -0.143098
C22   C     C_R   0.727182 0.471851 0.105679 -0.142714
C23   C     C_R   0.500889 0.500435 0.407584 0.794730
C24   C     C_R   0.499708 0.499553 0.592413 0.805484
C25   C     C_R   0.279172 0.525028 0.049202 -0.204678
C26   C     C_R   0.727201 0.498620 0.950577 -0.204168
C27   C     C_R   0.063970 0.374852 0.495250 -0.169492
C28   C     C_R   0.936024 0.624407 0.506266 -0.160884
C29   C     C_R   0.936093 0.374600 0.495252 -0.178944
C30   C     C_R   0.063869 0.624549 0.506531 -0.179336
C31   C     C_R   0.871586 0.499493 0.500563 -0.024941
C32   C     C_R   0.128412 0.499986 0.500613 -0.019352
C33   C     C_R   0.425718 0.074288 0.467941 0.235898
C34   C     C_R   0.577786 0.922863 0.530644 0.248316
C35   C     C_R   0.575579 0.070682 0.531909 0.162040
C36   C     C_R   0.420646 0.928256 0.469848 0.217119
C37   C     C_R   0.395767 0.515726 0.176460 0.535519
C38   C     C_R   0.610063 0.497704 0.823373 0.535054
C39   C     C_R   0.615102 0.487511 0.179682 0.535602
C40   C     C_R   0.389499 0.492748 0.820322 0.535396
C41   C     C_R   0.528912 0.378867 0.279567 -0.097277
C42   C     C_R   0.519832 0.620178 0.721464 -0.105702
C43   C     C_R   0.527595 0.378337 0.329689 -0.214811
C44   C     C_R   0.519411 0.621487 0.671314 -0.204661
C45   C     C_R   0.482917 0.625215 0.328410 -0.211039
C46   C     C_R   0.476846 0.374623 0.670601 -0.219330
C47   C     C_R   0.483731 0.625336 0.278268 -0.095413
C48   C     C_R   0.476645 0.373770 0.720760 -0.098402
C49   C     C_R   0.506352 0.502146 0.253718 0.354585
C50   C     C_R   0.498590 0.496382 0.746275 0.361862
Cu1   Cu    Cu3+1 0.500000 0.640660 0.500000 0.958747
Cu2   Cu    Cu3+1 0.500000 0.359340 0.500000 0.932049
H1    H     H_    0.465477 0.721892 0.346490 0.151935
H2    H     H_    0.458952 0.278635 0.651656 0.151320
H3    H     H_    0.466875 0.721128 0.258427 0.141214
H4    H     H_    0.459797 0.277862 0.739856 0.137801
H5    H     H_    0.194608 0.541557 0.116749 0.186867
H6    H     H_    0.812518 0.503312 0.882924 0.186104
H7    H     H_    0.535900 0.718533 0.652950 0.155168
H8    H     H_    0.546374 0.281886 0.348822 0.150922
H9    H     H_    0.536442 0.715339 0.741107 0.137402
H10   H     H_    0.546948 0.283400 0.260740 0.141124
H11   H     H_    0.188907 0.487402 0.874326 0.188648
H12   H     H_    0.814524 0.459409 0.125834 0.189216
H13   H     H_    0.186536 0.489269 0.959437 0.136179
H14   H     H_    0.816981 0.457692 0.040732 0.137093
H15   H     H_    0.189485 0.539380 0.031545 0.136304
H16   H     H_    0.817650 0.503902 0.968133 0.135425
H17   H     H_    0.111925 0.277178 0.490871 0.149201
H18   H     H_    0.888032 0.721997 0.510691 0.151302
H19   H     H_    0.888059 0.276925 0.490781 0.150331
H20   H     H_    0.111698 0.721968 0.511652 0.143066
N1    N     N_R   0.505791 0.502034 0.202160 -0.470083
N2    N     N_R   0.499388 0.495291 0.797794 -0.470804
N3    N     N_R   0.500000 0.852070 0.500000 -0.209544
N4    N     N_R   0.500000 0.147930 0.500000 -0.213877
O1    O     O_R   0.319640 0.618740 0.500000 -0.596063
O2    O     O_R   0.680360 0.381260 0.500000 -0.597941
O3    O     O_R   0.680360 0.618740 0.500000 -0.554680
O4    O     O_R   0.319640 0.381260 0.500000 -0.596199
O5    O     O_R   0.500020 0.618770 0.430260 -0.592900
O6    O     O_R   0.499980 0.381230 0.569740 -0.591525
O7    O     O_R   0.499980 0.618770 0.569740 -0.553304
O8    O     O_R   0.500020 0.381230 0.430260 -0.591823
O9    O     O_2   0.289425 0.529176 0.199768 -0.530420
O10   O     O_2   0.716842 0.499626 0.799941 -0.530184
O11   O     O_2   0.281923 0.490575 0.793926 -0.529137
O12   O     O_2   0.722165 0.474946 0.206119 -0.529456
N5    N     N_3   0.352959 0.140116 0.429978 -0.565206
H21   H     H_    0.295005 0.216539 0.442458 0.252896
H22   H     H_    0.410007 0.175898 0.403388 0.235503
N6    N     N_3   0.660359 0.846497 0.562647 -0.516048
H23   H     H_    0.750732 0.877702 0.556409 0.204985
H24   H     H_    0.641071 0.872648 0.597978 0.208696
N7    N     N_3   0.653386 0.134175 0.568276 -0.618439
H25   H     H_    0.600232 0.178846 0.594425 0.245949
H26   H     H_    0.715203 0.203028 0.553655 0.259037
N8    N     N_3   0.326331 0.864818 0.439911 -0.566968
H27   H     H_    0.258505 0.822313 0.460853 0.236095
H28   H     H_    0.362340 0.794408 0.416195 0.249312

loop_
_geom_bond_atom_site_label_1
_geom_bond_atom_site_label_2
_ccdc_geom_bond_type
C5    C37   A    
C27   C29   A    
C8    C26   A    
C14   C18   A    
N7    H25   S    
C25   H15   S    
C47   C49   A    
C38   O10   S    
C3    C9    A    
C39   O12   S    
C40   O11   S    
C37   O9    S    
C19   C21   A    
C24   O7    A    
Cu1   N3    S    
C50   N2    S    
C9    C22   A    
C44   H7    S    
C9    C39   A    
C33   C36   A    
C1    O1    A    
C3    C18   A    
C10   C40   A    
C34   C35   A    
Cu2   O8    S    
C24   O6    A    
C2    O3    A    
C8    H6    S    
C6    C38   A    
C11   C43   A    
N5    H22   S    
Cu1   O5    S    
C27   H17   S    
C34   N3    A    
C48   C50   A    
C45   H1    S    
C41   C43   A    
C42   C44   A    
C41   H10   S    
Cu2   O2    S    
C41   C49   A    
Cu1   O3    S    
C45   C47   A    
C10   C21   A    
C46   C48   A    
C35   N4    A    
C23   O8    A    
C13   C19   A    
Cu1   Cu2   S    
C14   C20   A    
C4    C6    A    
C5    C7    A    
C15   C26   A    
C6    C8    A    
Cu2   N4    S    
C1    C32   S    
C2    C31   S    
Cu1   O1    S    
C2    O2    A    
C36   N3    A    
C33   N5    S    
C33   N4    A    
C46   H2    S    
N6    H24   S    
Cu2   O6    S    
C42   H9    S    
C43   H8    S    
C42   C50   A    
C4    C17   A    
C12   C46   A    
C20   C22   A    
N8    H28   S    
C49   N1    S    
C11   C45   A    
C4    C10   A    
Cu1   O7    S    
C47   H3    S    
C38   N2    A    
C20   H14   S    
C16   C25   A    
C48   H4    S    
C37   N1    A    
C23   O5    A    
C27   C32   A    
C28   C31   A    
C28   H18   S    
C3    C5    A    
C30   H20   S    
N7    H26   S    
C15   C17   A    
C35   N7    S    
C12   C24   S    
C7    C25   A    
C13   C17   A    
C26   H16   S    
C28   C30   A    
C29   C31   A    
C30   C32   A    
C11   C23   S    
N6    H23   S    
C40   N2    A    
C19   H13   S    
C39   N1    A    
C34   N6    S    
C21   H11   S    
C22   H12   S    
C16   C18   A    
N8    H27   S    
C13   C16   A    
C1    O4    A    
C14   C15   A    
C12   C44   A    
C36   N8    S    
N5    H21   S    
Cu2   O4    S    
C7    H5    S    
C29   H19   S    
