data_mof_unit_17740.cif
_audit_creation_date              2012-12-11T14:23:09-0500
_audit_creation_method            fapswitch 2.2
_symmetry_space_group_name_H-M    P1
_symmetry_Int_Tables_number       1
_space_group_crystal_system       triclinic
_cell_length_a                    10.941261
_cell_length_b                    10.969345
_cell_length_c                    18.82795
_cell_angle_alpha                 90.333124
_cell_angle_beta                  89.875932
_cell_angle_gamma                 60.277919
_cell_volume                      1962.35015874

loop_
_atom_site_label
_atom_site_type_symbol
_atom_type_description
_atom_site_fract_x
_atom_site_fract_y
_atom_site_fract_z
_atom_type_partial_charge
C1    C     C_R   0.240911 0.643655 0.611216 0.532270
C2    C     C_R   0.551990 0.203110 0.719115 -0.161812
C3    C     C_R   0.564051 0.198626 0.791187 -0.157211
C4    C     C_R   0.653996 0.622685 0.600676 0.548830
C5    C     C_R   0.939125 0.111544 0.810758 -0.069331
C6    C     C_R   0.052383 0.086439 0.767154 -0.151117
C7    C     C_R   0.042302 0.079930 0.693925 -0.134365
C8    C     C_R   0.917636 0.102202 0.663492 -0.092851
C9    C     C_R   0.665714 0.176518 0.675381 -0.012957
C10   C     C_R   0.196105 0.655668 0.837878 -0.005498
C11   C     C_R   0.199121 0.542172 0.799946 0.025057
C12   C     C_3   0.655596 0.563206 0.800210 0.093293
C13   C     C_R   0.192122 0.546555 0.724532 0.020666
C14   C     C_R   0.232930 0.745175 0.728526 -0.152993
C15   C     C_R   0.225555 0.748384 0.801769 -0.162559
C16   C     C_R   0.628855 0.227185 0.602530 0.533702
C17   C     C_R   0.207631 0.425203 0.835403 -0.097980
C18   C     C_R   0.194896 0.322190 0.798346 -0.152204
C19   C     C_R   0.171826 0.334467 0.725581 -0.165764
C20   C     C_R   0.168916 0.445902 0.688935 -0.116356
C21   C     C_R   0.209354 0.650805 0.688195 -0.000852
C22   C     C_R   0.643553 0.664151 0.163696 -0.009095
C23   C     C_3   0.699303 0.676289 0.811682 0.058494
C24   C     C_R   0.700461 0.525341 0.187585 0.026539
C25   C     C_R   0.714178 0.499313 0.261394 0.021450
C26   C     C_R   0.569158 0.750581 0.283692 -0.134343
C27   C     C_R   0.581882 0.775353 0.212530 -0.152964
C28   C     C_R   0.217841 0.653066 0.402272 0.540553
C29   C     C_R   0.762616 0.411276 0.139192 -0.086294
C30   C     C_R   0.869138 0.282321 0.161511 -0.110345
C31   C     C_R   0.899300 0.260985 0.233143 -0.150154
C32   C     C_R   0.815765 0.362604 0.282960 -0.109034
C33   C     C_R   0.634357 0.613187 0.309474 0.004684
C34   C     C_3   0.669514 0.648729 0.676012 0.027721
C35   C     C_R   0.658358 0.144478 0.178417 0.010683
C36   C     C_R   0.523045 0.212811 0.208172 0.017842
C37   C     C_R   0.510754 0.201131 0.281422 0.041678
C38   C     C_R   0.765166 0.095103 0.294848 -0.171877
C39   C     C_R   0.777585 0.075090 0.222283 -0.138257
C40   C     C_R   0.619206 0.590377 0.385406 0.561055
C41   C     C_R   0.400647 0.277834 0.165840 -0.087991
C42   C     C_R   0.273314 0.298978 0.192152 -0.123431
C43   C     C_R   0.262484 0.270759 0.262744 -0.147541
C44   C     C_R   0.379097 0.221959 0.307155 -0.082255
C45   C     C_3   0.821200 0.615617 0.690931 -0.256462
C46   C     C_R   0.632306 0.166496 0.324640 0.010018
C47   C     C_R   0.143949 0.674280 0.185097 -0.005237
C48   C     C_R   0.198282 0.753368 0.217535 0.025008
C49   C     C_R   0.170700 0.783953 0.289685 0.036266
C50   C     C_R   0.105658 0.602845 0.300849 -0.147926
C51   C     C_R   0.089896 0.606495 0.227592 -0.141048
C52   C     C_R   0.614990 0.226865 0.395527 0.541410
C53   C     C_R   0.260259 0.819046 0.178484 -0.076875
C54   C     C_R   0.266906 0.932646 0.207292 -0.124234
C55   C     C_R   0.223603 0.973902 0.276836 -0.151659
C56   C     C_3   0.638025 0.547128 0.720039 -0.187738
C57   C     C_R   0.169688 0.905247 0.316560 -0.094095
C58   C     C_R   0.150915 0.688254 0.332508 -0.001772
C59   C     C_R   0.703624 0.101921 0.895966 0.543705
C60   C     C_R   0.724560 0.689125 0.887732 0.579731
C61   C     C_R   0.122354 0.703084 0.906855 0.534085
C62   C     C_R   0.676819 0.104092 0.104628 0.536162
C63   C     C_R   0.693383 0.689049 0.096125 0.535328
C64   C     C_3   0.580732 0.817371 0.780571 -0.267661
C65   C     C_R   0.093627 0.708861 0.112733 0.528575
C66   C     C_3   0.567200 0.802312 0.699911 -0.256434
C67   C     C_R   0.692811 0.157062 0.823810 0.030167
C68   C     C_3   0.836449 0.639553 0.769901 -0.231691
C69   C     C_R   0.810630 0.134407 0.781381 0.051219
C70   C     C_R   0.798027 0.137589 0.705994 0.010627
Cr1   Cr    Cr6+3 0.392940 0.397950 0.502230 0.995716
Cr2   Cr    Cr6+3 0.398400 0.708500 0.501260 0.997126
Cr3   Cr    Cr6+3 0.708640 0.393530 0.496460 0.984203
Cr4   Cr    Cr6+3 0.937880 0.938320 0.007620 0.992900
Cr5   Cr    Cr6+3 0.625560 0.937220 0.994510 0.995778
Cr6   Cr    Cr6+3 0.938080 0.625010 0.001190 1.005312
H1    H     H_    0.604913 0.903400 0.790212 0.153710
H2    H     H_    0.917248 0.089166 0.606588 0.131822
H3    H     H_    0.258713 0.817545 0.703393 0.137387
H4    H     H_    0.478315 0.848122 0.807101 0.105862
H5    H     H_    0.229682 0.409373 0.891607 0.130203
H6    H     H_    0.235528 0.829014 0.830182 0.129357
H7    H     H_    0.202356 0.233524 0.826689 0.108163
H8    H     H_    0.157602 0.256915 0.696989 0.117136
H9    H     H_    0.143724 0.453067 0.633261 0.138693
H10   H     H_    0.516099 0.839697 0.319412 0.143541
H11   H     H_    0.739294 0.425168 0.082966 0.130437
H12   H     H_    0.708925 0.436533 0.702973 0.163784
H13   H     H_    0.547730 0.881959 0.196151 0.143076
H14   H     H_    0.927606 0.198649 0.123540 0.133950
H15   H     H_    0.979016 0.160240 0.250772 0.122810
H16   H     H_    0.456639 0.832987 0.687553 0.130530
H17   H     H_    0.840366 0.330243 0.337027 0.165809
H18   H     H_    0.858346 0.057614 0.327344 0.110386
H19   H     H_    0.404084 0.305347 0.111052 0.127440
H20   H     H_    0.882198 0.010466 0.200313 0.159423
H21   H     H_    0.183094 0.336823 0.157538 0.120554
H22   H     H_    0.162429 0.288740 0.283359 0.103348
H23   H     H_    0.927239 0.544397 0.791515 0.167375
H24   H     H_    0.364903 0.192439 0.359781 0.139435
H25   H     H_    0.080715 0.536098 0.332691 0.130139
H26   H     H_    0.296820 0.787582 0.124404 0.126772
H27   H     H_    0.034728 0.557143 0.204374 0.147205
H28   H     H_    0.592156 0.875473 0.670868 0.127666
H29   H     H_    0.304840 0.989089 0.175564 0.122398
H30   H     H_    0.228384 0.060845 0.300303 0.103233
H31   H     H_    0.125635 0.949574 0.368111 0.128801
H32   H     H_    0.861056 0.726219 0.775804 0.123758
H33   H     H_    0.848551 0.682769 0.658016 0.117732
H34   H     H_    0.895723 0.504235 0.676968 0.145016
H35   H     H_    0.551986 0.599651 0.826715 0.151074
H36   H     H_    0.528812 0.569402 0.709706 0.108755
H37   H     H_    0.841987 0.396203 0.805252 0.334973
H38   H     H_    0.449527 0.232969 0.697857 0.169352
H39   H     H_    0.952648 0.120880 0.866773 0.160560
H40   H     H_    0.472461 0.218326 0.821681 0.151175
H41   H     H_    0.150239 0.067829 0.790384 0.090088
H42   H     H_    0.132245 0.055720 0.660474 0.104096
O1    O     O_R   0.507340 0.255690 0.581430 -0.525828
O2    O     O_R   0.837290 0.593240 0.915240 -0.491118
O3    O     O_R   0.065320 0.635310 0.931580 -0.516070
O4    O     O_R   0.280360 0.527380 0.578910 -0.512204
O5    O     O_R   0.068470 0.828620 0.091850 -0.533768
O6    O     O_R   0.799150 0.057200 0.079350 -0.515741
O7    O     O_R   0.585220 0.080180 0.076770 -0.527116
O8    O     O_R   0.627170 0.809480 0.067050 -0.505826
O9    O     O_R   0.816200 0.596410 0.076500 -0.520733
O10   O     O_R   0.045770 0.638240 0.081070 -0.509891
O11   O     O_3   0.833840 0.833520 0.001110 -0.243454
O12   O     O_R   0.524510 0.695820 0.424050 -0.498102
O13   O     O_R   0.260600 0.739610 0.584580 -0.531742
O14   O     O_R   0.532370 0.695050 0.573830 -0.505084
O15   O     O_R   0.744850 0.503430 0.576380 -0.525936
O16   O     O_R   0.699080 0.276500 0.571950 -0.512583
O17   O     O_R   0.498860 0.256520 0.419860 -0.535090
O18   O     O_R   0.272490 0.528150 0.429140 -0.496792
O19   O     O_R   0.252110 0.740440 0.423010 -0.535684
O20   O     O_3   0.751117 0.434086 0.831014 -0.710418
O21   O     O_R   0.736370 0.504260 0.414810 -0.539574
O22   O     O_R   0.691220 0.277270 0.422180 -0.528036
O23   O     O_3   0.499990 0.499990 0.499980 -0.254492
O24   O     O_R   0.089570 0.825450 0.930590 -0.526814
O25   O     O_R   0.818700 0.054260 0.929860 -0.510668
O26   O     O_R   0.606310 0.077010 0.915520 -0.537694
O27   O     O_R   0.646730 0.806540 0.917560 -0.524155

loop_
_geom_bond_atom_site_label_1
_geom_bond_atom_site_label_2
_ccdc_geom_bond_type
Cr4   O6    S    
Cr4   O25   S    
C34   C56   S    
C44   H24   S    
C64   H1    S    
Cr1   O4    S    
C19   C20   A    
C43   H22   S    
C30   H14   S    
C16   O16   A    
C34   C66   S    
C62   O6    A    
C7    C8    A    
C4    O14   A    
Cr3   O23   S    
C53   C54   A    
Cr5   O27   S    
C1    C21   S    
C12   C23   S    
C18   H7    S    
C26   C27   A    
Cr6   O2    S    
Cr6   O3    S    
C14   C21   A    
C36   C37   A    
C9    C16   S    
C3    H40   S    
Cr1   O17   S    
C30   C31   A    
C45   H33   S    
C56   H12   S    
C51   H27   S    
C40   O21   A    
C46   C52   S    
C11   C13   A    
C49   C57   A    
C61   O3    A    
C18   C19   A    
C41   C42   A    
C41   H19   S    
C1    O4    A    
C5    C69   A    
C59   C67   S    
C22   C63   S    
C24   C29   A    
C35   C36   A    
C47   C48   A    
C60   O2    A    
H37   O20   S    
C6    H41   S    
C17   H5    S    
C54   H29   S    
Cr1   O23   S    
C25   C32   A    
Cr4   O5    S    
Cr4   O24   S    
C59   O25   A    
C5    H39   S    
C8    H2    S    
C23   C60   S    
C64   H4    S    
C7    H42   S    
C36   C41   A    
Cr2   O23   S    
Cr2   O14   S    
C15   H6    S    
C48   C53   A    
C4    C34   S    
C33   C40   S    
C38   C46   A    
C55   H30   S    
C50   C58   A    
C65   O10   A    
C66   H28   S    
C38   C39   A    
C9    C70   A    
Cr5   O26   S    
C16   O1    A    
Cr1   O18   S    
C45   H34   S    
C66   H16   S    
Cr3   O21   S    
C50   C51   A    
C49   C58   A    
C67   C69   A    
C64   C66   S    
C23   C68   S    
C35   C39   A    
C43   C44   A    
C29   C30   A    
Cr6   O11   S    
C26   C33   A    
C31   C32   A    
C53   H26   S    
C26   H10   S    
C32   H17   S    
C20   H9    S    
C38   H18   S    
C45   C68   S    
C17   C18   A    
C13   C21   A    
C34   C45   S    
C14   H3    S    
C24   C25   A    
C12   C56   S    
Cr2   O19   S    
C57   H31   S    
Cr3   O15   S    
C59   O26   A    
C31   H15   S    
C22   C27   A    
C55   C57   A    
Cr6   O10   S    
C22   C24   A    
C42   H21   S    
C10   C61   S    
C42   C43   A    
C19   H8    S    
Cr2   O13   S    
C52   O17   A    
C40   O12   A    
C54   C55   A    
C11   C17   A    
C13   C20   A    
C28   O18   A    
C3    C67   A    
C28   O19   A    
C1    O13   A    
C62   O7    A    
C47   C51   A    
Cr2   O12   S    
C6    C7    A    
Cr3   O22   S    
C28   C58   S    
C8    C70   A    
Cr1   O1    S    
C10   C15   A    
Cr5   O8    S    
C37   C44   A    
C2    C3    A    
C23   C64   S    
C2    H38   S    
C5    C6    A    
C48   C49   A    
C52   O22   A    
C47   C65   S    
C27   H13   S    
C35   C62   S    
C12   O20   S    
C65   O5    A    
C69   C70   A    
C39   H20   S    
C29   H11   S    
C63   O8    A    
C10   C11   A    
C61   O24   A    
Cr3   O16   S    
C50   H25   S    
C60   O27   A    
Cr4   O11   S    
Cr6   O9    S    
C14   C15   A    
C68   H32   S    
Cr5   O7    S    
C37   C46   A    
C2    C9    A    
C56   H36   S    
C12   H35   S    
C63   O9    A    
Cr5   O11   S    
C25   C33   A    
C4    O15   A    
C68   H23   S    
