data_mof_unit_51489.cif
_audit_creation_date              2012-12-11T15:55:57-0500
_audit_creation_method            fapswitch 2.2
_symmetry_space_group_name_H-M    P1
_symmetry_Int_Tables_number       1
_space_group_crystal_system       triclinic
_cell_length_a                    11.046799
_cell_length_b                    11.132809
_cell_length_c                    18.75976
_cell_angle_alpha                 90.171716
_cell_angle_beta                  90.270836
_cell_angle_gamma                 59.61132
_cell_volume                      1990.12266183

loop_
_atom_site_label
_atom_site_type_symbol
_atom_type_description
_atom_site_fract_x
_atom_site_fract_y
_atom_site_fract_z
_atom_type_partial_charge
C1    C     C_R   0.357422 0.775370 0.397849 0.586217
C2    C     C_R   0.224043 0.403761 0.204553 -0.170066
C3    C     C_R   0.228650 0.411513 0.277616 -0.011375
C4    C     C_R   0.385487 0.354712 0.387742 0.592789
C5    C     C_R   0.859558 0.744354 0.375596 0.398932
C6    C     C_R   0.846735 0.643358 0.337628 -0.092454
C7    C     C_R   0.964877 0.532891 0.305141 -0.144333
C8    C     C_R   0.096605 0.522245 0.311553 0.018141
C9    C     C_R   0.363424 0.343197 0.311285 0.046295
C10   C     C_R   0.844272 0.340849 0.179843 0.014463
C11   C     C_R   0.918068 0.243568 0.232517 -0.089377
C12   C     C_R   0.610581 0.206716 0.150432 0.072659
C13   C     C_R   0.872324 0.262591 0.301753 0.140459
C14   C     C_R   0.666609 0.477941 0.267473 -0.131024
C15   C     C_R   0.712811 0.456115 0.196371 0.358736
C16   C     C_R   0.713424 0.415179 0.395324 0.579183
C17   C     C_3   0.067554 0.181095 0.253695 -0.270537
C18   C     C_3   0.018934 0.191602 0.330488 0.251624
C19   C     C_R   0.753742 0.387291 0.321382 0.020664
C20   C     C_R   0.351778 0.833699 0.176225 0.030250
C21   C     C_R   0.455964 0.838240 0.216753 0.111228
C22   C     C_R   0.454648 0.836591 0.291892 -0.076165
C23   C     C_R   0.346299 0.330840 0.163740 -0.067870
C24   C     C_R   0.232088 0.850140 0.285787 -0.109826
C25   C     C_R   0.250615 0.818751 0.213895 -0.108463
C26   C     C_3   0.502891 0.939984 0.212075 0.279884
C27   C     C_3   0.494671 0.947282 0.292239 -0.190884
C28   C     C_R   0.346126 0.766806 0.604734 0.540248
C29   C     C_R   0.340258 0.841887 0.327636 -0.014529
C30   C     C_R   0.302444 0.307325 0.809304 -0.013482
C31   C     C_R   0.370627 0.189072 0.765890 -0.009834
C32   C     C_R   0.375332 0.198852 0.693039 -0.076941
C33   C     C_R   0.228424 0.448813 0.703258 -0.122460
C34   C     C_R   0.486758 0.279714 0.268937 0.376810
C35   C     C_R   0.223551 0.437230 0.777096 0.322323
C36   C     C_3   0.518303 0.070522 0.769353 0.287059
C37   C     C_3   0.520209 0.073738 0.688970 -0.167193
C38   C     C_R   0.315831 0.330183 0.661507 -0.050464
C39   C     C_R   0.799874 0.349713 0.839128 0.028013
C40   C     C_R   0.368732 0.350525 0.595028 0.552499
C41   C     C_R   0.790780 0.461849 0.800187 -0.105858
C42   C     C_R   0.779003 0.466243 0.727807 0.004411
C43   C     C_R   0.745203 0.270397 0.729330 -0.156264
C44   C     C_R   0.757432 0.265342 0.804606 0.297425
C45   C     C_R   0.480096 0.273754 0.195089 0.013638
C46   C     C_3   0.884707 0.523113 0.796856 -0.131971
C47   C     C_3   0.869972 0.527315 0.716836 0.275495
C48   C     C_R   0.770787 0.363715 0.690032 -0.077595
C49   C     C_R   0.295516 0.847991 0.825417 0.086322
C50   C     C_R   0.180877 0.917734 0.779309 0.006472
C51   C     C_R   0.195652 0.900614 0.706565 -0.063222
C52   C     C_R   0.750274 0.383621 0.613306 0.549487
C53   C     C_R   0.445656 0.761214 0.722516 -0.092195
C54   C     C_R   0.429771 0.773173 0.796369 -0.058680
C55   C     C_3   0.045260 0.919678 0.777374 0.286950
C56   C     C_R   0.097540 0.639321 0.334546 0.361663
C57   C     C_3   0.061630 0.900267 0.697364 -0.191989
C58   C     C_R   0.327519 0.817735 0.677040 0.009978
C59   C     C_R   0.908270 0.316817 0.110540 0.580821
C60   C     C_R   0.326616 0.293382 0.092487 0.522324
C61   C     C_R   0.308443 0.896841 0.105041 0.550283
C62   C     C_R   0.878051 0.312954 0.906500 0.549753
C63   C     C_R   0.294919 0.286127 0.884756 0.582249
C64   C     C_R   0.811903 0.051145 0.046080 -0.096849
C65   C     C_R   0.275631 0.893221 0.898637 0.560452
C66   C     C_R   0.826705 0.997740 0.114792 -0.050702
C67   C     C_R   0.983488 0.747179 0.370803 0.453989
C68   C     C_R   0.727379 0.074712 0.167150 0.489633
C69   C     C_R   0.609145 0.266416 0.084066 -0.136751
C70   C     C_R   0.705171 0.186911 0.031338 -0.085305
Cr1   Cr    Cr6+3 0.601740 0.606840 0.505840 1.112331
Cr2   Cr    Cr6+3 0.291500 0.601560 0.495070 1.105374
Cr3   Cr    Cr6+3 0.606780 0.291630 0.499130 1.145151
Cr4   Cr    Cr6+3 0.062440 0.063060 0.008240 1.024718
Cr5   Cr    Cr6+3 0.062950 0.375000 0.998920 1.085876
Cr6   Cr    Cr6+3 0.374550 0.061770 0.992470 1.114577
F1    F     F_    0.614296 0.233586 0.299320 -0.583461
F2    F     F_    0.795884 0.662090 0.690911 -0.593559
F3    F     F_    0.051150 0.808260 0.812413 -0.521603
F4    F     F_    0.742867 0.015428 0.232077 -0.547516
F5    F     F_    0.213654 0.642106 0.318548 -0.653964
F6    F     F_    0.751189 0.842194 0.414573 -0.594668
F7    F     F_    0.632783 0.547854 0.144966 -0.619795
F8    F     F_    0.046936 0.276928 0.372542 -0.635978
F9    F     F_    0.638338 0.874030 0.186184 -0.570279
F10   F     F_    0.149458 0.552544 0.817397 -0.555971
F11   F     F_    0.528503 0.950993 0.796018 -0.612580
F12   F     F_    0.990636 0.854580 0.400392 -0.587900
F13   F     F_    0.740151 0.171879 0.842620 -0.677526
H1    H     H_    0.745572 0.651414 0.333139 0.161296
H2    H     H_    0.591032 0.097985 0.795264 0.212707
H3    H     H_    0.519753 0.983521 0.663628 0.203980
H4    H     H_    0.968288 0.457665 0.687504 0.117058
H5    H     H_    0.521705 0.726489 0.830523 0.170623
H6    H     H_    0.958387 0.020094 0.794280 0.181424
H7    H     H_    0.885715 0.989018 0.004944 0.177236
H8    H     H_    0.076629 0.798700 0.679122 0.204540
H9    H     H_    0.982107 0.992487 0.667065 0.105785
H10   H     H_    0.913010 0.894555 0.126935 0.139119
H11   H     H_    0.121405 0.455414 0.179376 0.167882
H12   H     H_    0.951990 0.459819 0.273907 0.157001
H13   H     H_    0.112440 0.247316 0.241028 0.135239
H14   H     H_    0.048542 0.091144 0.356420 0.167211
H15   H     H_    0.694620 0.230397 0.978757 0.196440
H16   H     H_    0.166641 0.813079 0.186971 0.169965
H17   H     H_    0.602457 0.093414 0.668789 0.132187
H18   H     H_    0.721397 0.199273 0.702215 0.136494
H19   H     H_    0.992630 0.447545 0.814281 0.149546
H20   H     H_    0.836683 0.627741 0.822135 0.239006
H21   H     H_    0.549796 0.700236 0.701187 0.208533
H22   H     H_    0.525359 0.370281 0.070695 0.153906
H23   H     H_    0.565851 0.566060 0.280874 0.141248
H24   H     H_    0.128167 0.078195 0.230362 0.107802
H25   H     H_    0.134474 0.871658 0.309412 0.232198
H26   H     H_    0.428314 0.038990 0.185229 0.111317
H27   H     H_    0.597405 0.913161 0.317072 0.265652
H28   H     H_    0.408926 0.049030 0.312399 0.105996
H29   H     H_    0.176093 0.552122 0.680346 0.180643
O1    O     O_R   0.748670 0.497520 0.427970 -0.482708
O2    O     O_R   0.417470 0.174910 0.067830 -0.510267
O3    O     O_R   0.375160 0.946380 0.070880 -0.473473
O4    O     O_R   0.476470 0.723930 0.429450 -0.516093
O5    O     O_R   0.160500 0.919670 0.926690 -0.473229
O6    O     O_R   0.933140 0.190380 0.936050 -0.485926
O7    O     O_R   0.909010 0.403210 0.925030 -0.523053
O8    O     O_R   0.179590 0.361290 0.918480 -0.462248
O9    O     O_R   0.391360 0.170840 0.907510 -0.478934
O10   O     O_R   0.350950 0.942600 0.922260 -0.469845
O11   O     O_3   0.166650 0.166610 0.999880 -0.300766
O12   O     O_R   0.300170 0.471020 0.567120 -0.513583
O13   O     O_R   0.264730 0.744140 0.416740 -0.398482
O14   O     O_R   0.309440 0.472410 0.418220 -0.474142
O15   O     O_R   0.501630 0.260530 0.414310 -0.424476
O16   O     O_R   0.727920 0.305730 0.428950 -0.423000
O17   O     O_R   0.738670 0.496020 0.588600 -0.457018
O18   O     O_R   0.467190 0.722540 0.578350 -0.499519
O19   O     O_R   0.254720 0.742640 0.577370 -0.511899
O20   O     O_R   0.491630 0.259030 0.574940 -0.517769
O21   O     O_R   0.718640 0.304340 0.577850 -0.507046
O22   O     O_3   0.500010 0.500010 0.500020 -0.331774
O23   O     O_R   0.186620 0.923750 0.087000 -0.548415
O24   O     O_R   0.957350 0.194160 0.084660 -0.524496
O25   O     O_R   0.935120 0.407280 0.085350 -0.477050
O26   O     O_R   0.203800 0.365060 0.067090 -0.505219

loop_
_geom_bond_atom_site_label_1
_geom_bond_atom_site_label_2
_ccdc_geom_bond_type
C53   H21   S    
C68   F4    S    
C66   C68   A    
C12   C69   A    
C24   H25   S    
C23   C45   A    
C22   C29   A    
C11   C13   A    
C41   C42   A    
Cr1   O4    S    
Cr4   O6    S    
C5    C67   A    
C16   O16   A    
C8    C56   A    
C62   O6    A    
C17   H24   S    
C7    C8    A    
C4    O14   A    
C53   C54   A    
C14   H23   S    
C12   C68   A    
C67   F12   S    
Cr6   O2    S    
C49   C65   S    
C13   C18   S    
Cr6   O3    S    
C36   C37   S    
C10   C15   A    
C26   F9    S    
C34   F1    S    
Cr1   O17   S    
C30   C31   A    
C35   F10   S    
C70   H15   S    
C20   C25   A    
C49   C54   A    
C52   O21   A    
C61   O3    A    
C20   C61   S    
C26   H26   S    
C1    O4    A    
C59   O24   A    
C46   H19   S    
C18   F8    S    
C41   C46   S    
C51   C57   S    
C64   C70   A    
C43   C48   A    
C31   C36   S    
Cr3   O20   S    
C18   H14   S    
C27   H27   S    
Cr4   O5    S    
Cr4   O24   S    
C2    H11   S    
C33   H29   S    
C21   C22   A    
C21   C26   S    
Cr2   O14   S    
C27   H28   S    
C36   F11   S    
C23   C60   S    
C13   C19   A    
C25   H16   S    
C65   O10   A    
C56   F5    S    
C24   C25   A    
C64   H7    S    
C39   C41   A    
C3    C8    S    
Cr5   O26   S    
C16   O1    A    
Cr1   O18   S    
C51   C58   A    
C15   F7    S    
Cr3   O21   S    
C50   C51   A    
C6    H1    S    
C40   O20   A    
Cr5   O7    S    
C64   C66   A    
C66   H10   S    
C42   C48   A    
C17   H13   S    
C3    C9    A    
C55   F3    S    
Cr6   O11   S    
C31   C32   A    
C48   C52   S    
C57   H8    S    
C1    C29   S    
C17   C18   S    
C47   H4    S    
C34   C45   A    
C43   H18   S    
C32   C37   S    
C20   C21   A    
C24   C29   A    
C39   C44   A    
Cr5   O25   S    
C30   C35   A    
C36   H2    S    
C55   H6    S    
Cr2   O19   S    
Cr4   O23   S    
Cr3   O15   S    
C32   C38   A    
C22   C27   S    
C55   C57   S    
C43   C44   A    
C26   C27   S    
C9    C34   A    
Cr6   O10   S    
Cr4   O11   S    
Cr2   O13   S    
C61   O23   A    
C52   O17   A    
C39   C62   S    
C40   O12   A    
C46   C47   S    
C11   C17   S    
Cr1   O22   S    
C37   H3    S    
C28   O18   A    
C14   C19   A    
C28   O19   A    
C50   C55   S    
C12   C45   S    
C1    O13   A    
C62   O7    A    
C53   C58   A    
Cr2   O12   S    
C6    C7    A    
Cr3   O22   S    
C28   C58   S    
C56   C67   A    
C33   C38   A    
Cr1   O1    S    
Cr5   O8    S    
C2    C3    A    
C37   H17   S    
C60   O26   A    
C38   C40   S    
C5    F6    S    
C69   H22   S    
C5    C6    A    
C16   C19   S    
C57   H9    S    
C33   C35   A    
C60   O2    A    
C42   C47   S    
C65   O5    A    
C69   C70   A    
C54   H5    S    
C63   O8    A    
C10   C11   A    
C59   O25   A    
Cr2   O22   S    
Cr3   O16   S    
C49   C50   A    
C7    H12   S    
C46   H20   S    
C2    C23   A    
Cr6   O9    S    
C14   C15   A    
C47   F2    S    
C4    C9    S    
C30   C63   S    
C10   C59   S    
C63   O9    A    
C44   F13   S    
Cr5   O11   S    
C4    O15   A    
