data_mof_unit_20715.cif
_audit_creation_date              2012-12-10T17:27:48-0500
_audit_creation_method            fapswitch 2.2
_symmetry_space_group_name_H-M    P1
_symmetry_Int_Tables_number       1
_space_group_crystal_system       triclinic
_cell_length_a                    10.644927
_cell_length_b                    11.983533
_cell_length_c                    12.912911
_cell_angle_alpha                 93.896072
_cell_angle_beta                  91.725203
_cell_angle_gamma                 84.847272
_cell_volume                      1636.29466655

loop_
_atom_site_label
_atom_site_type_symbol
_atom_type_description
_atom_site_fract_x
_atom_site_fract_y
_atom_site_fract_z
_atom_type_partial_charge
C1    C     C_R   0.495849 0.522363 0.701293 0.950406
C2    C     C_R   0.500672 0.642580 0.866954 0.393555
C3    C     C_R   0.510805 0.437065 0.870239 0.407944
C4    C     C_R   0.739790 0.498584 0.499610 0.854100
C5    C     C_R   0.538078 0.444307 0.976341 -0.036284
C6    C     C_R   0.533270 0.552091 0.029000 -0.042260
C7    C     C_R   0.529150 0.559438 0.135896 -0.203063
C8    C     C_R   0.553139 0.357199 0.140501 -0.327268
C9    C     C_R   0.559085 0.346267 0.032990 0.272415
C10   C     C_R   0.370755 0.957507 0.410558 0.472718
C11   C     C_R   0.382564 0.840765 0.420996 -0.093333
C12   C     C_R   0.936110 0.433729 0.410815 0.055211
C13   C     C_R   0.562708 0.855198 0.531211 -0.046386
C14   C     C_R   0.553769 0.973566 0.526633 -0.112818
C15   C     C_R   0.454977 0.025207 0.466301 -0.064026
C16   C     C_R   0.512258 0.477499 0.300517 0.897453
C17   C     C_R   0.443266 0.143296 0.462762 -0.156398
C18   C     C_R   0.619810 0.160381 0.578497 0.654802
C19   C     C_R   0.639262 0.041679 0.581418 0.035699
C20   C     C_R   0.260033 0.500503 0.493975 0.922456
C21   C     C_R   0.873935 0.367042 0.334589 -0.271049
C22   C     C_R   0.938629 0.313219 0.250895 -0.187583
C23   C     C_R   0.872076 0.494565 0.493707 -0.071830
C24   C     C_R   0.064587 0.332151 0.235273 0.254521
C25   C     C_R   0.125334 0.404451 0.308038 0.113983
C26   C     C_R   0.065017 0.445181 0.401840 0.037201
C27   C     C_3   0.709319 0.212083 0.945254 -0.684895
C28   C     C_3   0.564512 0.795369 0.792898 -0.284234
C29   C     C_3   0.356996 0.321886 0.824976 -0.229096
C30   C     C_3   0.814815 0.224631 0.619038 -0.248260
C31   C     C_3   0.301753 0.988172 0.246243 -0.364549
C32   C     C_3   0.849257 0.944272 0.584388 -0.807822
C33   C     C_3   0.062279 0.235585 0.057865 -0.838436
C34   C     C_R   0.933179 0.559492 0.569277 -0.227601
C35   C     C_3   0.200798 0.564011 0.236001 -0.757872
C36   C     C_3   0.632830 0.793529 0.072036 -0.834467
C37   C     C_R   0.061112 0.561715 0.566366 -0.227975
C38   C     C_R   0.126706 0.503590 0.485019 -0.079970
C39   C     C_R   0.532031 0.463417 0.190632 -0.096635
C40   C     C_R   0.500535 0.535252 0.814545 -0.360401
C41   C     C_R   0.518606 0.651181 0.975102 0.130181
H1    H     H_    0.881826 0.606140 0.631983 0.140136
H2    H     H_    0.554317 0.172956 0.024180 0.200712
H3    H     H_    0.716294 0.129419 0.900428 0.237065
H4    H     H_    0.778122 0.208500 0.011575 0.195507
H5    H     H_    0.733177 0.276753 0.893129 0.265706
H6    H     H_    0.642300 0.739154 0.756458 0.146991
H7    H     H_    0.599862 0.842792 0.862369 0.156374
H8    H     H_    0.531129 0.859186 0.738077 0.187445
H9    H     H_    0.300597 0.388090 0.782846 0.137631
H10   H     H_    0.325095 0.322762 0.906366 0.143393
H11   H     H_    0.338513 0.239501 0.785794 0.181796
H12   H     H_    0.369873 0.184553 0.415394 0.199631
H13   H     H_    0.831024 0.206310 0.534419 0.142125
H14   H     H_    0.871177 0.163029 0.665754 0.184677
H15   H     H_    0.850932 0.307152 0.641075 0.179672
H16   H     H_    0.309409 0.897269 0.220607 0.171643
H17   H     H_    0.390250 0.026060 0.229678 0.156138
H18   H     H_    0.224371 0.030051 0.199575 0.204414
H19   H     H_    0.714780 0.943091 0.697861 0.211027
H20   H     H_    0.928951 0.923305 0.639134 0.243863
H21   H     H_    0.879749 0.003880 0.530029 0.246776
H22   H     H_    0.827232 0.866201 0.539058 0.245058
H23   H     H_    0.315910 0.788629 0.381277 0.149000
H24   H     H_    0.217380 0.242834 0.161204 0.212527
H25   H     H_    0.126968 0.215758 0.991974 0.238982
H26   H     H_    0.984094 0.296068 0.032383 0.253044
H27   H     H_    0.025283 0.156421 0.078502 0.236838
H28   H     H_    0.291577 0.403872 0.228773 0.227080
H29   H     H_    0.287533 0.601562 0.216285 0.237278
H30   H     H_    0.150201 0.622285 0.294541 0.245104
H31   H     H_    0.140737 0.555501 0.164460 0.240921
H32   H     H_    0.458191 0.822318 0.996129 0.259329
H33   H     H_    0.617530 0.877341 0.114203 0.235013
H34   H     H_    0.636149 0.812058 0.576565 0.141506
H35   H     H_    0.700329 0.798402 0.009106 0.235007
H36   H     H_    0.676583 0.733683 0.127246 0.258095
H37   H     H_    0.774903 0.355167 0.338126 0.175540
H38   H     H_    0.887402 0.260357 0.196592 0.157870
H39   H     H_    0.109549 0.607668 0.628405 0.155051
H40   H     H_    0.513854 0.640976 0.176945 0.196176
H41   H     H_    0.562681 0.282837 0.184402 0.153204
N1    N     N_R   0.523130 0.207800 0.519340 -0.163160
N2    N     N_R   0.476870 0.792180 0.480660 -0.120310
N3    N     N_2   0.582692 0.236852 0.983113 -0.262358
N4    N     N_2   0.741247 0.993598 0.642480 -0.303615
N5    N     N_2   0.130720 0.284717 0.145459 -0.309773
N6    N     N_2   0.232674 0.455041 0.276863 -0.308754
N7    N     N_2   0.513046 0.759060 0.030446 -0.309480
O1    O     O_R   0.506170 0.421690 0.658830 -0.523436
O2    O     O_3   0.487533 0.333929 0.821646 -0.526671
O3    O     O_3   0.686356 0.230773 0.645068 -0.557864
O4    O     O_3   0.271948 0.005724 0.352123 -0.614079
O5    O     O_R   0.491330 0.609320 0.646410 -0.584355
O6    O     O_R   0.690660 0.406170 0.506210 -0.616585
O7    O     O_R   0.675810 0.593790 0.493790 -0.627575
O8    O     O_R   0.508670 0.390680 0.353590 -0.640870
O9    O     O_R   0.493830 0.578310 0.341170 -0.626019
O10   O     O_R   0.324190 0.406210 0.506210 -0.627190
O11   O     O_R   0.309340 0.593830 0.493790 -0.612746
O12   O     O_3   0.460306 0.737331 0.815269 -0.584291
Zn1   Zn    Zn3+2 0.509910 0.374720 0.508290 0.980976
Zn2   Zn    Zn3+2 0.490090 0.625280 0.491710 0.954677

loop_
_geom_bond_atom_site_label_1
_geom_bond_atom_site_label_2
_ccdc_geom_bond_type
C36   N7    S    
C8    C9    A    
C41   N7    S    
C28   H6    S    
C1    O1    A    
N1    Zn1   S    
C34   C37   A    
C34   H1    S    
C19   N4    S    
C30   H13   S    
C12   C23   A    
C8    H41   S    
C31   H17   S    
C32   H20   S    
C10   C15   A    
C5    C6    A    
C16   O8    A    
C2    C41   A    
O9    Zn2   S    
C3    O2    S    
C18   C19   A    
C28   H8    S    
C31   H18   S    
C27   N3    S    
O1    Zn1   S    
C36   H35   S    
C1    C40   S    
C9    N3    S    
C4    O7    A    
C28   O12   S    
C13   H34   S    
C35   H29   S    
C1    O5    A    
C6    C41   A    
C20   O11   A    
C21   H37   S    
C8    C39   A    
O8    Zn1   S    
O6    Zn1   S    
C27   H4    S    
C35   H30   S    
C13   C14   A    
C27   H3    S    
C33   H25   S    
H24   N5    S    
C29   H9    S    
C37   H39   S    
H2    N3    S    
C24   C25   A    
C30   O3    S    
C11   H23   S    
C4    C23   S    
H19   N4    S    
C26   C38   A    
C2    O12   S    
C25   C26   A    
C31   O4    S    
C30   H15   S    
C12   C21   A    
O11   Zn2   S    
C12   C26   A    
C17   N1    A    
C5    C9    A    
C37   C38   A    
C4    O6    A    
C20   C38   S    
C35   N6    S    
C13   N2    A    
C23   C34   A    
C32   N4    S    
C18   N1    A    
C22   H38   S    
H28   N6    S    
C36   H33   S    
C27   H5    S    
C7    H40   S    
C35   H31   S    
C22   C24   A    
C17   H12   S    
C29   O2    S    
C33   H26   S    
C29   H10   S    
C15   C17   A    
C28   H7    S    
O5    Zn2   S    
C14   C19   A    
C32   H22   S    
C3    C5    A    
C3    C40   A    
C6    C7    A    
C11   N2    A    
C30   H14   S    
C10   O4    S    
C36   H36   S    
C18   O3    S    
C31   H16   S    
C33   N5    S    
H32   N7    S    
C16   O9    A    
C20   O10   A    
C25   N6    S    
C24   N5    S    
C10   C11   A    
C16   C39   S    
C32   H21   S    
C2    C40   A    
O10   Zn1   S    
O7    Zn2   S    
N2    Zn2   S    
C7    C39   A    
C14   C15   A    
C21   C22   A    
C33   H27   S    
C29   H11   S    
