data_mof_unit_19599.cif
_audit_creation_date              2012-12-10T17:35:50-0500
_audit_creation_method            fapswitch 2.2
_symmetry_space_group_name_H-M    P1
_symmetry_Int_Tables_number       1
_space_group_crystal_system       triclinic
_cell_length_a                    10.498511
_cell_length_b                    11.982447
_cell_length_c                    12.887859
_cell_angle_alpha                 94.239606
_cell_angle_beta                  90.143583
_cell_angle_gamma                 85.950425
_cell_volume                      1612.78585675

loop_
_atom_site_label
_atom_site_type_symbol
_atom_type_description
_atom_site_fract_x
_atom_site_fract_y
_atom_site_fract_z
_atom_type_partial_charge
Br1   Br    Br    0.592627 0.783330 0.042068 -0.572161
Br2   Br    Br    0.407357 0.216674 0.957933 -0.572161
C1    C     C_R   0.496233 0.523256 0.700704 0.927557
C2    C     C_R   0.602984 0.163357 0.591445 -0.096203
C3    C     C_R   0.548056 0.858846 0.544178 -0.025988
C4    C     C_R   0.451944 0.141154 0.455822 -0.025998
C5    C     C_R   0.540793 0.976257 0.537398 -0.100750
C6    C     C_R   0.459207 0.023743 0.462601 -0.100757
C7    C     C_R   0.742762 0.499847 0.500109 0.866764
C8    C     C_R   0.257238 0.500153 0.499891 0.866763
C9    C     C_3   0.968115 0.394216 0.507749 -0.127022
C10   C     C_3   0.031885 0.605784 0.492251 -0.127022
C11   C     C_3   0.045701 0.461581 0.589215 -0.179052
C12   C     C_R   0.503766 0.476744 0.299295 0.927558
C13   C     C_3   0.954298 0.538419 0.410785 -0.179051
C14   C     C_3   0.122193 0.500808 0.499873 0.015963
C15   C     C_3   0.877807 0.499192 0.500127 0.015963
C16   C     C_3   0.047299 0.433613 0.418393 -0.170212
C17   C     C_3   0.952701 0.566387 0.581607 -0.170213
C18   C     C_R   0.507131 0.460528 0.187287 -0.245364
C19   C     C_R   0.492863 0.539473 0.812713 -0.245363
C20   C     C_R   0.537257 0.646217 0.973310 0.195420
C21   C     C_R   0.462732 0.353784 0.026690 0.195420
C22   C     C_R   0.519555 0.642058 0.865927 0.472777
C23   C     C_R   0.469039 0.446646 0.866590 -0.280043
C24   C     C_R   0.480436 0.357943 0.134073 0.472781
C25   C     C_3   0.577618 0.199227 0.191572 -0.207540
C26   C     C_3   0.422372 0.800773 0.808427 -0.207529
C27   C     C_3   0.338902 0.955616 0.222922 -0.222770
C28   C     C_3   0.661108 0.044395 0.777078 -0.222798
C29   C     C_R   0.530954 0.553355 0.133410 -0.280044
C30   C     C_R   0.481977 0.449810 0.973139 0.000416
C31   C     C_R   0.518013 0.550191 0.026861 0.000416
C32   C     C_R   0.388263 0.952995 0.395945 0.446159
C33   C     C_R   0.611736 0.047005 0.604055 0.446163
C34   C     C_R   0.397015 0.836642 0.408555 -0.096195
H1    H     H_    0.087836 0.430447 0.661668 0.150339
H2    H     H_    0.610039 0.819948 0.600452 0.210146
H3    H     H_    0.660131 0.218704 0.638964 0.150022
H4    H     H_    0.339867 0.781296 0.361037 0.150024
H5    H     H_    0.654028 0.247925 0.229078 0.144816
H6    H     H_    0.609081 0.164105 0.112767 0.184918
H7    H     H_    0.564085 0.127713 0.239311 0.182264
H8    H     H_    0.435913 0.872308 0.760717 0.182278
H9    H     H_    0.390885 0.835866 0.887235 0.184895
H10   H     H_    0.345976 0.752082 0.770892 0.144831
H11   H     H_    0.443415 0.955965 0.208335 0.182482
H12   H     H_    0.912164 0.569553 0.338332 0.150338
H13   H     H_    0.289823 0.009664 0.166685 0.227388
H14   H     H_    0.306607 0.869712 0.207136 0.160009
H15   H     H_    0.710166 0.990338 0.833318 0.227392
H16   H     H_    0.556593 0.044078 0.791668 0.182484
H17   H     H_    0.693437 0.130289 0.792860 0.160010
H18   H     H_    0.938092 0.307958 0.514099 0.158107
H19   H     H_    0.061908 0.692042 0.485901 0.158107
H20   H     H_    0.090744 0.379742 0.352126 0.159194
H21   H     H_    0.909256 0.620258 0.647874 0.159193
H22   H     H_    0.556490 0.629575 0.176084 0.230208
H23   H     H_    0.443505 0.370426 0.823916 0.230207
H24   H     H_    0.389961 0.180052 0.399548 0.210145
N1    N     N_R   0.523490 0.207800 0.519350 -0.136264
N2    N     N_R   0.476510 0.792200 0.480650 -0.136268
O1    O     O_R   0.506270 0.421700 0.658830 -0.631143
O2    O     O_3   0.539353 0.735418 0.812591 -0.572678
O3    O     O_3   0.304819 0.999220 0.324584 -0.622967
O4    O     O_3   0.695177 0.000778 0.675418 -0.622962
O5    O     O_R   0.493730 0.578300 0.341170 -0.631144
O6    O     O_R   0.491200 0.609310 0.646410 -0.583301
O7    O     O_R   0.508800 0.390690 0.353590 -0.583296
O8    O     O_R   0.693580 0.406210 0.506230 -0.634708
O9    O     O_R   0.306420 0.593790 0.493770 -0.634710
O10   O     O_R   0.678510 0.593830 0.493810 -0.614377
O11   O     O_R   0.321490 0.406170 0.506190 -0.614376
O12   O     O_3   0.460638 0.264584 0.187410 -0.572682
Zn1   Zn    Zn3+2 0.510060 0.374730 0.508290 0.957598
Zn2   Zn    Zn3+2 0.489940 0.625270 0.491710 0.957596

loop_
_geom_bond_atom_site_label_1
_geom_bond_atom_site_label_2
_ccdc_geom_bond_type
C13   C16   S    
C28   H15   S    
C9    C16   S    
C1    O6    A    
C7    O10   A    
O10   Zn2   S    
C5    C6    A    
C27   H13   S    
N1    Zn1   S    
C26   H10   S    
O1    Zn1   S    
C27   H11   S    
C4    N1    A    
O9    Zn2   S    
C8    O11   A    
C21   C24   A    
C28   H16   S    
C15   C17   S    
C10   C14   S    
C12   O5    A    
C29   C31   A    
C25   O12   S    
C11   H1    S    
C16   H20   S    
C8    O9    A    
C23   C30   A    
C2    C33   A    
Br1   C20   S    
C22   O2    S    
C3    H2    S    
O11   Zn1   S    
N2    Zn2   S    
C13   H12   S    
C34   N2    A    
C32   O3    S    
C27   H14   S    
C28   H17   S    
C26   H9    S    
C11   C17   S    
C4    H24   S    
C34   H4    S    
C7    O8    A    
C3    C5    A    
C4    C6    A    
C33   O4    S    
C2    N1    A    
C26   H8    S    
C17   H21   S    
C12   C18   S    
C25   H5    S    
C2    H3    S    
C6    C32   A    
C28   O4    S    
C9    H18   S    
C27   O3    S    
C26   O2    S    
C7    C15   S    
C10   C13   S    
C12   O7    A    
C20   C22   A    
C11   C14   S    
O8    Zn1   S    
C29   H22   S    
C13   C15   S    
C20   C31   A    
C19   C23   A    
C9    C15   S    
C5    C33   A    
C1    O1    A    
O6    Zn2   S    
C21   C30   A    
C8    C14   S    
C30   C31   A    
C9    C11   S    
C25   H6    S    
C18   C24   A    
C10   C17   S    
C24   O12   S    
C3    N2    A    
O7    Zn1   S    
C32   C34   A    
C10   H19   S    
C1    C19   S    
C25   H7    S    
C14   C16   S    
C19   C22   A    
Br2   C21   S    
O5    Zn2   S    
C23   H23   S    
C18   C29   A    
