data_mof_unit_56926.cif
_audit_creation_date              2012-12-11T15:42:42-0500
_audit_creation_method            fapswitch 2.2
_symmetry_space_group_name_H-M    P1
_symmetry_Int_Tables_number       1
_space_group_crystal_system       triclinic
_cell_length_a                    6.92422
_cell_length_b                    14.549013
_cell_length_c                    16.227193
_cell_angle_alpha                 90.539693
_cell_angle_beta                  89.900849
_cell_angle_gamma                 90.084114
_cell_volume                      1634.65992904

loop_
_atom_site_label
_atom_site_type_symbol
_atom_type_description
_atom_site_fract_x
_atom_site_fract_y
_atom_site_fract_z
_atom_type_partial_charge
O1    O     O_R   0.505810 0.583360 0.413880 -0.554896
O2    O     O_R   0.175870 0.595480 0.585520 -0.544535
O3    O     O_R   0.005540 0.416640 0.586120 -0.544018
C1    C     C_R   0.344864 0.617363 0.614902 0.690691
O4    O     O_R   0.176100 0.594390 0.414490 -0.537533
O5    O     O_R   0.005770 0.415540 0.413870 -0.539936
C2    C     C_R   0.346548 0.615168 0.384526 0.689629
O6    O     O_R   0.505580 0.584460 0.586130 -0.540616
O7    O     O_3   0.339190 0.441320 0.500000 -0.368490
V1    V     V_3+5 0.064350 0.510890 0.500000 1.400516
O8    O     O_R   0.676050 0.404520 0.414480 -0.546004
C3    C     C_R   0.845120 0.382205 0.385603 0.697615
O9    O     O_R   0.675830 0.405610 0.585510 -0.538108
C4    C     C_R   0.844810 0.385913 0.615080 0.785231
V2    V     V_3+5 0.564340 0.489110 0.500000 1.398779
O10   O     O_3   0.839370 0.558680 0.500000 -0.380810
C5    C     C_2   0.731048 0.222721 0.795045 0.395379
C6    C     C_2   0.882136 0.164397 0.809611 -0.232415
C7    C     C_2   0.716734 0.273192 0.714725 -0.272038
C8    C     C_2   0.859551 0.328124 0.688798 -0.388115
H1    H     H_    0.584512 0.269074 0.679120 0.155390
H2    H     H_    0.992431 0.332218 0.724198 0.133563
C9    C     C_R   0.047573 0.223227 0.219173 -0.154871
H3    H     H_    0.188565 0.204554 0.195474 0.116565
C10   C     C_R   0.036313 0.287234 0.283963 -0.136899
H4    H     H_    0.169201 0.316077 0.308032 0.120199
C11   C     C_R   0.856378 0.313617 0.317095 -0.036545
C12   C     C_R   0.687990 0.274407 0.283461 -0.146614
H5    H     H_    0.546999 0.293108 0.307142 0.116560
C13   C     C_R   0.699248 0.210399 0.218670 -0.145050
H6    H     H_    0.566357 0.181585 0.194578 0.117432
C14   C     C_R   0.879208 0.183866 0.185656 -0.042004
C15   C     C_R   0.188132 0.723652 0.718981 -0.157224
H7    H     H_    0.047237 0.706159 0.694564 0.117092
C16   C     C_R   0.199533 0.785993 0.785210 -0.126930
H8    H     H_    0.066810 0.814861 0.809438 0.119364
C17   C     C_R   0.379317 0.811019 0.819360 -0.045302
C18   C     C_R   0.547310 0.771608 0.785446 -0.153473
H9    H     H_    0.688201 0.789042 0.809902 0.116590
C19   C     C_R   0.535902 0.709269 0.719214 -0.148206
H10   H     H_    0.668606 0.680346 0.695024 0.119563
C20   C     C_R   0.356185 0.684587 0.684814 -0.051097
C21   C     C_R   0.203241 0.737770 0.296141 -0.116523
H11   H     H_    0.071733 0.733297 0.332064 0.113739
C22   C     C_R   0.210663 0.801145 0.231770 -0.130414
H12   H     H_    0.084963 0.843248 0.220064 0.116266
C23   C     C_R   0.378890 0.811334 0.184226 -0.084692
C24   C     C_R   0.537671 0.755274 0.201186 -0.140570
H13   H     H_    0.667684 0.762009 0.164360 0.151407
C25   C     C_R   0.533155 0.690736 0.265126 0.002191
C26   C     C_R   0.363024 0.681964 0.314911 -0.123175
O11   O     O_R   0.230120 0.912300 0.917180 -0.535687
O12   O     O_R   0.559740 0.902430 0.088770 -0.549831
O13   O     O_R   0.729930 0.081310 0.089370 -0.543074
C27   C     C_R   0.390289 0.880198 0.117204 0.678915
O14   O     O_R   0.559840 0.901330 0.917750 -0.548812
O15   O     O_R   0.730030 0.080210 0.917120 -0.516131
C28   C     C_R   0.390768 0.878979 0.888720 0.718745
O16   O     O_R   0.230020 0.913400 0.089430 -0.544073
O17   O     O_3   0.396460 0.055470 0.003290 -0.357535
V3    V     V_3+5 0.671360 0.985960 0.003250 1.452692
O18   O     O_R   0.059740 0.091300 0.917690 -0.523405
C29   C     C_R   0.891069 0.110685 0.887430 0.816070
O19   O     O_R   0.059640 0.092400 0.088720 -0.551171
C30   C     C_R   0.890529 0.114936 0.117418 0.672911
V4    V     V_3+5 0.171350 0.007820 0.003190 1.470908
O20   O     O_3   0.896380 0.938200 0.003220 -0.382400
O21   O     O_3   0.597297 0.236143 0.859223 -0.562652
C31   C     C_3   0.433872 0.289783 0.838908 0.157668
H14   H     H_    0.317852 0.272383 0.883532 0.139033
H15   H     H_    0.372106 0.271627 0.777810 0.117448
C32   C     C_3   0.476500 0.392998 0.848367 -0.343258
H16   H     H_    0.501923 0.409421 0.914499 0.204310
H17   H     H_    0.608697 0.412110 0.813806 0.209398
C33   C     C_3   0.308754 0.450888 0.817021 -0.833495
H18   H     H_    0.287519 0.438724 0.749944 0.225912
H19   H     H_    0.341044 0.524938 0.827107 0.242880
H20   H     H_    0.173660 0.433484 0.850489 0.230682
C34   C     C_2   0.709971 0.634431 0.275761 0.326977
H21   H     H_    0.770932 0.622125 0.335924 0.087165
O22   O     O_2   0.795670 0.603904 0.215642 -0.526755
C35   C     C_2   0.028550 0.141831 0.744534 0.250315
H22   H     H_    0.009909 0.163828 0.681478 0.092829
O23   O     O_2   0.170986 0.095831 0.760210 -0.523238

loop_
_geom_bond_atom_site_label_1
_geom_bond_atom_site_label_2
_ccdc_geom_bond_type
C18   C19   A    
C27   O16   A    
O12   C27   A    
C7    C8    D    
C1    O6    A    
C25   C34   S    
O13   C30   A    
C22   H12   S    
O18   C29   A    
C15   C20   A    
C12   H5    S    
C16   C17   A    
O16   V4    S    
O5    C3    A    
C13   H6    S    
C6    C29   S    
V2    O10   S    
C31   H15   S    
C5    C7    S    
O8    V2    S    
C16   H8    S    
O14   C28   A    
O21   C31   S    
C9    H3    S    
O15   C29   A    
O1    V2    S    
O7    V1    S    
C17   C28   S    
C19   C20   A    
V4    O20   S    
O17   V4    S    
O9    C4    A    
O12   V3    S    
C32   C33   S    
C6    C35   S    
C25   C26   A    
O4    C2    A    
C22   C23   A    
O18   V4    S    
C3    C11   S    
C4    C8    S    
C32   H17   S    
C34   O22   D    
C10   H4    S    
O17   V3    S    
O19   V4    S    
C31   C32   S    
O2    C1    A    
C33   H18   S    
C17   C18   A    
C21   C22   A    
V3    O20   S    
C23   C24   A    
C5    C6    D    
C33   H19   S    
O3    C4    A    
O11   C28   A    
C19   H10   S    
C8    H2    S    
O6    V2    S    
C35   O23   D    
O9    V2    S    
C21   H11   S    
O2    V1    S    
O11   V4    S    
C23   C27   S    
C24   H13   S    
C5    O21   S    
C7    H1    S    
O1    C2    A    
C32   H16   S    
O5    V1    S    
O8    C3    A    
O15   V3    S    
O13   V3    S    
C10   C11   A    
C9    C14   A    
C12   C13   A    
O7    V2    S    
C2    C26   S    
O4    V1    S    
O3    V1    S    
V1    O10   S    
O19   C30   A    
C13   C14   A    
C21   C26   A    
C18   H9    S    
C1    C20   S    
C24   C25   A    
C15   C16   A    
C15   H7    S    
C9    C10   A    
C31   H14   S    
C33   H20   S    
C34   H21   S    
C35   H22   S    
C11   C12   A    
O14   V3    S    
C14   C30   S    
