data_mof_unit_62453.cif
_audit_creation_date              2012-12-10T20:16:53-0500
_audit_creation_method            fapswitch 2.2
_symmetry_space_group_name_H-M    P1
_symmetry_Int_Tables_number       1
_space_group_crystal_system       triclinic
_cell_length_a                    25.649801
_cell_length_b                    25.649317
_cell_length_c                    25.902161
_cell_angle_alpha                 89.999178
_cell_angle_beta                  90.000457
_cell_angle_gamma                 89.999985
_cell_volume                      17041.0285294

loop_
_atom_site_label
_atom_site_type_symbol
_atom_type_description
_atom_site_fract_x
_atom_site_fract_y
_atom_site_fract_z
_atom_type_partial_charge
Br1   Br    Br    0.632087 0.724392 0.701667 -0.337808
Br2   Br    Br    0.368021 0.724213 0.702091 -0.328524
Br3   Br    Br    0.275378 0.367694 0.298963 -0.325947
Br4   Br    Br    0.724327 0.632134 0.701632 -0.339602
Br5   Br    Br    0.368020 0.724212 0.297912 -0.328495
Br6   Br    Br    0.632529 0.275225 0.700434 -0.338404
Br7   Br    Br    0.724328 0.632131 0.298365 -0.339580
Br8   Br    Br    0.275071 0.367392 0.700184 -0.326103
Br9   Br    Br    0.132455 0.224707 0.200645 -0.338229
Br10  Br    Br    0.868024 0.775789 0.797902 -0.328512
Br11  Br    Br    0.775304 0.132377 0.200827 -0.326001
Br12  Br    Br    0.367647 0.275460 0.298984 -0.327639
Br13  Br    Br    0.224330 0.867865 0.798373 -0.339659
Br14  Br    Br    0.868024 0.775793 0.202102 -0.328494
Br15  Br    Br    0.132714 0.224954 0.800067 -0.338579
Br16  Br    Br    0.224331 0.867865 0.201623 -0.339563
Br17  Br    Br    0.775287 0.132394 0.799222 -0.326037
Br18  Br    Br    0.132088 0.775608 0.798336 -0.337807
Br19  Br    Br    0.867575 0.224610 0.200807 -0.327675
Br20  Br    Br    0.775811 0.868086 0.797781 -0.336653
Br21  Br    Br    0.224785 0.132547 0.200413 -0.329453
Br22  Br    Br    0.867558 0.224626 0.799243 -0.327786
Br23  Br    Br    0.275808 0.631915 0.702213 -0.336721
Br24  Br    Br    0.132091 0.775607 0.201657 -0.337783
Br25  Br    Br    0.225064 0.132818 0.800349 -0.329602
Br26  Br    Br    0.775811 0.868090 0.202225 -0.336633
Br27  Br    Br    0.724850 0.367391 0.299770 -0.329494
Br28  Br    Br    0.367344 0.275161 0.700167 -0.327762
Br29  Br    Br    0.632088 0.724389 0.298333 -0.337786
Br30  Br    Br    0.724867 0.367376 0.700184 -0.329533
Br31  Br    Br    0.275807 0.631915 0.297790 -0.336611
Br32  Br    Br    0.632513 0.275239 0.299521 -0.338277
C1    C     C_1   0.828387 0.671614 0.749933 0.133640
C2    C     C_1   0.171656 0.671539 0.750153 0.132154
C3    C     C_R   0.524976 0.000020 0.445849 -0.169888
C4    C     C_R   0.500007 0.975019 0.054149 -0.169889
C5    C     C_R   0.500007 0.975020 0.945851 -0.169889
C6    C     C_R   0.024974 0.499978 0.054152 -0.169884
C7    C     C_R   0.024975 0.499972 0.945850 -0.169896
C8    C     C_R   0.506420 0.000003 0.609561 0.820650
C9    C     C_R   0.506420 0.000003 0.390439 0.820651
C10   C     C_R   0.000001 0.506420 0.609560 0.820644
C11   C     C_R   0.000001 0.506420 0.390439 0.820644
C12   C     C_R   0.006419 0.499997 0.109562 0.820650
C13   C     C_1   0.328453 0.171684 0.249838 0.135511
C14   C     C_R   0.006421 0.499995 0.890439 0.820638
C15   C     C_R   0.500001 0.993580 0.109561 0.820642
C16   C     C_R   0.500001 0.993580 0.890440 0.820641
C17   C     C_R   0.598846 0.099129 0.750215 0.837989
C18   C     C_R   0.400867 0.901150 0.250215 0.838120
C19   C     C_R   0.900867 0.598850 0.750215 0.838110
C20   C     C_R   0.098846 0.400871 0.250215 0.838007
C21   C     C_R   0.400868 0.901150 0.749785 0.838094
C22   C     C_R   0.598846 0.099129 0.249785 0.838000
C23   C     C_R   0.098845 0.400870 0.749784 0.837956
C24   C     C_1   0.671657 0.828462 0.749847 0.132160
C25   C     C_R   0.900868 0.598850 0.249785 0.838113
C26   C     C_R   0.598989 0.901013 0.250005 0.851827
C27   C     C_R   0.401012 0.098995 0.750006 0.825282
C28   C     C_R   0.901012 0.401005 0.250007 0.825315
C29   C     C_R   0.098989 0.598987 0.750005 0.851813
C30   C     C_R   0.401012 0.098995 0.249993 0.825326
C31   C     C_R   0.598989 0.901013 0.749995 0.851825
C32   C     C_R   0.098989 0.598987 0.249995 0.851837
C33   C     C_R   0.901012 0.401005 0.749993 0.825311
C34   C     C_R   0.739083 0.700361 0.729399 0.221472
C35   C     C_1   0.171656 0.671538 0.249846 0.132160
C36   C     C_R   0.260881 0.299676 0.270549 0.223643
C37   C     C_R   0.299804 0.738934 0.729913 0.223639
C38   C     C_R   0.700517 0.260715 0.271106 0.221458
C39   C     C_R   0.260743 0.299540 0.729066 0.223648
C40   C     C_R   0.739084 0.700360 0.270600 0.221471
C41   C     C_R   0.700524 0.260709 0.728876 0.221452
C42   C     C_R   0.299804 0.738934 0.270087 0.223632
C43   C     C_R   0.739296 0.299448 0.271154 0.224050
C44   C     C_R   0.261058 0.700165 0.729935 0.221142
C45   C     C_R   0.299648 0.260930 0.270543 0.222663
C46   C     C_1   0.828452 0.328318 0.749846 0.135504
C47   C     C_R   0.700333 0.739125 0.729400 0.222520
C48   C     C_R   0.261058 0.700165 0.270065 0.221148
C49   C     C_R   0.739303 0.299441 0.728827 0.224059
C50   C     C_R   0.700333 0.739124 0.270600 0.222521
C51   C     C_R   0.299513 0.260796 0.729075 0.222689
C52   C     C_R   0.239272 0.200529 0.228915 0.224050
C53   C     C_R   0.761060 0.799836 0.770061 0.221146
C54   C     C_R   0.799615 0.239102 0.229362 0.222667
C55   C     C_R   0.200333 0.760876 0.770601 0.222524
C56   C     C_R   0.761060 0.799838 0.229941 0.221146
C57   C     C_1   0.671657 0.828462 0.250155 0.132159
C58   C     C_R   0.239381 0.200634 0.771379 0.224084
C59   C     C_R   0.200334 0.760875 0.229396 0.222519
C60   C     C_R   0.799608 0.239109 0.770660 0.222663
C61   C     C_R   0.239084 0.799639 0.770603 0.221467
C62   C     C_R   0.760847 0.200357 0.229355 0.223639
C63   C     C_R   0.799806 0.761066 0.770083 0.223634
C64   C     C_R   0.200494 0.239264 0.228959 0.221454
C65   C     C_R   0.760839 0.200364 0.770667 0.223646
C66   C     C_R   0.239085 0.799638 0.229395 0.221473
C67   C     C_R   0.200599 0.239363 0.771325 0.221480
C68   C     C_1   0.328448 0.171677 0.750140 0.135525
C69   C     C_R   0.799806 0.761068 0.229919 0.223634
C70   C     C_1   0.584659 0.909940 0.902270 0.217922
C71   C     C_1   0.415422 0.909884 0.097769 0.217863
C72   C     C_1   0.090169 0.584504 0.902228 0.217483
C73   C     C_1   0.089950 0.415195 0.097705 0.218453
C74   C     C_1   0.415423 0.909884 0.902232 0.217854
C75   C     C_1   0.584658 0.909939 0.097733 0.217921
C76   C     C_1   0.089920 0.415149 0.902313 0.218581
C77   C     C_1   0.090161 0.584517 0.097768 0.217512
C78   C     C_1   0.084660 0.590060 0.402268 0.217921
C79   C     C_R   0.788719 0.711409 0.749773 -0.135871
C80   C     C_1   0.915425 0.590117 0.597768 0.217861
C81   C     C_1   0.589959 0.084795 0.402294 0.218452
C82   C     C_1   0.590154 0.915473 0.597767 0.217521
C83   C     C_1   0.915427 0.590119 0.402229 0.217859
C84   C     C_1   0.084659 0.590060 0.597731 0.217913
C85   C     C_1   0.590152 0.915470 0.402237 0.217523
C86   C     C_1   0.589956 0.084800 0.597704 0.218454
C87   C     C_1   0.313179 0.927679 0.944601 0.236241
C88   C     C_1   0.686892 0.927924 0.055406 0.237718
C89   C     C_1   0.071538 0.312958 0.944634 0.238199
C90   C     C_R   0.211385 0.288737 0.249790 -0.135671
C91   C     C_1   0.072449 0.686773 0.055388 0.236018
C92   C     C_1   0.686892 0.927924 0.944600 0.237720
C93   C     C_1   0.313178 0.927680 0.055396 0.236204
C94   C     C_1   0.072458 0.686766 0.944592 0.236018
C95   C     C_1   0.071594 0.312988 0.055430 0.238044
C96   C     C_1   0.813182 0.572332 0.444600 0.236202
C97   C     C_1   0.186893 0.572074 0.555404 0.237762
C98   C     C_1   0.572409 0.813214 0.444607 0.236023
C99   C     C_1   0.571653 0.187006 0.555393 0.238115
C100  C     C_1   0.186893 0.572074 0.444598 0.237721
C101  C     C_R   0.288719 0.788591 0.750225 -0.135868
C102  C     C_1   0.813181 0.572331 0.555394 0.236203
C103  C     C_1   0.571659 0.187003 0.444597 0.238066
C104  C     C_1   0.572411 0.813216 0.555403 0.236024
C105  C     C_1   0.171595 0.328397 0.249945 0.134037
C106  C     C_R   0.711380 0.211268 0.250196 -0.135666
C107  C     C_R   0.211369 0.288720 0.750164 -0.135626
C108  C     C_R   0.788720 0.711410 0.250227 -0.135874
C109  C     C_R   0.711380 0.211269 0.749805 -0.135655
C110  C     C_R   0.288719 0.788591 0.249774 -0.135874
C111  C     C_R   0.788743 0.288565 0.250242 -0.136036
C112  C     C_R   0.211405 0.711240 0.750245 -0.135556
C113  C     C_R   0.288746 0.211439 0.249747 -0.136034
C114  C     C_R   0.711406 0.788761 0.749754 -0.135559
C115  C     C_R   0.211406 0.711239 0.249754 -0.135563
C116  C     C_1   0.328387 0.828386 0.750067 0.133635
C117  C     C_R   0.788742 0.288565 0.749760 -0.136027
C118  C     C_R   0.711406 0.788761 0.250248 -0.135562
C119  C     C_R   0.288736 0.211427 0.750216 -0.136025
C120  C     C_1   0.638455 0.861614 0.749929 -0.055670
C121  C     C_1   0.361610 0.138472 0.249922 -0.065091
C122  C     C_1   0.138454 0.638386 0.750071 -0.055679
C123  C     C_1   0.861610 0.361529 0.250075 -0.065092
C124  C     C_1   0.361608 0.138468 0.750068 -0.065083
C125  C     C_1   0.638455 0.861614 0.250072 -0.055669
C126  C     C_1   0.861610 0.361529 0.749926 -0.065110
C127  C     C_1   0.671591 0.171607 0.250046 0.134036
C128  C     C_1   0.138455 0.638386 0.249928 -0.055671
C129  C     C_1   0.638349 0.138491 0.249898 -0.060379
C130  C     C_1   0.361505 0.861634 0.749908 -0.060633
C131  C     C_1   0.138352 0.361512 0.250098 -0.060375
C132  C     C_1   0.861505 0.638366 0.750092 -0.060627
C133  C     C_1   0.361505 0.861634 0.250092 -0.060626
C134  C     C_1   0.638349 0.138491 0.750103 -0.060397
C135  C     C_1   0.861505 0.638366 0.249907 -0.060626
C136  C     C_1   0.138344 0.361503 0.749888 -0.060381
C137  C     C_R   0.591805 0.943561 0.946672 -0.011669
C138  C     C_1   0.171582 0.328384 0.750025 0.134066
C139  C     C_R   0.408245 0.943455 0.053332 -0.011907
C140  C     C_R   0.056607 0.591710 0.946663 -0.011522
C141  C     C_R   0.056268 0.408124 0.053336 -0.011946
C142  C     C_R   0.408246 0.943455 0.946667 -0.011890
C143  C     C_R   0.591804 0.943560 0.053331 -0.011667
C144  C     C_R   0.056242 0.408102 0.946687 -0.011990
C145  C     C_R   0.056600 0.591717 0.053330 -0.011541
C146  C     C_R   0.091805 0.556438 0.446671 -0.011672
C147  C     C_R   0.908247 0.556549 0.553331 -0.011905
C148  C     C_R   0.556291 0.091870 0.446673 -0.011975
C149  C     C_1   0.828388 0.671615 0.250067 0.133640
C150  C     C_R   0.556585 0.908275 0.553335 -0.011525
C151  C     C_R   0.908247 0.556549 0.446665 -0.011902
C152  C     C_R   0.091805 0.556438 0.553330 -0.011655
C153  C     C_R   0.556584 0.908274 0.446669 -0.011531
C154  C     C_R   0.556288 0.091872 0.553324 -0.011967
C155  C     C_R   0.047222 0.536484 0.527476 0.013634
C156  C     C_R   0.952806 0.536542 0.472522 0.013523
C157  C     C_R   0.536422 0.047248 0.527474 0.013706
C158  C     C_R   0.536560 0.952825 0.472525 0.013374
C159  C     C_R   0.952806 0.536542 0.527476 0.013520
C160  C     C_1   0.671590 0.171607 0.749955 0.134033
C161  C     C_R   0.047222 0.536484 0.472524 0.013628
C162  C     C_R   0.536561 0.952826 0.527478 0.013375
C163  C     C_R   0.536422 0.047247 0.472524 0.013706
C164  C     C_R   0.547222 0.963515 0.027477 0.013627
C165  C     C_R   0.452805 0.963460 0.972523 0.013528
C166  C     C_R   0.036570 0.547169 0.027475 0.013381
C167  C     C_R   0.036403 0.452742 0.972531 0.013691
C168  C     C_R   0.452805 0.963460 0.027477 0.013522
C169  C     C_R   0.547222 0.963516 0.972525 0.013624
C170  C     C_R   0.036409 0.452748 0.027480 0.013692
C171  C     C_1   0.328388 0.828385 0.249933 0.133641
C172  C     C_R   0.036572 0.547166 0.972522 0.013378
C173  C     C_R   0.639550 0.939690 0.972930 -0.078662
C174  C     C_R   0.360508 0.939511 0.027071 -0.078431
C175  C     C_R   0.060587 0.639447 0.972921 -0.078518
C176  C     C_R   0.059982 0.360362 0.027093 -0.078878
C177  C     C_R   0.360508 0.939511 0.972927 -0.078422
C178  C     C_R   0.639550 0.939690 0.027074 -0.078663
C179  C     C_R   0.059961 0.360350 0.972952 -0.078998
C180  C     C_R   0.060583 0.639450 0.027065 -0.078524
C181  C     C_R   0.139550 0.560308 0.472929 -0.078666
C182  C     C_1   0.828452 0.328318 0.250155 0.135507
C183  C     C_R   0.860510 0.560496 0.527069 -0.078425
C184  C     C_R   0.560034 0.139626 0.472926 -0.078891
C185  C     C_R   0.560553 0.860539 0.527075 -0.078530
C186  C     C_R   0.860510 0.560496 0.472926 -0.078427
C187  C     C_R   0.139550 0.560308 0.527073 -0.078656
C188  C     C_R   0.560552 0.860538 0.472932 -0.078529
C189  C     C_R   0.560032 0.139627 0.527067 -0.078887
C190  C     C_R   0.000007 0.524980 0.554149 -0.169890
C191  C     C_R   0.000008 0.524980 0.445851 -0.169888
C192  C     C_R   0.524976 0.000021 0.554151 -0.169890
N1    N     N_1   0.578478 0.881852 0.867892 -0.196929
N2    N     N_1   0.921633 0.618161 0.632177 -0.195297
N3    N     N_1   0.618082 0.078675 0.367934 -0.194918
N4    N     N_1   0.618201 0.921700 0.632170 -0.197557
N5    N     N_1   0.921636 0.618164 0.367820 -0.195299
N6    N     N_1   0.078478 0.618149 0.632108 -0.196927
N7    N     N_1   0.618197 0.921696 0.367833 -0.197550
N8    N     N_1   0.618079 0.078682 0.632065 -0.194912
N9    N     N_1   0.275424 0.918245 0.921996 -0.084187
N10   N     N_1   0.724654 0.918542 0.078021 -0.082355
N11   N     N_1   0.080763 0.275147 0.922041 -0.080866
N12   N     N_1   0.421629 0.881839 0.132178 -0.195296
N13   N     N_1   0.081911 0.724522 0.077991 -0.084319
N14   N     N_1   0.724655 0.918542 0.921987 -0.082358
N15   N     N_1   0.275423 0.918246 0.078000 -0.084197
N16   N     N_1   0.081924 0.724511 0.921985 -0.084321
N17   N     N_1   0.080850 0.275193 0.078040 -0.081283
N18   N     N_1   0.775428 0.581770 0.421994 -0.084207
N19   N     N_1   0.224655 0.581456 0.578018 -0.082335
N20   N     N_1   0.581863 0.775464 0.422002 -0.084314
N21   N     N_1   0.580915 0.224805 0.577994 -0.081178
N22   N     N_1   0.224655 0.581456 0.421985 -0.082347
N23   N     N_1   0.118209 0.578270 0.867821 -0.197605
N24   N     N_1   0.775427 0.581768 0.577998 -0.084210
N25   N     N_1   0.580924 0.224801 0.421994 -0.081213
N26   N     N_1   0.581866 0.775466 0.578009 -0.084310
N27   N     N_1   0.118083 0.421311 0.132058 -0.194906
N28   N     N_1   0.421630 0.881838 0.867824 -0.195295
N29   N     N_1   0.578476 0.881850 0.132111 -0.196931
N30   N     N_1   0.118054 0.421245 0.867957 -0.194887
N31   N     N_1   0.118201 0.578288 0.132176 -0.197552
N32   N     N_1   0.078478 0.618148 0.367890 -0.196929
O1    O     O_3   0.500000 0.000000 0.750000 -0.506162
O2    O     O_R   0.500000 0.957290 0.365830 -0.634203
O3    O     O_R   0.957290 0.500000 0.634170 -0.633497
O4    O     O_R   0.042710 0.500000 0.365830 -0.634192
O5    O     O_R   1.000000 0.457290 0.134170 -0.633553
O6    O     O_R   1.000000 0.542710 0.865830 -0.634180
O7    O     O_R   0.542710 1.000000 0.134170 -0.634189
O8    O     O_R   0.457290 1.000000 0.865830 -0.633482
O9    O     O_R   1.000000 0.542710 0.134170 -0.634198
O10   O     O_R   1.000000 0.457290 0.865830 -0.633561
O11   O     O_R   0.457290 1.000000 0.134170 -0.633497
O12   O     O_3   0.500000 0.000000 0.250000 -0.506159
O13   O     O_R   0.542710 1.000000 0.865830 -0.634193
O14   O     O_R   0.560130 0.102810 0.719600 -0.623840
O15   O     O_R   0.439870 0.897190 0.280400 -0.619913
O16   O     O_R   0.897190 0.560130 0.719600 -0.623677
O17   O     O_R   0.102810 0.439870 0.280400 -0.619792
O18   O     O_R   0.439870 0.897190 0.719600 -0.619910
O19   O     O_R   0.560130 0.102810 0.280400 -0.623832
O20   O     O_R   0.102810 0.439870 0.719600 -0.619768
O21   O     O_R   0.897190 0.560130 0.280400 -0.623676
O22   O     O_R   0.560130 0.897190 0.280400 -0.623671
O23   O     O_3   0.000000 0.500000 0.750000 -0.506158
O24   O     O_R   0.439870 0.102810 0.719600 -0.619762
O25   O     O_R   0.897190 0.439870 0.280400 -0.619877
O26   O     O_R   0.102810 0.560130 0.719600 -0.623770
O27   O     O_R   0.439870 0.102810 0.280400 -0.619775
O28   O     O_R   0.560130 0.897190 0.719600 -0.623669
O29   O     O_R   0.102810 0.560130 0.280400 -0.623761
O30   O     O_R   0.897190 0.439870 0.719600 -0.619873
O31   O     O_R   0.060130 0.602810 0.219600 -0.623669
O32   O     O_R   0.939870 0.397190 0.780400 -0.619787
O33   O     O_R   0.397190 0.060130 0.219600 -0.619883
O34   O     O_3   0.000000 0.500000 0.250000 -0.506159
O35   O     O_R   0.602810 0.939870 0.780400 -0.623764
O36   O     O_R   0.939870 0.397190 0.219600 -0.619775
O37   O     O_R   0.060130 0.602810 0.780400 -0.623664
O38   O     O_R   0.602810 0.939870 0.219600 -0.623763
O39   O     O_R   0.397190 0.060130 0.780400 -0.619857
O40   O     O_R   0.060130 0.397190 0.780400 -0.623831
O41   O     O_R   0.939870 0.602810 0.219600 -0.619913
O42   O     O_R   0.397190 0.939870 0.780400 -0.623681
O43   O     O_R   0.602810 0.060130 0.219600 -0.619788
O44   O     O_R   0.939870 0.602810 0.780400 -0.619907
O45   O     O_R   0.500000 0.957290 0.634170 -0.634202
O46   O     O_R   0.060130 0.397190 0.219600 -0.623842
O47   O     O_R   0.602810 0.060130 0.780400 -0.619785
O48   O     O_R   0.397190 0.939870 0.219600 -0.623674
O49   O     O_R   0.500000 0.042710 0.365830 -0.633539
O50   O     O_R   0.042710 0.500000 0.634170 -0.634175
O51   O     O_R   0.957290 0.500000 0.365830 -0.633493
O52   O     O_R   0.500000 0.042710 0.634170 -0.633528
Zn1   Zn    Zn3+2 0.561040 0.000000 0.793350 1.025439
Zn2   Zn    Zn3+2 0.938960 0.500000 0.706650 1.023837
Zn3   Zn    Zn3+2 0.500000 0.061040 0.293350 1.023811
Zn4   Zn    Zn3+2 0.500000 0.938960 0.706650 1.025375
Zn5   Zn    Zn3+2 0.938960 0.500000 0.293350 1.023841
Zn6   Zn    Zn3+2 0.061040 0.500000 0.706650 1.025448
Zn7   Zn    Zn3+2 0.500000 0.938960 0.293350 1.025382
Zn8   Zn    Zn3+2 0.500000 0.061040 0.706650 1.023813
Zn9   Zn    Zn3+2 0.438960 0.000000 0.206650 1.023841
Zn10  Zn    Zn3+2 1.000000 0.561040 0.793350 1.025383
Zn11  Zn    Zn3+2 0.000000 0.438960 0.206650 1.023799
Zn12  Zn    Zn3+2 0.438960 0.000000 0.793350 1.023843
Zn13  Zn    Zn3+2 0.561040 0.000000 0.206650 1.025445
Zn14  Zn    Zn3+2 1.000000 0.438960 0.793350 1.023777
Zn15  Zn    Zn3+2 1.000000 0.561040 0.206650 1.025387
Zn16  Zn    Zn3+2 0.061040 0.500000 0.293350 1.025448

loop_
_geom_bond_atom_site_label_1
_geom_bond_atom_site_label_2
_ccdc_geom_bond_type
C71   N12   T    
C96   N18   T    
C94   N16   T    
C86   C154  S    
C153  C158  A    
C52   C113  A    
C34   C47   A    
O23   Zn2   S    
C156  C159  A    
C137  C173  A    
C26   O38   A    
C78   C146  S    
C15   O11   A    
C4    C15   S    
C143  C178  A    
C74   N28   T    
Br5   C42   S    
C78   N32   T    
O17   Zn16  S    
C60   C65   A    
C127  C129  T    
C1    C79   S    
C7    C172  A    
C155  C161  A    
Br28  C51   S    
C181  C187  A    
C104  N26   T    
C23   C136  S    
Br27  C43   S    
C41   C49   A    
C19   O44   A    
C54   C111  A    
C88   C178  S    
C146  C161  A    
C30   O33   A    
O50   Zn6   S    
C30   O27   A    
C12   O5    A    
C104  C185  S    
C70   N1    T    
C102  C183  S    
O21   Zn5   S    
C94   C175  S    
O43   Zn13  S    
C72   N23   T    
Br20  C53   S    
C18   C133  S    
C19   C132  S    
C139  C174  A    
C98   C188  S    
O26   Zn6   S    
C43   C111  A    
C44   C112  A    
C57   C118  S    
C154  C189  A    
C38   C106  A    
C3    C158  A    
C166  C172  A    
Br1   C47   S    
C144  C167  A    
C96   C186  S    
Br6   C41   S    
O19   Zn3   S    
C36   C45   A    
Br8   C39   S    
C146  C181  A    
C84   N6    T    
Br25  C58   S    
C90   C105  S    
C33   C126  S    
O52   Zn8   S    
O34   Zn15  S    
C57   C125  T    
C12   O9    A    
C155  C190  A    
C48   C115  A    
C116  C130  T    
C28   C123  S    
C17   C134  S    
C151  C156  A    
Br4   C34   S    
Br16  C66   S    
O48   Zn9   S    
C154  C157  A    
C49   C117  A    
C16   O8    A    
C59   C66   A    
C8    O45   A    
C31   C120  S    
C20   C131  S    
Br29  C50   S    
C147  C159  A    
C6    C170  A    
C60   C117  A    
C28   O25   A    
C85   C153  S    
O23   Zn6   S    
Br23  C44   S    
C59   C115  A    
O41   Zn15  S    
O31   Zn15  S    
C23   O20   A    
C13   C113  S    
O23   Zn14  S    
C61   C101  A    
C81   N3    T    
C37   C44   A    
C98   N20   T    
C46   C126  T    
C167  C170  A    
C6    C166  A    
Br2   C37   S    
O18   Zn4   S    
O47   Zn1   S    
C73   C141  S    
C19   O16   A    
Br12  C45   S    
C71   C139  S    
C67   C107  A    
C109  C160  S    
C21   O42   A    
C11   O4    A    
C31   O28   A    
C47   C114  A    
C39   C51   A    
C18   O48   A    
C183  C186  A    
Br7   C40   S    
C105  C131  T    
Br32  C38   S    
O44   Zn10  S    
C123  C182  T    
C11   C191  S    
C4    C164  A    
C139  C168  A    
O29   Zn16  S    
C92   N14   T    
C103  C184  S    
O24   Zn8   S    
C108  C149  S    
C91   C180  S    
C150  C162  A    
O33   Zn9   S    
C21   O18   A    
C111  C182  S    
C55   C112  A    
O34   Zn5   S    
C58   C67   A    
C7    C167  A    
C142  C165  A    
C76   N30   T    
C140  C175  A    
C26   C125  S    
C27   C124  S    
C30   C121  S    
C53   C63   A    
C100  N22   T    
C173  C178  A    
C84   C152  S    
O34   Zn11  S    
C141  C176  A    
C22   C129  S    
C3    C9    S    
C82   N4    T    
C156  C191  A    
C40   C108  A    
C18   O15   A    
C150  C185  A    
C147  C183  A    
C38   C43   A    
Br22  C60   S    
C100  C181  S    
C164  C169  A    
C10   C190  S    
Br17  C65   S    
C46   C117  S    
C91   N13   T    
C32   O29   A    
O1    Zn12  S    
C153  C188  A    
C92   C173  S    
O35   Zn1   S    
C142  C177  A    
Br3   C36   S    
C95   N17   T    
C11   O51   A    
C29   C122  S    
C157  C192  A    
Br31  C48   S    
C41   C109  A    
C185  C188  A    
O30   Zn2   S    
C2    C112  S    
C145  C180  A    
C162  C192  A    
O1    Zn4   S    
O3    Zn2   S    
O27   Zn3   S    
C21   C130  S    
C75   N29   T    
C102  N24   T    
C140  C172  A    
C184  C189  A    
O23   Zn10  S    
O45   Zn4   S    
O51   Zn5   S    
C34   C79   A    
C24   C120  T    
C7    C14   S    
C3    C163  A    
C72   C140  S    
C17   O14   A    
C68   C124  T    
C136  C138  T    
C42   C48   A    
C103  N25   T    
O37   Zn10  S    
C51   C119  A    
C2    C122  T    
C87   C177  S    
C20   O46   A    
C17   O47   A    
O1    Zn8   S    
C36   C90   A    
O4    Zn16  S    
O2    Zn7   S    
Br14  C69   S    
C82   C150  S    
C85   N7    T    
Br13  C61   S    
C33   O30   A    
C165  C168  A    
C95   C176  S    
C6    C12   S    
C157  C163  A    
O38   Zn13  S    
C148  C184  A    
C14   O10   A    
C32   C128  S    
C74   C142  S    
C99   C189  S    
Br9   C64   S    
C65   C109  A    
C148  C163  A    
Br11  C62   S    
C28   O36   A    
C10   O50   A    
C29   O37   A    
C62   C106  A    
C13   C121  T    
O34   Zn16  S    
O42   Zn12  S    
C143  C164  A    
C56   C118  A    
C4    C168  A    
C58   C119  A    
C83   C151  S    
C152  C155  A    
C25   C135  S    
O14   Zn8   S    
C25   O41   A    
C144  C179  A    
C64   C90   A    
O46   Zn11  S    
C29   O26   A    
Br30  C49   S    
C133  C171  T    
C97   C187  S    
O49   Zn3   S    
C75   C143  S    
C176  C179  A    
C76   C144  S    
C9    O49   A    
C134  C160  T    
C24   C114  S    
O16   Zn2   S    
O12   Zn3   S    
C137  C169  A    
C77   C145  S    
C161  C191  A    
C81   C148  S    
C27   O39   A    
Br26  C56   S    
C5    C169  A    
C141  C170  A    
C63   C79   A    
C22   O43   A    
C25   O21   A    
Br19  C54   S    
C56   C69   A    
O28   Zn4   S    
O39   Zn12  S    
C8    C192  S    
C33   O32   A    
Br10  C63   S    
C55   C61   A    
C93   C174  S    
O5    Zn11  S    
C107  C138  S    
C52   C64   A    
O1    Zn1   S    
C99   N21   T    
C88   N10   T    
O12   Zn7   S    
C106  C127  S    
C152  C187  A    
C26   O22   A    
C86   N8    T    
C22   O19   A    
C89   N11   T    
Br21  C52   S    
C35   C128  T    
C5    C165  A    
C54   C62   A    
C93   N15   T    
C70   C137  S    
C42   C110  A    
O40   Zn14  S    
C31   O35   A    
O25   Zn5   S    
C69   C108  A    
C87   N9    T    
O13   Zn1   S    
O10   Zn14  S    
C68   C119  S    
C80   N2    T    
C1    C132  T    
C53   C114  A    
C73   N27   T    
O22   Zn7   S    
C39   C107  A    
C97   N19   T    
C15   O7    A    
C77   N31   T    
O9    Zn15  S    
C10   O3    A    
O7    Zn13  S    
C101  C116  S    
C66   C110  A    
C5    C16   S    
C159  C190  A    
C50   C118  A    
C23   O40   A    
O8    Zn12  S    
C80   C147  S    
C27   O24   A    
C16   O13   A    
C151  C186  A    
C145  C166  A    
C175  C180  A    
O36   Zn11  S    
Br24  C59   S    
C45   C113  A    
C32   O31   A    
O32   Zn14  S    
C37   C101  A    
O15   Zn7   S    
Br15  C67   S    
O11   Zn9   S    
C20   O17   A    
C14   O6    A    
O12   Zn13  S    
Br18  C55   S    
C110  C171  S    
O6    Zn10  S    
C8    O52   A    
C35   C115  S    
O12   Zn9   S    
C174  C177  A    
C135  C149  T    
C89   C179  S    
C9    O2    A    
C83   N5    T    
C158  C162  A    
O20   Zn6   S    
C40   C50   A    
