data_mof_unit_15224.cif
_audit_creation_date              2012-12-10T17:02:01-0500
_audit_creation_method            fapswitch 2.2
_symmetry_space_group_name_H-M    P1
_symmetry_Int_Tables_number       1
_space_group_crystal_system       triclinic
_cell_length_a                    10.767363
_cell_length_b                    11.056956
_cell_length_c                    9.840255
_cell_angle_alpha                 111.580212
_cell_angle_beta                  97.993818
_cell_angle_gamma                 91.137825
_cell_volume                      1075.60699621

loop_
_atom_site_label
_atom_site_type_symbol
_atom_type_description
_atom_site_fract_x
_atom_site_fract_y
_atom_site_fract_z
_atom_type_partial_charge
C1    C     C_R   0.491135 0.253438 0.439447 0.814550
C2    C     C_R   0.069963 0.401944 0.551812 0.098128
C3    C     C_R   0.128562 0.488866 0.500373 -0.098367
C4    C     C_R   0.057832 0.566935 0.440410 -0.195511
C5    C     C_R   0.929314 0.564755 0.436616 -0.205963
C6    C     C_R   0.869762 0.484508 0.492834 -0.095236
C7    C     C_2   0.488142 0.112281 0.401732 0.016442
C8    C     C_2   0.511166 0.067759 0.512047 -0.174095
C9    C     C_2   0.517365 0.885899 0.594236 -0.374087
C10   C     C_2   0.510190 0.928857 0.483818 -0.153230
C11   C     C_2   0.510821 0.510492 0.081408 -0.069513
C12   C     C_R   0.262501 0.496395 0.500457 0.791710
C13   C     C_2   0.488848 0.489848 0.918691 -0.068874
C14   C     C_R   0.510198 0.746106 0.560006 0.869285
C15   C     C_R   0.736959 0.494875 0.497428 0.787593
C16   C     C_R   0.138287 0.314304 0.601905 -0.188164
C17   C     C_R   0.077323 0.227999 0.649130 -0.142197
C18   C     C_R   0.947630 0.225670 0.645148 -0.131653
C19   C     C_R   0.878112 0.309723 0.594045 -0.171770
C20   C     C_R   0.938137 0.399630 0.547803 0.096241
Cu1   Cu    Cu3+1 0.521920 0.521810 0.644910 0.934741
Cu2   Cu    Cu3+1 0.478080 0.478190 0.355090 0.941377
H1    H     H_    0.102889 0.631748 0.398676 0.152231
H2    H     H_    0.414821 0.418087 0.845707 0.155677
H3    H     H_    0.584397 0.582763 0.154549 0.155987
H4    H     H_    0.625166 0.621344 0.934377 0.192981
H5    H     H_    0.375829 0.377522 0.065330 0.192470
H6    H     H_    0.238512 0.309545 0.602709 0.137864
H7    H     H_    0.130776 0.161465 0.687169 0.133268
H8    H     H_    0.900416 0.157282 0.680017 0.137171
H9    H     H_    0.777189 0.301379 0.588491 0.146327
H10   H     H_    0.876397 0.628695 0.393355 0.144072
H11   H     H_    0.501656 0.859617 0.370636 0.195265
H12   H     H_    0.529936 0.135234 0.626796 0.155650
H13   H     H_    0.527209 0.953286 0.708737 0.154027
N1    N     N_2   0.445130 0.445430 0.137370 -0.283958
N2    N     N_2   0.554930 0.554500 0.862630 -0.282764
O1    O     O_R   0.511700 0.332330 0.577400 -0.610136
O2    O     O_R   0.474680 0.295500 0.332650 -0.566705
O3    O     O_R   0.338160 0.518420 0.622400 -0.578920
O4    O     O_R   0.301140 0.481590 0.377650 -0.568000
O5    O     O_R   0.525320 0.704500 0.667350 -0.567843
O6    O     O_R   0.488300 0.667670 0.422600 -0.581119
O7    O     O_R   0.698860 0.518410 0.622350 -0.575005
O8    O     O_R   0.661840 0.481580 0.377600 -0.574980
C21   C     C_3   0.459475 0.020701 0.240443 -0.856209
H14   H     H_    0.439670 0.073091 0.163902 0.247845
H15   H     H_    0.541194 0.962725 0.208912 0.227899
H16   H     H_    0.375072 0.954153 0.222923 0.235499

loop_
_geom_bond_atom_site_label_1
_geom_bond_atom_site_label_2
_ccdc_geom_bond_type
C12   O3    A    
C9    C14   S    
H4    N2    S    
C16   H6    S    
C12   O4    A    
C18   H8    S    
H5    N1    S    
Cu1   O7    S    
C2    C16   A    
C9    C10   D    
C1    O2    A    
C13   N2    D    
C19   C20   A    
C14   O5    A    
C5    H10   S    
C19   H9    S    
C17   C18   A    
Cu1   N2    S    
C7    C8    D    
C8    H12   S    
Cu1   Cu2   S    
C11   C13   S    
C21   H16   S    
Cu1   O5    S    
Cu1   O3    S    
C6    C20   A    
Cu2   O2    S    
C1    O1    A    
C11   N1    D    
C15   O7    A    
C2    C3    A    
C10   H11   S    
C5    C6    A    
C21   H15   S    
Cu2   O4    S    
C16   C17   A    
C11   H3    S    
C2    C20   A    
C3    C4    A    
C7    C21   S    
Cu2   O8    S    
C17   H7    S    
C8    C10   S    
C18   C19   A    
C9    H13   S    
C4    H1    S    
C15   O8    A    
C21   H14   S    
C14   O6    A    
C3    C12   S    
C6    C15   S    
C1    C7    S    
Cu2   N1    S    
Cu1   O1    S    
Cu2   O6    S    
C13   H2    S    
C4    C5    A    
