data_mof_unit_45386.cif
_audit_creation_date              2013-03-05T16:47:54-0500
_audit_creation_method            fapswitch 2.2
_symmetry_space_group_name_H-M    P1
_symmetry_Int_Tables_number       1
_space_group_crystal_system       triclinic
_cell_length_a                    10.903424
_cell_length_b                    10.951183
_cell_length_c                    9.682852
_cell_angle_alpha                 89.177089
_cell_angle_beta                  90.727738
_cell_angle_gamma                 95.104206
_cell_volume                      1151.4054045

loop_
_atom_site_label
_atom_site_type_symbol
_atom_site_description
_atom_site_fract_x
_atom_site_fract_y
_atom_site_fract_z
_atom_type_partial_charge
O1    O     O_R   0.499990 0.319640 0.618810 -0.557501
O2    O     O_R   0.500000 0.319660 0.381240 -0.586976
C1    C     C_R   0.492691 0.262151 0.500860 0.842208
O3    O     O_R   0.319640 0.500000 0.618780 -0.550877
O4    O     O_R   0.319650 0.500020 0.381210 -0.577277
C2    C     C_R   0.262806 0.498696 0.498415 0.804456
Cu1   Cu    Cu3+1 0.499990 0.499990 0.640660 1.016605
Cu2   Cu    Cu3+1 0.500010 0.500010 0.359340 0.981431
O5    O     O_R   0.500000 0.680340 0.618760 -0.582024
O6    O     O_R   0.500010 0.680360 0.381190 -0.614148
O7    O     O_R   0.680350 0.499980 0.618790 -0.584539
O8    O     O_R   0.680360 0.500000 0.381220 -0.594465
C3    C     C_R   0.493576 0.736513 0.499557 0.801804
C4    C     C_R   0.738209 0.505643 0.501394 0.932733
H1    H     H_    0.344465 0.927000 0.110101 0.172816
C5    C     C_R   0.240278 0.885616 0.294346 -0.100323
H2    H     H_    0.256476 0.977584 0.334048 0.160827
C6    C     C_R   0.171671 0.795289 0.370626 -0.140461
H3    H     H_    0.134825 0.818837 0.469153 0.194920
C7    C     C_R   0.148888 0.675670 0.320132 0.041112
C8    C     C_R   0.194143 0.647518 0.187983 0.452991
C9    C     C_R   0.266784 0.739495 0.115251 -0.153931
H4    H     H_    0.305352 0.720700 0.016117 0.162772
C10   C     C_R   0.289459 0.857261 0.168026 -0.175069
C11   C     C_R   0.944085 0.591170 0.411735 0.307095
C12   C     C_R   0.874272 0.515147 0.507022 -0.209834
C13   C     C_R   0.936294 0.448923 0.608972 0.014162
C14   C     C_R   0.058372 0.427453 0.587937 0.391190
C15   C     C_R   0.129066 0.500679 0.493525 -0.177138
C16   C     C_R   0.072766 0.585123 0.406399 -0.049103
C17   C     C_R   0.919904 0.505217 0.861197 0.393279
C18   C     C_R   0.870377 0.478097 0.992014 -0.183626
H5    H     H_    0.896019 0.535428 0.078708 0.245721
C19   C     C_R   0.784537 0.379503 0.013846 -0.303162
H6    H     H_    0.743766 0.366947 0.115046 0.224818
C20   C     C_R   0.748019 0.300514 0.906539 0.324193
C21   C     C_R   0.805135 0.317165 0.775978 0.278064
C22   C     C_R   0.885700 0.423725 0.750006 -0.118801
H7    H     H_    0.615517 0.123060 0.338651 0.213642
C23   C     C_R   0.325482 0.107738 0.685045 -0.060300
H8    H     H_    0.319072 0.205077 0.687024 0.175201
C24   C     C_R   0.250033 0.035845 0.774970 -0.041169
H9    H     H_    0.190677 0.078659 0.844950 0.199645
C25   C     C_R   0.248271 0.909152 0.772500 -0.115213
H10   H     H_    0.187460 0.853853 0.840433 0.224984
C26   C     C_R   0.322633 0.853368 0.680997 -0.194921
H11   H     H_    0.312473 0.754540 0.678896 0.191502
C27   C     C_R   0.404071 0.924324 0.592408 0.097582
C28   C     C_R   0.404951 0.054433 0.593983 0.101994
C29   C     C_R   0.483164 0.126923 0.502397 -0.084611
C30   C     C_R   0.555346 0.069372 0.409173 -0.087140
H12   H     H_    0.617779 0.902155 0.342002 0.173785
C31   C     C_R   0.556020 0.942923 0.409604 -0.130828
C32   C     C_R   0.482694 0.869354 0.500314 -0.077043
H13   H     H_    0.388495 0.334257 0.128711 0.159638
C33   C     C_R   0.634602 0.684361 0.147404 -0.152507
H14   H     H_    0.663502 0.671926 0.250762 0.257572
C34   C     C_R   0.665369 0.797220 0.088696 -0.226972
H15   H     H_    0.711650 0.869661 0.149643 0.229662
C35   C     C_R   0.643246 0.815592 0.950241 0.265249
C36   C     C_R   0.616998 0.712149 0.866479 0.118887
C37   C     C_R   0.562081 0.598608 0.926511 0.059050
C38   C     C_R   0.564881 0.593136 0.075304 0.115029
N1    N     N_R   0.501190 0.501210 0.147910 -0.221201
C39   C     C_R   0.439446 0.408852 0.074123 0.062588
H16   H     H_    0.389793 0.333757 0.873562 0.163718
C40   C     C_R   0.440179 0.408483 0.926965 0.104237
N2    N     N_R   0.501230 0.501290 0.852040 -0.214634
N3    N     N_R   0.646853 0.209819 0.929224 0.162461
O9    O     O_R   0.568265 0.183416 0.830179 -0.337532
O10   O     O_R   0.618569 0.172358 0.053990 -0.388428
N4    N     N_R   0.790989 0.221373 0.675698 0.180582
O11   O     O_R   0.836749 0.118146 0.703322 -0.193664
O12   O     O_R   0.762618 0.245749 0.548177 -0.391402
N5    N     N_R   0.677102 0.934376 0.892048 0.186161
O13   O     O_R   0.771989 0.000664 0.941978 -0.263853
O14   O     O_R   0.627862 0.966126 0.775514 -0.280083
I1    I     I_    0.760706 0.735235 0.718773 -0.073888
N6    N     N_R   0.167192 0.529104 0.125027 0.110976
O15   O     O_R   0.107783 0.437821 0.189974 -0.361760
O16   O     O_R   0.200238 0.512526 0.998642 -0.336802
N7    N     N_R   0.888422 0.688140 0.338801 0.086247
O17   O     O_R   0.825919 0.762474 0.406897 -0.376472
O18   O     O_R   0.920223 0.718722 0.213279 -0.349499
N8    N     N_R   0.109140 0.329262 0.661327 0.086616
O19   O     O_R   0.145010 0.343231 0.789078 -0.336534
O20   O     O_R   0.090171 0.219312 0.612036 -0.346085
N9    N     N_R   0.000738 0.617109 0.845782 0.162152
O21   O     O_R   0.005232 0.699637 0.941494 -0.326546
O22   O     O_R   0.066040 0.641913 0.736138 -0.404014

loop_
_geom_bond_atom_site_label_1
_geom_bond_atom_site_label_2
_geom_bond_distance
_ccdc_geom_bond_type
H7    C30   1.083328 S    
Cu1   Cu2   2.723980 S    
C7    C16   1.489050 S    
C31   C32   1.393796 A    
C20   N3    1.434013 S    
C27   C32   1.420967 A    
C12   C13   1.416876 A    
C37   C38   1.441181 A    
C14   C15   1.399913 A    
C21   C22   1.418258 A    
C19   H6    1.083077 S    
O4    C2    1.299269 A    
O7    C4    1.305071 A    
C13   C22   1.492172 S    
C34   C35   1.374281 A    
C23   C28   1.411814 A    
C33   H14   1.056000 S    
C6    H3    1.083190 S    
N3    O10   1.302156 A    
O5    C3    1.304140 A    
Cu1   N2    2.046881 S    
C5    H2    1.082165 S    
C39   C40   1.425094 A    
C19   C20   1.392993 A    
N9    O21   1.301201 A    
C23   C24   1.392137 A    
H16   C40   1.078810 S    
C5    C10   1.391852 A    
C8    C9    1.410559 A    
C36   C37   1.448475 A    
C24   C25   1.386416 A    
O3    Cu1   1.975145 S    
H13   C39   1.081500 S    
C1    C29   1.475164 S    
C25   C26   1.391949 A    
N8    O20   1.300026 A    
C26   C27   1.416161 A    
C40   N2    1.368613 A    
O3    C2    1.312664 A    
N6    O16   1.299847 A    
C11   C12   1.416625 A    
N8    O19   1.299624 A    
C38   N1    1.362953 A    
C35   C36   1.409182 A    
C30   C31   1.385385 A    
C18   C19   1.380262 A    
Cu1   O7    1.980593 S    
N5    O13   1.301861 A    
C15   C16   1.417459 A    
C17   C18   1.400838 A    
C36   I1    2.130894 S    
Cu2   O8    1.975145 S    
C8    N6    1.445662 S    
C29   C30   1.397901 A    
C33   C38   1.390950 A    
C5    C6    1.394634 A    
H1    C10   1.082726 S    
C4    C12   1.478301 S    
N5    O14   1.299587 A    
Cu2   N1    2.047295 S    
N4    O12   1.298896 A    
C23   H8    1.074910 S    
N9    O22   1.297832 A    
C28   C29   1.422112 A    
N7    O18   1.299215 A    
C11   N7    1.441198 S    
C9    C10   1.394461 A    
C24   H9    1.082629 S    
C13   C14   1.390129 A    
H12   C31   1.074402 S    
C3    C32   1.470200 S    
C11   C16   1.412127 A    
Cu1   O5    1.983357 S    
C26   H11   1.078548 S    
C20   C21   1.418614 A    
C17   N9    1.451377 S    
O1    Cu1   1.989364 S    
O2    Cu2   1.983357 S    
C25   H10   1.080388 S    
O8    C4    1.316123 A    
N4    O11   1.298726 A    
O6    C3    1.314026 A    
O4    Cu2   1.980593 S    
C35   N5    1.429935 S    
C17   C22   1.432789 A    
C37   N2    1.407160 A    
C18   H5    1.074696 S    
O2    C1    1.310351 A    
C34   H15   1.080227 S    
N1    C39   1.368966 A    
C27   C28   1.424327 A    
C33   C34   1.368993 A    
C6    C7    1.405055 A    
N3    O9    1.296386 A    
N6    O15   1.300565 A    
C2    C15   1.460479 S    
C7    C8    1.424881 A    
Cu2   O6    1.989363 S    
N7    O17   1.299003 A    
C21   N4    1.436577 S    
C14   N8    1.428870 S    
C9    H4    1.082567 S    
O1    C1    1.310155 A    
