data_mof_unit_39247.cif
_audit_creation_date              2012-10-26T19:21:09-0400
_audit_creation_method            fapswitch 2.2
_symmetry_space_group_name_H-M    P1
_symmetry_Int_Tables_number       1
_space_group_crystal_system       triclinic
_cell_length_a                    9.826
_cell_length_b                    11.059336
_cell_length_c                    13.516143
_cell_angle_alpha                 93.962118
_cell_angle_beta                  82.1978
_cell_angle_gamma                 111.739167
_cell_volume                      1351.41292366

loop_
_atom_site_label
_atom_site_type_symbol
_atom_type_description
_atom_site_fract_x
_atom_site_fract_y
_atom_site_fract_z
_atom_type_partial_charge
C1    C     C_R   0.557501 0.745715 0.506349 0.564330
C2    C     C_R   0.377757 0.477584 0.798617 -0.006603
C3    C     C_2   0.590993 0.885288 0.507636 -0.120540
C4    C     C_R   0.421698 0.482198 0.689973 0.552040
C5    C     C_2   0.488310 0.929164 0.488266 -0.150699
C6    C     C_2   0.409011 0.113953 0.484981 -0.014610
C7    C     C_2   0.516179 0.068100 0.491388 -0.145487
C8    C     C_2   0.924561 0.491277 0.493263 0.079631
C9    C     C_2   0.079937 0.509774 0.509819 0.003718
C10   C     C_R   0.443082 0.254127 0.491499 0.556796
C11   C     C_R   0.575348 0.506389 0.309549 0.545699
C12   C     C_R   0.450081 0.501902 0.967370 0.048991
C13   C     C_R   0.792390 0.504690 0.057106 -0.112779
C14   C     C_R   0.614509 0.501796 0.200533 -0.017141
C15   C     C_R   0.259353 0.516332 0.834802 -0.136789
C16   C     C_R   0.242691 0.557475 0.933251 -0.117509
C17   C     C_R   0.341556 0.558006 0.998442 0.119261
C18   C     C_1   0.258794 0.028435 0.472804 0.203021
C19   C     C_1   0.350702 0.398838 0.168885 0.258943
C20   C     C_1   0.561850 0.306971 0.762622 0.236579
C21   C     C_R   0.469218 0.461852 0.866337 -0.039347
C22   C     C_R   0.546486 0.491307 0.032718 0.006731
C23   C     C_R   0.683975 0.484280 0.992914 0.044555
C24   C     C_R   0.702573 0.443128 0.892894 0.083400
C25   C     C_R   0.582735 0.411470 0.836451 0.001754
C26   C     C_R   0.504684 0.474189 0.135634 0.019327
C27   C     C_R   0.759894 0.521336 0.159706 -0.155552
Cu1   Cu    Cu3+1 0.362000 0.479240 0.482530 0.979970
Cu2   Cu    Cu3+1 0.638000 0.520760 0.517470 0.972580
H1    H     H_    0.845760 0.539794 0.207509 0.138019
H2    H     H_    0.627439 0.134650 0.501079 0.159102
H3    H     H_    0.905513 0.730202 0.600423 0.272453
H4    H     H_    0.842414 0.610980 0.684551 0.248565
H5    H     H_    0.833362 0.389658 0.779019 0.243360
H6    H     H_    0.922149 0.512248 0.851935 0.210391
H7    H     H_    0.234152 0.590042 0.130326 0.236811
H8    H     H_    0.362659 0.724933 0.077001 0.236496
H9    H     H_    0.381245 0.861269 0.471283 0.175680
H10   H     H_    0.698831 0.951937 0.524529 0.120910
H11   H     H_    0.131845 0.576485 0.568147 0.181659
H12   H     H_    0.875322 0.422269 0.435277 0.107696
H13   H     H_    0.104127 0.385594 0.400743 0.222326
H14   H     H_    0.901068 0.505307 0.029110 0.138112
H15   H     H_    0.188008 0.527691 0.784606 0.133994
H16   H     H_    0.159059 0.598638 0.957148 0.107650
N1    N     N_2   0.845330 0.551960 0.543750 -0.166724
N2    N     N_2   0.154690 0.448120 0.456210 -0.363479
N3    N     N_1   0.139065 0.960384 0.463148 -0.296291
N4    N     N_3   0.909697 0.640985 0.617250 -0.559487
N5    N     N_3   0.835895 0.421582 0.853523 -0.624101
N6    N     N_1   0.228262 0.338326 0.194922 -0.304006
N7    N     N_3   0.340510 0.627532 0.092000 -0.622416
N8    N     N_1   0.545063 0.221873 0.705060 -0.298984
O1    O     O_R   0.426290 0.668220 0.490680 -0.500203
O2    O     O_R   0.659360 0.703290 0.520190 -0.486628
O3    O     O_R   0.326580 0.473880 0.629020 -0.505135
O4    O     O_R   0.559660 0.508940 0.658530 -0.497947
O5    O     O_R   0.340640 0.296710 0.479810 -0.479746
O6    O     O_R   0.573710 0.331780 0.509320 -0.503438
O7    O     O_R   0.440340 0.491060 0.341470 -0.477040
O8    O     O_R   0.673420 0.526120 0.370980 -0.507868

loop_
_geom_bond_atom_site_label_1
_geom_bond_atom_site_label_2
_ccdc_geom_bond_type
C4    O4    A    
C6    C10   S    
C2    C4    S    
C23   C24   A    
Cu1   N2    S    
C6    C7    D    
Cu1   O5    S    
C14   C27   A    
C13   C27   A    
H7    N7    S    
Cu2   N1    S    
C1    O1    A    
C3    C5    D    
C2    C21   A    
C10   O6    A    
Cu1   O3    S    
C24   C25   A    
C3    H10   S    
C5    H9    S    
C14   C26   A    
C27   H1    S    
C24   N5    S    
C2    C15   A    
N1    N4    S    
C16   C17   A    
H6    N5    S    
C15   C16   A    
C17   N7    S    
Cu1   Cu2   S    
C10   O5    A    
Cu2   O4    S    
C15   H15   S    
C9    N2    D    
C8    N1    D    
H13   N2    S    
Cu1   O7    S    
C1    O2    A    
C6    C18   S    
C11   C14   S    
Cu2   O8    S    
H3    N4    S    
H5    N5    S    
C7    H2    S    
C20   C25   S    
H8    N7    S    
C16   H16   S    
H4    N4    S    
C11   O7    A    
C19   N6    T    
C12   C17   A    
C13   H14   S    
C12   C22   A    
C8    H12   S    
C13   C23   A    
C22   C26   A    
C5    C7    S    
C19   C26   S    
Cu1   O1    S    
C22   C23   A    
C8    C9    S    
C21   C25   A    
Cu2   O2    S    
C1    C3    S    
C12   C21   A    
C9    H11   S    
C4    O3    A    
Cu2   O6    S    
C20   N8    T    
C11   O8    A    
C18   N3    T    
