data_mof_unit_54172.cif
_audit_creation_date              2012-10-26T18:43:29-0400
_audit_creation_method            fapswitch 2.2
_symmetry_space_group_name_H-M    P1
_symmetry_Int_Tables_number       1
_space_group_crystal_system       triclinic
_cell_length_a                    10.75439
_cell_length_b                    10.841592
_cell_length_c                    9.562118
_cell_angle_alpha                 89.956037
_cell_angle_beta                  90.160454
_cell_angle_gamma                 90.465245
_cell_volume                      1114.85092583

loop_
_atom_site_label
_atom_site_type_symbol
_atom_type_description
_atom_site_fract_x
_atom_site_fract_y
_atom_site_fract_z
_atom_type_partial_charge
C1    C     C_R   0.496471 0.262364 0.499831 0.556150
C2    C     C_R   0.457374 0.935535 0.616769 -0.007540
C3    C     C_3   0.508114 0.932444 0.762117 -0.240729
C4    C     C_R   0.260081 0.499495 0.499637 0.545684
C5    C     C_3   0.491163 0.071879 0.764733 0.163318
C6    C     C_R   0.606377 0.525564 0.074070 0.183723
C7    C     C_R   0.396422 0.468645 0.073937 0.015186
C8    C     C_R   0.396070 0.469991 0.925677 0.047268
C9    C     C_R   0.606667 0.524576 0.926512 0.219890
C10   C     C_3   0.679211 0.641959 0.920859 -0.275817
C11   C     C_3   0.677754 0.643811 0.078849 -0.281759
C12   C     C_3   0.878842 0.496809 0.501239 0.046107
C13   C     C_R   0.500058 0.737625 0.499691 0.542667
C14   C     C_R   0.740325 0.498313 0.500258 0.559371
C15   C     C_3   0.073698 0.378119 0.568380 -0.178272
C16   C     C_3   0.929689 0.374786 0.566522 0.103516
C17   C     C_3   0.073580 0.610875 0.581319 -0.233214
C18   C     C_3   0.071158 0.503920 0.347459 -0.251414
C19   C     C_3   0.122518 0.498200 0.499036 -0.000273
C20   C     C_3   0.930305 0.609160 0.584149 -0.223507
C21   C     C_3   0.928911 0.507236 0.349193 -0.269488
C22   C     C_R   0.449366 0.062229 0.616016 0.062994
C23   C     C_R   0.484078 0.129103 0.497119 -0.025035
C24   C     C_R   0.503440 0.064600 0.371473 -0.151896
C25   C     C_R   0.505693 0.936083 0.371259 -0.144812
C26   C     C_R   0.491193 0.870740 0.497278 -0.004840
Cl1   Cl    Cl    0.873188 0.344382 0.740107 -0.624905
Cu1   Cu    Cu3+1 0.499990 0.499980 0.640670 1.015691
Cu2   Cu    Cu3+1 0.500010 0.500020 0.359330 0.949812
H1    H     H_    0.109629 0.372412 0.677414 0.207549
H2    H     H_    0.311990 0.443705 0.128311 0.117402
H3    H     H_    0.109865 0.296343 0.511600 0.112277
H4    H     H_    0.310685 0.448416 0.871188 0.159135
H5    H     H_    0.773737 0.628729 0.878212 0.145181
H6    H     H_    0.625866 0.718041 0.872990 0.134168
H7    H     H_    0.771668 0.632638 0.124257 0.126868
H8    H     H_    0.623091 0.721133 0.122854 0.144227
H9    H     H_    0.898152 0.295876 0.500623 0.131347
H10   H     H_    0.109635 0.609701 0.690565 0.144634
H11   H     H_    0.899033 0.605011 0.694245 0.164766
H12   H     H_    0.898677 0.596083 0.303035 0.129040
H13   H     H_    0.107368 0.587578 0.292948 0.143940
H14   H     H_    0.102018 0.421918 0.287097 0.134957
H15   H     H_    0.891496 0.430985 0.282986 0.145275
H16   H     H_    0.354159 0.192287 0.085868 0.357139
H17   H     H_    0.107091 0.697877 0.531711 0.129650
H18   H     H_    0.894320 0.696489 0.538709 0.105893
H19   H     H_    0.524088 0.112865 0.275120 0.188330
H20   H     H_    0.525587 0.888899 0.274204 0.146386
H21   H     H_    0.448371 0.878432 0.834609 0.186350
H22   H     H_    0.607869 0.906501 0.763629 0.091800
H23   H     H_    0.579071 0.125299 0.778309 0.148030
N1    N     N_R   0.500800 0.500930 0.147930 -0.238111
N2    N     N_R   0.500800 0.500890 0.852020 -0.236695
O1    O     O_R   0.500000 0.319640 0.618810 -0.452080
O2    O     O_2   0.278364 0.016308 0.906350 -0.286624
O3    O     O_3   0.426949 0.174626 0.026088 -0.543046
O4    O     O_R   0.500010 0.319680 0.381230 -0.502260
O5    O     O_R   0.317690 0.499960 0.618790 -0.513318
O6    O     O_R   0.317700 0.500000 0.381210 -0.520513
O7    O     O_R   0.499990 0.680320 0.618770 -0.515020
O8    O     O_R   0.500000 0.680360 0.381190 -0.511842
O9    O     O_R   0.682300 0.500000 0.618790 -0.457741
O10   O     O_R   0.682310 0.500040 0.381210 -0.520369
O11   O     O_2   0.295847 0.222151 0.803777 -0.294799
S1    S     S_3+6 0.366482 0.121191 0.875491 0.000199

loop_
_geom_bond_atom_site_label_1
_geom_bond_atom_site_label_2
_ccdc_geom_bond_type
C2    C22   A    
C23   C24   A    
C5    H23   S    
C10   H6    S    
C11   H7    S    
C21   H15   S    
C9    C10   S    
Cu2   O6    S    
O3    S1    S    
C14   O10   A    
Cu1   O7    S    
C4    O6    A    
C16   Cl1   S    
C2    C3    S    
C1    O1    A    
Cu2   O10   S    
C7    C8    A    
C2    C26   A    
C18   H14   S    
Cu2   O4    S    
C15   C19   S    
C12   C20   S    
Cu2   N1    S    
C6    C9    A    
O2    S1    D    
C14   O9    A    
C13   O8    A    
C4    O5    A    
C24   C25   A    
Cu1   Cu2   S    
C17   C19   S    
Cu1   O1    S    
C12   C14   S    
C1    C23   S    
C8    H4    S    
C18   H13   S    
C17   H10   S    
C20   H11   S    
C25   H20   S    
C13   C26   S    
C20   H18   S    
C7    H2    S    
C10   C11   S    
C7    N1    A    
C6    N1    A    
C15   C16   S    
C18   C21   S    
Cu1   O9    S    
C1    O4    A    
H16   O3    S    
C15   H3    S    
C17   C20   S    
C13   O7    A    
C17   H17   S    
C15   H1    S    
C10   H5    S    
O11   S1    D    
C21   H12   S    
Cu1   O5    S    
C8    N2    A    
C6    C11   S    
C11   H8    S    
C3    H22   S    
Cu2   O8    S    
C18   C19   S    
Cu1   N2    S    
C9    N2    A    
C25   C26   A    
C22   C23   A    
C4    C19   S    
C12   C21   S    
C3    H21   S    
C5    C22   S    
C12   C16   S    
C16   H9    S    
C5    S1    S    
C3    C5    S    
C24   H19   S    
