data_mof_unit_9263.cif
_audit_creation_date              2012-12-11T14:41:07-0500
_audit_creation_method            fapswitch 2.2
_symmetry_space_group_name_H-M    P1
_symmetry_Int_Tables_number       1
_space_group_crystal_system       triclinic
_cell_length_a                    6.925881
_cell_length_b                    17.734069
_cell_length_c                    18.918819
_cell_angle_alpha                 90.008638
_cell_angle_beta                  90.007549
_cell_angle_gamma                 90.355103
_cell_volume                      2323.64132485

loop_
_atom_site_label
_atom_site_type_symbol
_atom_type_description
_atom_site_fract_x
_atom_site_fract_y
_atom_site_fract_z
_atom_type_partial_charge
O1    O     O_R   0.377350 0.828520 0.186660 -0.528878
O2    O     O_R   0.622650 0.171480 0.813340 -0.528595
O3    O     O_R   0.122650 0.171480 0.686660 -0.528905
O4    O     O_R   0.877350 0.828520 0.313340 -0.528984
O5    O     O_R   0.877350 0.671480 0.313340 -0.529436
O6    O     O_R   0.122650 0.328520 0.686660 -0.530405
O7    O     O_R   0.622650 0.328520 0.813340 -0.530649
O8    O     O_R   0.377350 0.671480 0.186660 -0.531281
O9    O     O_R   0.707090 0.671930 0.178410 -0.532691
O10   O     O_R   0.292910 0.328070 0.821590 -0.534625
O11   O     O_R   0.792910 0.328070 0.678410 -0.535633
O12   O     O_R   0.207090 0.671930 0.321590 -0.535482
O13   O     O_R   0.207090 0.828070 0.321590 -0.530428
O14   O     O_R   0.792910 0.171930 0.678410 -0.530438
O15   O     O_R   0.292910 0.171930 0.821590 -0.530109
O16   O     O_R   0.707090 0.828070 0.178410 -0.530492
C1    C     C_R   0.539157 0.644703 0.162441 0.798081
C2    C     C_R   0.460898 0.355183 0.837651 0.798185
C3    C     C_R   0.960840 0.355243 0.662410 0.792909
C4    C     C_R   0.039168 0.644755 0.337589 0.797327
C5    C     C_R   0.040473 0.855880 0.337063 0.801966
C6    C     C_R   0.959527 0.144119 0.662938 0.802182
C7    C     C_R   0.459539 0.144118 0.837064 0.803579
C8    C     C_R   0.540464 0.855873 0.162928 0.801565
O17   O     O_3   0.543850 0.750000 0.294270 -0.374715
O18   O     O_3   0.456150 0.250000 0.705730 -0.374811
O19   O     O_3   0.956150 0.250000 0.794270 -0.373922
O20   O     O_3   0.043850 0.750000 0.205730 -0.373961
V1    V     V_3+5 0.818700 0.750000 0.241790 1.560056
V2    V     V_3+5 0.181300 0.250000 0.758210 1.558929
V3    V     V_3+5 0.681300 0.250000 0.741790 1.557691
V4    V     V_3+5 0.318700 0.750000 0.258210 1.557430
C9    C     C_R   0.962415 0.418644 0.610881 -0.167216
C10   C     C_R   0.037629 0.581353 0.389119 -0.166684
C11   C     C_R   0.537538 0.581306 0.110836 -0.141461
C12   C     C_R   0.462932 0.418750 0.888990 -0.190312
C13   C     C_R   0.457315 0.080786 0.888981 -0.171145
C14   C     C_R   0.542727 0.919183 0.110991 -0.170846
C15   C     C_R   0.042712 0.919201 0.388991 -0.171056
C16   C     C_R   0.957288 0.080798 0.611010 -0.171142
C17   C     C_R   0.179106 0.464274 0.433842 0.240358
C18   C     C_R   0.821010 0.535740 0.566175 0.241151
C19   C     C_R   0.325243 0.537087 0.932615 0.239807
C20   C     C_R   0.679106 0.464300 0.065565 0.239550
C21   C     C_R   0.711216 0.026760 0.056691 0.234976
C22   C     C_R   0.288994 0.973134 0.943226 0.236072
C23   C     C_R   0.789026 0.973126 0.556752 0.236044
C24   C     C_R   0.210974 0.026873 0.443250 0.236389
C25   C     C_R   0.165306 0.520212 0.381197 0.379786
C26   C     C_R   0.834857 0.479813 0.618828 0.380383
C27   C     C_R   0.338380 0.480771 0.880204 0.384265
C28   C     C_R   0.664229 0.519768 0.118966 0.333967
C29   C     C_R   0.692235 0.973965 0.111944 0.367824
C30   C     C_R   0.307901 0.025965 0.887997 0.367394
C31   C     C_R   0.807931 0.025959 0.611991 0.367551
C32   C     C_R   0.192070 0.974040 0.388010 0.367270
C33   C     C_R   0.920968 0.585003 0.449448 -0.290094
C34   C     C_R   0.079035 0.414979 0.550543 -0.289337
C35   C     C_R   0.577343 0.414642 0.949874 -0.269443
C36   C     C_R   0.423024 0.585751 0.049947 -0.290765
C37   C     C_R   0.407683 0.920617 0.055941 -0.244933
C38   C     C_R   0.592389 0.079337 0.944021 -0.243533
C39   C     C_R   0.092277 0.079390 0.555958 -0.245110
C40   C     C_R   0.907724 0.920608 0.444044 -0.245116
C41   C     C_R   0.934757 0.530527 0.503895 -0.016431
C42   C     C_R   0.065292 0.469469 0.496106 -0.016163
C43   C     C_R   0.566331 0.470168 0.003374 0.029323
C44   C     C_R   0.437407 0.531565 0.995271 -0.033708
C45   C     C_R   0.422666 0.973454 0.000068 0.000758
C46   C     C_R   0.577469 0.026471 0.999872 -0.000008
C47   C     C_R   0.077349 0.026531 0.500093 0.000355
C48   C     C_R   0.922653 0.973467 0.499909 0.000472
H1    H     H_    0.176653 0.367878 0.546065 0.141369
H2    H     H_    0.823302 0.632091 0.453918 0.141155
H3    H     H_    0.326370 0.633143 0.045295 0.140456
H4    H     H_    0.670251 0.366201 0.956210 0.171932
H5    H     H_    0.704112 0.122182 0.944092 0.147644
H6    H     H_    0.295919 0.877789 0.055889 0.146196
H7    H     H_    0.796058 0.877741 0.444106 0.146161
H8    H     H_    0.203944 0.122257 0.555896 0.146235
Cl1   Cl    Cl    0.697221 0.489728 0.697086 -0.550239
Cl2   Cl    Cl    0.303244 0.510359 0.302998 -0.556484
Cl3   Cl    Cl    0.804437 0.511132 0.196826 -0.594746
Cl4   Cl    Cl    0.203021 0.490900 0.801446 -0.549801
Cl5   Cl    Cl    0.140905 0.021560 0.817128 -0.572617
Cl6   Cl    Cl    0.859300 0.978355 0.182795 -0.573684
Cl7   Cl    Cl    0.358995 0.978460 0.317137 -0.573401
Cl8   Cl    Cl    0.641005 0.021539 0.682865 -0.572789
N1    N     N_2   0.304465 0.402076 0.421897 -0.469895
H9    H     H_    0.246212 0.349836 0.433215 0.247185
C49   C     C_3   0.499459 0.412350 0.447782 -0.469881
H10   H     H_    0.500216 0.416455 0.506359 0.165966
H11   H     H_    0.565304 0.464090 0.424803 0.237420
H12   H     H_    0.588740 0.363411 0.431897 0.198419
N2    N     N_2   0.695714 0.597954 0.578136 -0.467913
H13   H     H_    0.753961 0.650186 0.566780 0.247832
C50   C     C_3   0.500649 0.587682 0.552322 -0.466226
H14   H     H_    0.499734 0.583593 0.493744 0.164785
H15   H     H_    0.411407 0.636615 0.568253 0.199884
H16   H     H_    0.434871 0.535935 0.575312 0.237310
N3    N     N_2   0.202669 0.599998 0.920071 -0.466932
H17   H     H_    0.262317 0.651849 0.932006 0.248100
C51   C     C_3   0.006247 0.590742 0.944799 -0.468672
H18   H     H_    0.003168 0.584565 0.003224 0.169767
H19   H     H_    0.938013 0.540512 0.919896 0.237190
H20   H     H_    0.920574 0.641049 0.930026 0.197737
N4    N     N_2   0.805005 0.401690 0.074803 -0.521192
H21   H     H_    0.804994 0.379170 0.125035 0.310306
C52   C     C_3   0.997644 0.412822 0.046925 -0.507854
H22   H     H_    0.082766 0.360552 0.054249 0.198519
H23   H     H_    0.071786 0.459785 0.075061 0.237680
H24   H     H_    0.991947 0.425366 0.989496 0.192520
N5    N     N_2   0.870561 0.078006 0.058265 -0.487021
H25   H     H_    0.946147 0.082584 0.011502 0.256905
C53   C     C_3   0.830714 0.149720 0.091509 -0.431484
H26   H     H_    0.721539 0.181447 0.060667 0.162901
H27   H     H_    0.965563 0.183794 0.094168 0.194392
H28   H     H_    0.776723 0.141012 0.146213 0.243770
N6    N     N_2   0.129871 0.921784 0.941581 -0.485996
H29   H     H_    0.054069 0.917209 0.988297 0.256367
C54   C     C_3   0.170236 0.850055 0.908447 -0.433186
H30   H     H_    0.279479 0.818461 0.939378 0.151810
H31   H     H_    0.224371 0.858735 0.853758 0.247326
H32   H     H_    0.035594 0.815857 0.905769 0.193644
N7    N     N_2   0.629933 0.921763 0.558380 -0.486069
H33   H     H_    0.554142 0.917161 0.511655 0.256277
C55   C     C_3   0.670324 0.850055 0.591530 -0.432968
H34   H     H_    0.779581 0.818452 0.560616 0.152004
H35   H     H_    0.535691 0.815852 0.594201 0.193966
H36   H     H_    0.724453 0.858765 0.646223 0.247286
N8    N     N_2   0.370064 0.078237 0.441621 -0.485322
H37   H     H_    0.445858 0.082839 0.488345 0.256403
C56   C     C_3   0.329664 0.149945 0.408472 -0.437203
H38   H     H_    0.220409 0.181547 0.439389 0.152275
H39   H     H_    0.275527 0.141235 0.353780 0.246467
H40   H     H_    0.464293 0.184149 0.405799 0.193362

loop_
_geom_bond_atom_site_label_1
_geom_bond_atom_site_label_2
_ccdc_geom_bond_type
C33   H2    S    
C17   N1    S    
C9    C34   A    
O3    V2    S    
C38   H5    S    
N2    H13   S    
O14   V3    S    
C12   C35   A    
C19   C27   A    
C55   H35   S    
C50   H14   S    
O5    C4    A    
C15   C40   A    
O11   C3    A    
N3    H17   S    
C16   C39   A    
O20   V1    S    
C52   H23   S    
C53   H26   S    
C38   C46   A    
C31   Cl8   S    
C22   C45   A    
O13   V4    S    
C35   C43   A    
C34   C42   A    
C19   C44   A    
C53   H27   S    
C56   H40   S    
C8    C14   S    
N4    H21   S    
C24   N8    S    
C29   Cl6   S    
N1    C49   S    
O4    V1    S    
O9    V1    S    
C14   C37   A    
C4    C10   S    
C53   H28   S    
O17   V4    S    
O15   C7    A    
O11   V3    S    
O18   V3    S    
N3    C51   S    
O12   V4    S    
O19   V2    S    
N4    C52   S    
C22   C30   A    
C17   C25   A    
C50   H15   S    
C23   N7    S    
O5    V1    S    
C39   H8    S    
N6    C54   S    
O17   V1    S    
O7    V3    S    
C20   C43   A    
O19   V3    S    
C18   N2    S    
O8    V4    S    
O20   V4    S    
C3    C9    S    
C52   H24   S    
C49   H10   S    
C54   H32   S    
C32   Cl7   S    
O16   V1    S    
C7    C13   S    
C34   H1    S    
O1    V4    S    
C43   C44   A    
O2    V3    S    
C25   Cl2   S    
C28   Cl3   S    
C19   N3    S    
O6    C3    A    
C49   H11   S    
O10   V2    S    
C15   C32   A    
C5    C15   S    
C37   H6    S    
O7    C2    A    
C6    C16   S    
O12   C4    A    
O13   C5    A    
C51   H19   S    
N7    C55   S    
C54   H30   S    
C12   C27   A    
C18   C26   A    
C13   C30   A    
O9    C1    A    
O6    V2    S    
C39   C47   A    
O18   V2    S    
N7    H33   S    
C40   H7    S    
C24   C47   A    
C55   H34   S    
C11   C28   A    
C50   H16   S    
O15   V2    S    
C23   C31   A    
N5    H25   S    
C20   N4    S    
C37   C45   A    
C24   C32   A    
C18   C41   A    
C10   C25   A    
C21   C46   A    
C33   C41   A    
N8    C56   S    
C16   C31   A    
C30   Cl5   S    
N6    H29   S    
N2    C50   S    
C17   C42   A    
C36   H3    S    
O8    C1    A    
O14   C6    A    
C9    C26   A    
C55   H36   S    
C47   C48   A    
C52   H22   S    
C49   H12   S    
O4    C5    A    
C20   C28   A    
C56   H38   S    
C14   C29   A    
O10   C2    A    
C10   C33   A    
C35   H4    S    
C22   N6    S    
C51   H20   S    
O2    C7    A    
C40   C48   A    
C45   C46   A    
C23   C48   A    
C54   H31   S    
C21   C29   A    
C21   N5    S    
C36   C44   A    
O1    C8    A    
O16   C8    A    
C41   C42   A    
C51   H18   S    
C56   H39   S    
C13   C38   A    
C11   C36   A    
O3    C6    A    
C1    C11   S    
N1    H9    S    
C2    C12   S    
C27   Cl4   S    
N8    H37   S    
C26   Cl1   S    
N5    C53   S    
