data_mof_unit_33263.cif
_audit_creation_date              2012-12-11T14:29:26-0500
_audit_creation_method            fapswitch 2.2
_symmetry_space_group_name_H-M    P1
_symmetry_Int_Tables_number       1
_space_group_crystal_system       triclinic
_cell_length_a                    6.939766
_cell_length_b                    14.684161
_cell_length_c                    16.327296
_cell_angle_alpha                 90.416276
_cell_angle_beta                  89.929253
_cell_angle_gamma                 89.78205
_cell_volume                      1663.76996504

loop_
_atom_site_label
_atom_site_type_symbol
_atom_type_description
_atom_site_fract_x
_atom_site_fract_y
_atom_site_fract_z
_atom_type_partial_charge
O1    O     O_R   0.494400 0.416610 0.413880 -0.543524
O2    O     O_R   0.823920 0.406790 0.585520 -0.527953
O3    O     O_R   0.994250 0.583390 0.586120 -0.536777
C1    C     C_R   0.654803 0.383867 0.612269 0.764274
O4    O     O_R   0.824110 0.405730 0.414490 -0.503827
O5    O     O_R   0.994440 0.582310 0.413870 -0.554386
C2    C     C_R   0.655772 0.385197 0.385377 0.766869
O6    O     O_R   0.494210 0.417690 0.586130 -0.515477
O7    O     O_3   0.660810 0.557940 0.500000 -0.400585
V1    V     V_3+5 0.935650 0.489250 0.500000 1.580237
O8    O     O_R   0.324160 0.593210 0.414480 -0.559317
C3    C     C_R   0.155702 0.613068 0.384852 0.711949
O9    O     O_R   0.323970 0.594270 0.585510 -0.535203
C4    C     C_R   0.154290 0.619561 0.611324 0.811602
V2    V     V_3+5 0.435660 0.510750 0.500000 1.516689
O10   O     O_3   0.160630 0.442060 0.500000 -0.342366
H1    H     H_    0.090046 0.946635 0.513320 0.170941
C5    C     C_R   0.168043 0.561256 0.781064 0.410556
C6    C     C_R   0.174495 0.531862 0.862094 0.543777
C7    C     C_R   0.163956 0.594139 0.926236 0.535844
C8    C     C_R   0.146461 0.686562 0.910135 -0.361193
C9    C     C_R   0.139089 0.719123 0.828849 -0.080241
C10   C     C_R   0.150347 0.655828 0.762158 -0.134529
C11   C     C_R   0.120215 0.813429 0.814214 -0.025929
C12   C     C_R   0.112220 0.845818 0.732925 -0.029477
C13   C     C_R   0.124118 0.784262 0.664398 -0.000775
C14   C     C_R   0.143436 0.687908 0.679580 -0.098023
C15   C     C_R   0.092328 0.940584 0.719368 -0.266940
C16   C     C_R   0.084305 0.975723 0.641116 0.613814
C17   C     C_R   0.096196 0.917953 0.574237 -0.129375
C18   C     C_R   0.115857 0.823952 0.583928 0.084554
H2    H     H_    0.138418 0.732255 0.962349 0.168034
H3    H     H_    0.082551 0.989237 0.769301 0.132450
C19   C     C_2   0.985806 0.708254 0.281703 -0.097221
C20   C     C_2   0.150740 0.680329 0.317613 -0.247768
H4    H     H_    0.849710 0.680858 0.303061 0.130363
H5    H     H_    0.288571 0.706848 0.298140 0.125208
C21   C     C_2   0.973555 0.775796 0.213804 -0.105067
C22   C     C_2   0.126574 0.814400 0.177007 -0.275459
H6    H     H_    0.829594 0.793956 0.193463 0.135100
H7    H     H_    0.271701 0.797167 0.195729 0.131395
C23   C     C_2   0.771020 0.205259 0.778477 -0.057956
C24   C     C_2   0.613456 0.189437 0.825190 0.007505
H8    H     H_    0.898474 0.163139 0.786678 0.127425
C25   C     C_2   0.788214 0.279971 0.717608 -0.033322
C26   C     C_2   0.638627 0.310969 0.673318 -0.231063
H9    H     H_    0.931475 0.306735 0.706423 0.179436
H10   H     H_    0.497489 0.280534 0.679581 0.187640
C27   C     C_2   0.771427 0.213104 0.210733 -0.180218
C28   C     C_2   0.608988 0.170260 0.186041 -0.038684
H11   H     H_    0.903736 0.202122 0.176372 0.134867
C29   C     C_2   0.788427 0.271609 0.285326 0.655881
C30   C     C_2   0.642577 0.324309 0.313378 -0.344291
H12   H     H_    0.506950 0.326574 0.280700 0.154067
O11   O     O_R   0.770210 0.079270 0.910680 -0.545267
O12   O     O_R   0.440150 0.091160 0.082270 -0.543036
O13   O     O_R   0.269970 0.914530 0.082860 -0.543996
C31   C     C_R   0.607804 0.111167 0.111972 0.721982
O14   O     O_R   0.440480 0.090100 0.911240 -0.541713
O15   O     O_R   0.270310 0.913460 0.910610 -0.536529
C32   C     C_R   0.608984 0.113563 0.884665 0.696586
O16   O     O_R   0.769870 0.080340 0.082930 -0.545898
O17   O     O_3   0.603660 0.938980 0.996790 -0.368052
V3    V     V_3+5 0.328750 0.007610 0.996740 1.443770
O18   O     O_R   0.940600 0.902510 0.911180 -0.539178
C33   C     C_R   0.109923 0.879388 0.884060 0.687281
O19   O     O_R   0.940270 0.903570 0.082200 -0.541772
C34   C     C_R   0.109630 0.881833 0.110309 0.733977
V4    V     V_3+5 0.828770 0.986010 0.996670 1.447714
O20   O     O_3   0.103730 0.054750 0.996710 -0.371309
N1    N     N_3   0.450446 0.249960 0.822462 -0.595071
H13   H     H_    0.328947 0.212099 0.806080 0.246042
H14   H     H_    0.427907 0.276347 0.881360 0.282282
N2    N     N_3   0.436817 0.174841 0.234893 -0.639547
H15   H     H_    0.325886 0.201371 0.198828 0.259887
H16   H     H_    0.399069 0.108546 0.251263 0.242786
F1    F     F_    0.963655 0.274573 0.322493 -0.667689
F2    F     F_    0.179083 0.495370 0.722506 -0.655196
F3    F     F_    0.190964 0.441695 0.878413 -0.616571
F4    F     F_    0.170372 0.564889 0.004803 -0.624571
F5    F     F_    0.065064 0.066773 0.630075 -0.687043
N3    N     N_3   0.126884 0.773151 0.509390 -0.681785
H17   H     H_    0.259369 0.739542 0.506311 0.227785
H18   H     H_    0.009080 0.729479 0.505617 0.230599

loop_
_geom_bond_atom_site_label_1
_geom_bond_atom_site_label_2
_ccdc_geom_bond_type
C31   O16   A    
C22   C34   S    
C6    C7    A    
C1    O6    A    
C22   H7    S    
C1    C26   S    
C30   H12   S    
C12   C15   A    
C13   C14   A    
C18   N3    S    
N2    H16   S    
C15   C16   A    
C20   H5    S    
C5    C6    A    
C28   N2    S    
O5    C3    A    
C17   C18   A    
V2    O10   S    
C19   C20   D    
O8    V2    S    
O17   V4    S    
C27   H11   S    
O12   V3    S    
O1    V2    S    
V3    O20   S    
C4    C14   S    
O7    V1    S    
C11   C33   S    
O15   C33   A    
C13   C18   A    
C19   C21   S    
O9    C4    A    
H1    C17   S    
C23   H8    S    
C10   C14   A    
C25   H9    S    
C8    H2    S    
C26   H10   S    
O14   C32   A    
N2    H15   S    
C7    F4    S    
O19   C34   A    
C28   C31   S    
C11   C12   A    
N1    H14   S    
C12   C13   A    
C25   C26   D    
C5    C10   A    
O16   V4    S    
O19   V4    S    
C23   C25   S    
O2    C1    A    
C16   F5    S    
C16   C17   A    
C5    F2    S    
C27   C29   S    
O14   V3    S    
C3    C20   S    
C6    F3    S    
O11   V4    S    
O3    C4    A    
C15   H3    S    
N3    H17   S    
O6    V2    S    
N3    H18   S    
O9    V2    S    
C9    C11   A    
C23   C24   D    
C2    C30   S    
O13   C34   A    
C29   F1    S    
O2    V1    S    
C29   C30   D    
C24   C32   S    
O13   V3    S    
O4    C2    A    
C24   N1    S    
O1    C2    A    
O5    V1    S    
O8    C3    A    
O15   V3    S    
O7    V2    S    
N1    H13   S    
O3    V1    S    
V1    O10   S    
C21   H6    S    
C21   C22   D    
O18   V4    S    
O11   C32   A    
O12   C31   A    
C19   H4    S    
O18   C33   A    
V4    O20   S    
O17   V3    S    
O4    V1    S    
C7    C8    A    
C27   C28   D    
C9    C10   A    
C8    C9    A    
