data_mof_unit_11754.cif
_audit_creation_date              2013-03-05T16:18:41-0500
_audit_creation_method            fapswitch 2.2
_symmetry_space_group_name_H-M    P1
_symmetry_Int_Tables_number       1
_space_group_crystal_system       triclinic
_cell_length_a                    15.713155
_cell_length_b                    10.777592
_cell_length_c                    9.836839
_cell_angle_alpha                 92.386717
_cell_angle_beta                  92.176044
_cell_angle_gamma                 91.226255
_cell_volume                      1662.78237104

loop_
_atom_site_label
_atom_site_type_symbol
_atom_site_description
_atom_site_fract_x
_atom_site_fract_y
_atom_site_fract_z
_atom_type_partial_charge
O1    O     O_R   0.499980 0.314910 0.616040 -0.654022
O2    O     O_R   0.500040 0.314680 0.383960 -0.607711
C1    C     C_R   0.498669 0.257809 0.497636 0.961350
O3    O     O_R   0.376750 0.500100 0.616020 -0.597052
O4    O     O_R   0.376810 0.499870 0.383940 -0.586219
C2    C     C_R   0.338238 0.501571 0.497799 1.010786
Zn1   Zn    Zn3+2 0.499960 0.500150 0.654960 1.055848
Zn2   Zn    Zn3+2 0.500040 0.499850 0.345040 0.998575
O5    O     O_R   0.499960 0.685320 0.616040 -0.557864
O6    O     O_R   0.500020 0.685090 0.383960 -0.634675
O7    O     O_R   0.623190 0.500130 0.616060 -0.568294
O8    O     O_R   0.623250 0.499900 0.383980 -0.654548
C3    C     C_R   0.499950 0.742076 0.501773 0.928414
C4    C     C_R   0.661834 0.500463 0.502351 0.938388
C5    C     C_3   0.975431 0.421964 0.593333 -0.110581
C6    C     C_3   0.025589 0.391191 0.464395 -0.221432
H1    H     H_    0.047535 0.298026 0.430690 0.201978
H2    H     H_    0.936348 0.450688 0.278669 0.185759
C7    C     C_1   0.249417 0.503151 0.493447 0.006954
C8    C     C_1   0.750760 0.502005 0.507651 -0.047757
C9    C     C_3   0.034214 0.534951 0.627612 0.225736
C10   C     C_3   0.083681 0.505650 0.500212 0.052591
C11   C     C_3   0.975621 0.618563 0.545901 -0.112552
C12   C     C_3   0.917032 0.505212 0.510358 0.100814
C13   C     C_3   0.025848 0.589857 0.416430 -0.214420
C14   C     C_3   0.966102 0.475371 0.380652 -0.127793
C15   C     C_1   0.174228 0.504536 0.494332 0.099763
C16   C     C_1   0.826093 0.503537 0.510269 0.118333
H3    H     H_    0.048011 0.658539 0.343722 0.203783
C17   C     C_3   0.574686 0.078060 0.584233 0.076712
H4    H     H_    0.567095 0.113213 0.691290 0.131589
C18   C     C_3   0.575218 0.934515 0.588234 -0.450037
H5    H     H_    0.635502 0.896422 0.550023 0.251268
H6    H     H_    0.571585 0.906878 0.695675 0.238129
H7    H     H_    0.423678 0.101091 0.678412 0.086537
H8    H     H_    0.415013 0.898882 0.672005 0.183579
C19   C     C_3   0.414421 0.071049 0.568865 0.066907
C20   C     C_3   0.502923 0.061276 0.347024 -0.241980
C21   C     C_3   0.495504 0.120982 0.494972 -0.156834
H9    H     H_    0.564200 0.094887 0.307939 0.170453
C22   C     C_3   0.498125 0.878382 0.502319 -0.124392
C23   C     C_3   0.414050 0.926154 0.564367 0.071805
C24   C     C_3   0.507045 0.920777 0.353915 -0.355376
H10   H     H_    0.569294 0.890292 0.314883 0.208049
H11   H     H_    0.457709 0.873900 0.284506 0.250451
C25   C     C_3   0.472820 0.373891 0.071099 0.171424
H12   H     H_    0.514538 0.303612 0.116497 0.093089
C26   C     C_3   0.488065 0.369536 0.911388 -0.450708
H13   H     H_    0.545414 0.313714 0.890809 0.161273
H14   H     H_    0.436968 0.319257 0.849463 0.246552
H15   H     H_    0.368089 0.512724 0.902615 0.152713
C27   C     C_3   0.441696 0.595883 0.078146 -0.233426
C28   C     C_3   0.584620 0.527517 0.089731 -0.391252
N1    N     N_3   0.498170 0.499750 0.138610 -0.144379
H16   H     H_    0.612660 0.609521 0.148388 0.235156
H17   H     H_    0.628020 0.450882 0.115634 0.161020
N2    N     N_3   0.498850 0.496730 0.861320 -0.158905
C29   C     C_3   0.427612 0.570456 0.919890 0.179865
C30   C     C_3   0.583016 0.542632 0.928809 0.218351
H18   H     H_    0.634450 0.482897 0.889461 0.132358
H19   H     H_    0.473556 0.688524 0.097826 0.224980
C31   C     C_2   0.438928 0.092165 0.235874 0.628348
H20   H     H_    0.461822 0.112863 0.136701 0.024022
O9    O     O_2   0.362493 0.079799 0.247853 -0.382355
N3    N     N_R   0.331250 0.121740 0.528330 0.278542
O10   O     O_R   0.326012 0.222792 0.461467 -0.352679
O11   O     O_R   0.264283 0.086240 0.591711 -0.294743
N4    N     N_R   0.336735 0.868069 0.497475 0.245541
O12   O     O_R   0.285305 0.802364 0.567522 -0.315575
O13   O     O_R   0.312940 0.892327 0.373978 -0.244665
N5    N     N_R   0.383667 0.337112 0.095902 0.167859
O14   O     O_R   0.328583 0.307440 0.997004 -0.383047
O15   O     O_R   0.359634 0.323491 0.218657 -0.307880
C32   C     C_2   0.950288 0.328465 0.693725 0.534562
H21   H     H_    0.998984 0.275121 0.744167 0.090692
O16   O     O_2   0.875681 0.312016 0.719539 -0.491602
C33   C     C_2   0.356165 0.606987 0.141420 0.560359
H22   H     H_    0.308102 0.533664 0.128786 0.127758
O17   O     O_2   0.337557 0.702866 0.201853 -0.505129
N6    N     N_R   0.606554 0.670621 0.894143 0.251171
O18   O     O_R   0.645819 0.688608 0.782588 -0.347243
O19   O     O_R   0.610091 0.760838 0.986653 -0.386917
N7    N     N_R   0.410518 0.685648 0.850586 0.232260
O20   O     O_R   0.335405 0.697923 0.793509 -0.302295
O21   O     O_R   0.456353 0.785857 0.878579 -0.382976
C34   C     C_2   0.950371 0.746105 0.592668 0.533881
H23   H     H_    0.999120 0.817624 0.614690 0.103340
O22   O     O_2   0.875592 0.770223 0.606325 -0.516530
N8    N     N_R   0.070303 0.567562 0.763560 0.207268
O23   O     O_R   0.020010 0.590787 0.862998 -0.348311
O24   O     O_R   0.152342 0.572468 0.786782 -0.320679
N9    N     N_R   0.656562 0.128994 0.541041 0.223780
O25   O     O_R   0.696180 0.215650 0.616451 -0.350380
O26   O     O_R   0.694905 0.080140 0.437425 -0.375499

loop_
_geom_bond_atom_site_label_1
_geom_bond_atom_site_label_2
_geom_bond_distance
_ccdc_geom_bond_type
C20   H9    1.109470 S    
C22   C23   1.564313 S    
H8    C23   1.110226 S    
H2    C14   1.110218 S    
C3    C22   1.469733 S    
C28   C30   1.597360 S    
C26   N2    1.484297 S    
C9    N8    1.458834 S    
C33   H22   1.081408 S    
Zn1   O7    1.987985 S    
C2    C7    1.395185 S    
C32   O16   1.219707 D    
H7    C19   1.115455 S    
C12   C14   1.541760 S    
C27   H19   1.113617 S    
O4    C2    1.293223 A    
O7    C4    1.292923 A    
C34   O22   1.219997 D    
N2    C30   1.520683 S    
C5    C6    1.546582 S    
C13   H3    1.110287 S    
C19   C23   1.560277 S    
O5    C3    1.301871 A    
C31   O9    1.216290 D    
C6    H1    1.110327 S    
N3    O11   1.301853 A    
C10   C13   1.539288 S    
C19   N3    1.474627 S    
C11   C12   1.534293 S    
N8    O24   1.300172 A    
C7    C15   1.182224 T    
C33   O17   1.217229 D    
C1    C21   1.473552 S    
C30   H18   1.114793 S    
C9    C10   1.525101 S    
C23   N4    1.474173 S    
C22   C24   1.558158 S    
O3    Zn1   1.959214 S    
C27   N1    1.505080 S    
C28   H16   1.108925 S    
C6    C14   1.554184 S    
C20   C21   1.576002 S    
C25   C26   1.597097 S    
C32   H21   1.084425 S    
C4    C8    1.396027 S    
O3    C2    1.291252 A    
Zn2   N1    2.029670 S    
N5    O15   1.292007 A    
C34   H23   1.084455 S    
N4    O12   1.299129 A    
C8    C16   1.182766 T    
C13   C14   1.554609 S    
C28   N1    1.486665 S    
C11   C34   1.497709 S    
O1    C1    1.293699 A    
C18   H6    1.113128 S    
C24   H10   1.115287 S    
C31   H20   1.082682 S    
N7    O20   1.299338 A    
Zn2   O8    1.959214 S    
C25   N1    1.523617 S    
N9    O26   1.301775 A    
H15   C29   1.115806 S    
C24   H11   1.112075 S    
C25   N5    1.479646 S    
C27   C29   1.575823 S    
C17   N9    1.472327 S    
C26   H13   1.114406 S    
N7    O21   1.299172 A    
O8    C4    1.291928 A    
C10   C15   1.426439 S    
C9    C11   1.531469 S    
C20   C24   1.521228 S    
C18   C22   1.547890 S    
C27   C33   1.507378 S    
C28   H17   1.113821 S    
Zn1   O5    2.047676 S    
C25   H12   1.109071 S    
C5    C12   1.533805 S    
C6    C10   1.539566 S    
O1    Zn1   2.017109 S    
Zn2   O6    2.017109 S    
O2    Zn2   2.047677 S    
C12   C16   1.428636 S    
N6    O18   1.298629 A    
O6    C3    1.288842 A    
C30   N6    1.477425 S    
O4    Zn2   1.987985 S    
C18   H5    1.112632 S    
O2    C1    1.298038 A    
N5    O14   1.302361 A    
C19   C21   1.585810 S    
C29   N7    1.465966 S    
C17   C18   1.549403 S    
N2    C29   1.505064 S    
C17   H4    1.115808 S    
C26   H14   1.107286 S    
N9    O25   1.300911 A    
N6    O19   1.302597 A    
C17   C21   1.583818 S    
C11   C13   1.547435 S    
C5    C9    1.530928 S    
C5    C32   1.497413 S    
N4    O13   1.296178 A    
N3    O10   1.298030 A    
N8    O23   1.300286 A    
Zn1   N2    2.032527 S    
C20   C31   1.509487 S    
