data_mof_unit_58076.cif
_audit_creation_date              2012-12-11T14:29:31-0500
_audit_creation_method            fapswitch 2.2
_symmetry_space_group_name_H-M    P1
_symmetry_Int_Tables_number       1
_space_group_crystal_system       triclinic
_cell_length_a                    6.951811
_cell_length_b                    14.778094
_cell_length_c                    16.177513
_cell_angle_alpha                 90.359421
_cell_angle_beta                  89.966185
_cell_angle_gamma                 90.046547
_cell_volume                      1661.95544135

loop_
_atom_site_label
_atom_site_type_symbol
_atom_type_description
_atom_site_fract_x
_atom_site_fract_y
_atom_site_fract_z
_atom_type_partial_charge
O1    O     O_R   0.494400 0.416610 0.413880 -0.541429
O2    O     O_R   0.823920 0.406790 0.585520 -0.547935
O3    O     O_R   0.994250 0.583390 0.586120 -0.539258
C1    C     C_R   0.655657 0.385238 0.613618 0.743347
O4    O     O_R   0.824110 0.405730 0.414490 -0.539298
O5    O     O_R   0.994440 0.582310 0.413870 -0.538630
C2    C     C_R   0.654525 0.382178 0.387985 0.749422
O6    O     O_R   0.494210 0.417690 0.586130 -0.539070
O7    O     O_3   0.660810 0.557940 0.500000 -0.370573
V1    V     V_3+5 0.935650 0.489250 0.500000 1.416873
O8    O     O_R   0.324160 0.593210 0.414480 -0.545228
C3    C     C_R   0.156032 0.614150 0.385880 0.751188
O9    O     O_R   0.323970 0.594270 0.585510 -0.539839
C4    C     C_R   0.155920 0.610449 0.618245 0.676843
V2    V     V_3+5 0.435660 0.510750 0.500000 1.418639
O10   O     O_3   0.160630 0.442060 0.500000 -0.367808
H1    H     H_    0.172334 0.910015 0.500579 0.143400
C5    C     C_R   0.145711 0.555716 0.802457 0.069009
C6    C     C_R   0.143866 0.538439 0.888383 -0.092290
C7    C     C_R   0.139817 0.607252 0.946086 -0.182715
C8    C     C_R   0.134769 0.695913 0.921003 -0.144323
C9    C     C_R   0.131606 0.719047 0.836560 0.071697
C10   C     C_R   0.140744 0.649015 0.774333 0.013840
C11   C     C_R   0.122610 0.811823 0.815173 -0.157051
C12   C     C_R   0.134312 0.837371 0.731415 0.029696
C13   C     C_R   0.144985 0.770120 0.668296 0.081662
C14   C     C_R   0.146147 0.676385 0.688537 -0.166656
C15   C     C_R   0.138774 0.929894 0.709067 -0.172760
C16   C     C_R   0.154539 0.955565 0.626564 0.214745
C17   C     C_R   0.161205 0.890139 0.564705 -0.131481
C18   C     C_R   0.155604 0.798785 0.584829 -0.170095
H2    H     H_    0.146706 0.471066 0.913484 0.103462
H3    H     H_    0.141273 0.591591 0.011417 0.123345
H4    H     H_    0.135555 0.746472 0.969519 0.092284
H5    H     H_    0.133075 0.983178 0.755192 0.116439
H6    H     H_    0.161884 0.751271 0.533803 0.115144
C19   C     C_2   0.984875 0.706572 0.283424 -0.159955
C20   C     C_2   0.151774 0.677910 0.316003 -0.346172
H7    H     H_    0.852576 0.682448 0.311468 0.142177
H8    H     H_    0.288877 0.697511 0.289778 0.127597
C21   C     C_2   0.964218 0.765368 0.208955 0.114001
C22   C     C_2   0.115515 0.814604 0.178545 -0.334653
H9    H     H_    0.255091 0.809749 0.207779 0.118079
C23   C     C_2   0.732244 0.176282 0.752380 -0.096770
C24   C     C_2   0.609053 0.179336 0.816288 -0.313968
H10   H     H_    0.837547 0.122087 0.749362 0.145873
H11   H     H_    0.491216 0.227376 0.815815 0.140026
C25   C     C_2   0.721679 0.238884 0.680634 -0.091647
C26   C     C_2   0.649776 0.323379 0.684827 -0.331989
H12   H     H_    0.787315 0.216195 0.623209 0.162054
H13   H     H_    0.588449 0.349172 0.741918 0.129072
C27   C     C_2   0.757422 0.201438 0.221524 -0.147333
C28   C     C_2   0.619811 0.197257 0.162031 -0.061075
H14   H     H_    0.860639 0.146559 0.226318 0.125068
C29   C     C_2   0.783007 0.277198 0.281169 -0.148342
C30   C     C_2   0.636493 0.308049 0.327280 -0.292360
H15   H     H_    0.927296 0.303365 0.290882 0.138316
H16   H     H_    0.496189 0.276336 0.321812 0.138496
O11   O     O_R   0.770210 0.079270 0.910680 -0.537530
O12   O     O_R   0.440150 0.091160 0.082270 -0.545512
O13   O     O_R   0.269970 0.914530 0.082860 -0.544618
C31   C     C_R   0.609429 0.116493 0.107342 0.699690
O14   O     O_R   0.440480 0.090100 0.911240 -0.541590
O15   O     O_R   0.270310 0.913460 0.910610 -0.534966
C32   C     C_R   0.608338 0.111198 0.882685 0.748202
O16   O     O_R   0.769870 0.080340 0.082930 -0.542815
O17   O     O_3   0.603660 0.938980 0.996790 -0.370998
V3    V     V_3+5 0.328750 0.007610 0.996740 1.401290
O18   O     O_R   0.940600 0.902510 0.911180 -0.538093
C33   C     C_R   0.109587 0.882484 0.881406 0.695692
O19   O     O_R   0.940270 0.903570 0.082200 -0.541011
C34   C     C_R   0.107802 0.880733 0.109720 0.725356
V4    V     V_3+5 0.828770 0.986010 0.996670 1.408642
O20   O     O_3   0.103730 0.054750 0.996710 -0.372053
C35   C     C_3   0.762781 0.765576 0.171205 -0.312986
C36   C     C_3   0.756015 0.710726 0.090330 -0.287128
C37   C     C_3   0.550689 0.701060 0.058112 -0.764651
H17   H     H_    0.459289 0.665240 0.103816 0.216443
H18   H     H_    0.488063 0.768578 0.045580 0.249277
H19   H     H_    0.551653 0.661388 0.999595 0.224384
H20   H     H_    0.843745 0.744126 0.042252 0.204495
H21   H     H_    0.815860 0.641996 0.100896 0.184166
H22   H     H_    0.658506 0.734023 0.214498 0.141740
H23   H     H_    0.706765 0.835176 0.163344 0.187622
C38   C     C_3   0.489144 0.276832 0.140972 -0.332249
C39   C     C_3   0.603403 0.355242 0.102851 -0.292480
C40   C     C_3   0.470916 0.432495 0.077230 -0.800892
H24   H     H_    0.364739 0.408410 0.030757 0.222026
H25   H     H_    0.393385 0.460054 0.131913 0.228505
H26   H     H_    0.557573 0.487607 0.049373 0.228100
H27   H     H_    0.710077 0.382095 0.147777 0.206590
H28   H     H_    0.682394 0.330447 0.047371 0.182301
H29   H     H_    0.379277 0.255199 0.095016 0.170266
H30   H     H_    0.406210 0.300479 0.195244 0.173515
C41   C     C_3   0.152842 0.474345 0.743689 -0.365901
C42   C     C_3   0.150240 0.379649 0.783280 -0.384076
C43   C     C_3   0.155960 0.304567 0.718388 -0.671934
H31   H     H_    0.050237 0.316896 0.669285 0.254597
H32   H     H_    0.295771 0.301054 0.687359 0.245512
H33   H     H_    0.127819 0.238364 0.748051 0.225907
H34   H     H_    0.276870 0.371116 0.824403 0.187296
H35   H     H_    0.015710 0.371308 0.819715 0.206255
H36   H     H_    0.024226 0.477521 0.703653 0.192632
H37   H     H_    0.286433 0.478983 0.706638 0.185943
I1    I     I_    0.173824 0.093365 0.594745 -0.516054

loop_
_geom_bond_atom_site_label_1
_geom_bond_atom_site_label_2
_ccdc_geom_bond_type
C40   H24   S    
O14   C32   A    
H1    C17   S    
C42   H35   S    
C21   C22   D    
C6    C7    A    
C1    O6    A    
C43   H31   S    
C11   C33   S    
C37   H17   S    
C23   C24   D    
C12   C15   A    
C13   C14   A    
C16   C17   A    
O15   V3    S    
C8    C9    A    
C15   C16   A    
C39   H27   S    
O5    C3    A    
C17   C18   A    
C35   H23   S    
V3    O20   S    
V2    O10   S    
O12   C31   A    
C5    C6    A    
V4    O20   S    
C24   H11   S    
C38   H29   S    
C41   C42   S    
C15   H5    S    
C23   H10   S    
C41   H36   S    
O18   V4    S    
O17   V4    S    
C10   C14   A    
C4    C14   S    
O7    V1    S    
O11   V4    S    
C27   C29   S    
C25   H12   S    
C13   C18   A    
C42   H34   S    
C3    C20   S    
C5    C41   S    
C16   I1    S    
O8    V2    S    
C2    C30   S    
C6    H2    S    
C43   H32   S    
C27   H14   S    
C37   H18   S    
C31   O16   A    
O17   V3    S    
C11   C12   A    
C36   H21   S    
O19   V4    S    
C39   C40   S    
C8    H4    S    
C26   H13   S    
C12   C13   A    
C38   C39   S    
O16   V4    S    
C5    C10   A    
O2    C1    A    
C35   C36   S    
C19   C20   D    
C21   C35   S    
C38   H30   S    
C42   C43   S    
C29   C30   D    
C22   C34   S    
C36   C37   S    
O3    C4    A    
O1    V2    S    
C7    H3    S    
O13   C34   A    
C25   C26   D    
O6    V2    S    
O15   C33   A    
C29   H15   S    
C24   C32   S    
C9    C11   A    
C22   H9    S    
O2    V1    S    
C43   H33   S    
C27   C28   D    
O4    C2    A    
C37   H19   S    
O14   V3    S    
O1    C2    A    
C9    C10   A    
C36   H20   S    
O5    V1    S    
C28   C38   S    
O8    C3    A    
C1    C26   S    
O9    V2    S    
O7    V2    S    
O4    V1    S    
C19   H7    S    
O3    V1    S    
C39   H28   S    
O11   C32   A    
C41   H37   S    
C20   H8    S    
O13   V3    S    
C35   H22   S    
C30   H16   S    
C19   C21   S    
O18   C33   A    
O19   C34   A    
C7    C8    A    
O12   V3    S    
C28   C31   S    
C40   H26   S    
C40   H25   S    
C18   H6    S    
V1    O10   S    
O9    C4    A    
C23   C25   S    
