data_mof_unit_8863.cif
_audit_creation_date              2012-12-10T19:45:59-0500
_audit_creation_method            fapswitch 2.2
_symmetry_space_group_name_H-M    P1
_symmetry_Int_Tables_number       1
_space_group_crystal_system       triclinic
_cell_length_a                    10.820345
_cell_length_b                    14.933198
_cell_length_c                    14.159348
_cell_angle_alpha                 89.887008
_cell_angle_beta                  104.926482
_cell_angle_gamma                 90.081941
_cell_volume                      2210.69514057

loop_
_atom_site_label
_atom_site_type_symbol
_atom_type_description
_atom_site_fract_x
_atom_site_fract_y
_atom_site_fract_z
_atom_type_partial_charge
C1    C     C_R   0.497944 0.327764 0.499722 0.844013
C2    C     C_R   0.427087 0.440337 0.782119 0.018745
C3    C     C_R   0.611585 0.493436 0.125807 -0.255669
C4    C     C_R   0.426050 0.440492 0.881060 -0.244785
C5    C     C_R   0.496600 0.502343 0.052490 0.071041
C6    C     C_R   0.499027 0.503379 0.946276 0.062265
C7    C     C_R   0.258584 0.504588 0.458960 0.958583
C8    C     C_R   0.740830 0.499514 0.541400 0.926618
C9    C     C_2   0.120338 0.506823 0.436459 -0.327320
C10   C     C_2   0.875299 0.515946 0.566708 -0.455522
C11   C     C_2   0.066244 0.525824 0.509726 0.015898
C12   C     C_R   0.497893 0.672281 0.499479 0.875078
C13   C     C_2   0.949441 0.477737 0.515902 -0.066128
C14   C     C_R   0.440659 0.088390 0.549957 -0.103676
C15   C     C_R   0.444419 0.911912 0.426316 -0.115078
C16   C     C_R   0.424384 0.180653 0.545918 -0.035722
C17   C     C_R   0.428062 0.819641 0.423047 -0.015916
C18   C     C_R   0.503230 0.231734 0.501159 -0.156651
C19   C     C_R   0.503277 0.768387 0.500420 -0.146216
C20   C     C_R   0.593965 0.191268 0.460305 -0.146297
C21   C     C_R   0.590298 0.808838 0.579429 -0.150110
C22   C     C_R   0.608915 0.098833 0.463391 0.005599
C23   C     C_R   0.530780 0.048252 0.508658 -0.073942
C24   C     C_R   0.604946 0.901302 0.583204 0.008760
C25   C     C_2   0.915539 0.387361 0.470209 0.453489
C26   C     C_2   0.126031 0.592617 0.587142 0.462568
C27   C     C_2   0.320880 0.221486 0.583345 0.442545
C28   C     C_2   0.327900 0.779092 0.342109 0.425159
C29   C     C_2   0.704890 0.056050 0.419449 0.413607
C30   C     C_2   0.696553 0.944024 0.667662 0.410147
C31   C     C_R   0.255120 0.516250 0.010373 0.089802
C32   C     C_R   0.229484 0.586927 0.942393 -0.107847
C33   C     C_R   0.113276 0.590257 0.870851 -0.141281
C34   C     C_R   0.530719 0.951969 0.505505 -0.072711
C35   C     C_R   0.022139 0.522972 0.866173 -0.146730
C36   C     C_R   0.045445 0.453659 0.934919 -0.118000
C37   C     C_R   0.161223 0.450406 0.007098 -0.163621
C38   C     C_R   0.655786 0.633649 0.971196 0.094641
C39   C     C_R   0.603735 0.694031 0.026613 -0.109173
C40   C     C_R   0.681868 0.757469 0.086098 -0.120261
C41   C     C_R   0.812221 0.761582 0.090342 -0.086797
C42   C     C_R   0.864593 0.702377 0.034922 -0.092693
C43   C     C_R   0.786716 0.638867 0.975481 -0.170553
C44   C     C_R   0.381282 0.508673 0.082326 -0.069899
C45   C     C_R   0.574835 0.564933 0.908760 -0.071941
C46   C     C_R   0.386424 0.507164 0.183161 -0.030859
C47   C     C_R   0.573522 0.560945 0.808685 -0.019002
C48   C     C_R   0.611383 0.492649 0.224897 0.024759
H1    H     H_    0.701647 0.486767 0.106430 0.156755
H2    H     H_    0.630410 0.607671 0.779054 0.134826
H3    H     H_    0.701256 0.485914 0.279533 0.138948
H4    H     H_    0.369534 0.392141 0.732807 0.137065
H5    H     H_    0.821174 0.359026 0.462657 0.065085
H6    H     H_    0.118540 0.583900 0.661460 0.047599
H7    H     H_    0.292467 0.290552 0.566912 0.087763
H8    H     H_    0.297173 0.710444 0.346624 0.083555
H9    H     H_    0.717843 0.983989 0.422454 0.076492
H10   H     H_    0.709959 0.016063 0.670222 0.084352
H11   H     H_    0.299635 0.638881 0.943999 0.128661
H12   H     H_    0.368544 0.391305 0.906687 0.167021
H13   H     H_    0.094214 0.644770 0.818664 0.146038
H14   H     H_    0.932858 0.525074 0.809923 0.137635
H15   H     H_    0.974125 0.402102 0.931852 0.144515
H16   H     H_    0.179001 0.395424 0.058825 0.141048
H17   H     H_    0.503081 0.692130 0.024047 0.127871
H18   H     H_    0.641301 0.803473 0.128910 0.150574
H19   H     H_    0.872587 0.810660 0.136497 0.157438
H20   H     H_    0.965582 0.705462 0.038202 0.155699
H21   H     H_    0.828488 0.592876 0.933738 0.134848
H22   H     H_    0.904318 0.574923 0.611528 0.136032
H23   H     H_    0.067724 0.473309 0.370279 0.167599
H24   H     H_    0.380076 0.046682 0.582151 0.196576
H25   H     H_    0.386616 0.953700 0.368979 0.194469
H26   H     H_    0.653941 0.232360 0.426973 0.183113
H27   H     H_    0.647729 0.767696 0.637572 0.180980
H28   H     H_    0.298839 0.512697 0.206130 0.138156
N1    N     N_R   0.500000 0.499980 0.252470 -0.097410
N2    N     N_R   0.500000 0.500020 0.747530 -0.101546
O1    O     O_R   0.500010 0.369070 0.579480 -0.633810
O2    O     O_2   0.183224 0.657845 0.567663 -0.572923
O3    O     O_2   0.264533 0.177876 0.632325 -0.550771
O4    O     O_2   0.276861 0.822536 0.269378 -0.576749
O5    O     O_2   0.771164 0.100888 0.379356 -0.537349
O6    O     O_2   0.758549 0.899169 0.735666 -0.558847
O7    O     O_R   0.499990 0.630930 0.420520 -0.629604
O8    O     O_R   0.500010 0.369060 0.420520 -0.603617
O9    O     O_R   0.499990 0.630940 0.579480 -0.593589
O10   O     O_R   0.317810 0.500010 0.549800 -0.601171
O11   O     O_R   0.682190 0.499990 0.450200 -0.626336
O12   O     O_R   0.317810 0.500000 0.390840 -0.637855
O13   O     O_R   0.682190 0.500000 0.609160 -0.614711
O14   O     O_2   0.994826 0.341226 0.445503 -0.567413
Zn1   Zn    Zn3+2 0.500000 0.500010 0.606140 0.964077
Zn2   Zn    Zn3+2 0.500000 0.499990 0.393860 0.949993

loop_
_geom_bond_atom_site_label_1
_geom_bond_atom_site_label_2
_ccdc_geom_bond_type
C48   N1    A    
C6    C45   A    
C41   C42   A    
N1    Zn2   S    
C35   C36   A    
C46   H28   S    
C28   H8    S    
C41   H19   S    
C1    C18   S    
C12   O7    A    
C36   C37   A    
C22   C29   S    
C25   H5    S    
O1    Zn1   S    
C5    C6    S    
C27   H7    S    
N2    Zn1   S    
O9    Zn1   S    
C3    C48   A    
C7    C9    S    
O11   Zn2   S    
C38   C45   S    
O8    Zn2   S    
C33   C35   A    
C48   H3    S    
C31   C32   A    
C36   H15   S    
C15   C34   A    
C16   C27   S    
C43   H21   S    
C40   H18   S    
C42   H20   S    
C39   H17   S    
C13   C25   S    
C26   H6    S    
C44   C46   A    
O12   Zn2   S    
C47   H2    S    
C24   C30   S    
C45   C47   A    
C3    H1    S    
C31   C44   S    
C28   O4    D    
C27   O3    D    
C4    C6    A    
C39   C40   A    
C11   C26   S    
C7    O12   A    
C24   C34   A    
C31   C37   A    
C14   C23   A    
C2    C4    A    
C2    N2    A    
O13   Zn1   S    
O7    Zn2   S    
C7    O10   A    
C23   C34   S    
C4    H12   S    
C20   H26   S    
C8    O13   A    
C9    C11   D    
C2    H4    S    
C10   H22   S    
C16   C18   A    
C40   C41   A    
C15   H25   S    
C5    C44   A    
C29   H9    S    
C1    O1    A    
C14   C16   A    
C42   C43   A    
C37   H16   S    
C1    O8    A    
C15   C17   A    
O10   Zn1   S    
C25   O14   D    
C12   O9    A    
C19   C21   A    
C17   C28   S    
C14   H24   S    
C9    H23   S    
C20   C22   A    
C3    C5    A    
C10   C13   D    
C46   N1    A    
C29   O5    D    
C21   H27   S    
C32   H11   S    
C32   C33   A    
C38   C43   A    
C11   C13   S    
C38   C39   A    
C33   H13   S    
C30   H10   S    
C12   C19   S    
C17   C19   A    
C35   H14   S    
C18   C20   A    
C30   O6    D    
C26   O2    D    
C8    C10   S    
C21   C24   A    
C22   C23   A    
C8    O11   A    
C47   N2    A    
