data_mof_unit_65435.cif
_audit_creation_date              2013-03-05T15:41:29-0500
_audit_creation_method            fapswitch 2.2
_symmetry_space_group_name_H-M    P1
_symmetry_Int_Tables_number       1
_space_group_crystal_system       triclinic
_cell_length_a                    21.746897
_cell_length_b                    21.733441
_cell_length_c                    22.158073
_cell_angle_alpha                 60.364852
_cell_angle_beta                  118.859395
_cell_angle_gamma                 89.231541
_cell_volume                      7522.49084603

loop_
_atom_site_label
_atom_site_type_symbol
_atom_site_description
_atom_site_fract_x
_atom_site_fract_y
_atom_site_fract_z
_atom_type_partial_charge
O1    O     O_R   0.590490 0.448940 0.499990 -0.624410
O2    O     O_R   0.590420 0.551070 0.499980 -0.613135
C1    C     C_R   0.617527 0.501052 0.496809 0.935282
O3    O     O_R   0.438430 0.510550 0.376780 -0.615577
O4    O     O_R   0.438360 0.612680 0.376770 -0.621978
C2    C     C_R   0.418644 0.581796 0.337232 0.905759
Zn1   Zn    Zn3+2 0.500050 0.431810 0.500010 0.970072
Zn2   Zn    Zn3+2 0.499950 0.568190 0.499990 0.974205
O5    O     O_R   0.409580 0.448930 0.500020 -0.620653
O6    O     O_R   0.409510 0.551060 0.500010 -0.620753
O7    O     O_R   0.561640 0.387320 0.623230 -0.620377
O8    O     O_R   0.561570 0.489450 0.623220 -0.608637
C3    C     C_R   0.382281 0.498669 0.503027 0.952947
C4    C     C_R   0.581341 0.418229 0.662725 0.911723
C5    C     C_3   0.288239 0.738330 0.972446 -0.143678
C6    C     C_3   0.311932 0.769718 0.026754 -0.195072
H1    H     H_    0.363687 0.783774 0.050290 0.147724
H2    H     H_    0.318969 0.728314 0.948401 0.146123
H3    H     H_    0.215629 0.885239 0.944687 0.136813
C7    C     C_1   0.374186 0.627166 0.248213 -0.179170
C8    C     C_1   0.125703 0.874414 0.751744 -0.175456
C9    C     C_3   0.268031 0.678516 0.029318 -0.187925
C10   C     C_3   0.291023 0.710608 0.082177 0.139425
C11   C     C_3   0.187476 0.733164 0.972868 -0.168668
C12   C     C_3   0.208599 0.792301 0.917689 0.167016
C13   C     C_3   0.211659 0.764600 0.026743 0.214638
C14   C     C_3   0.231511 0.824712 0.970264 -0.176027
C15   C     C_1   0.336660 0.665066 0.173152 -0.075474
C16   C     C_1   0.163184 0.837276 0.826795 -0.056611
H4    H     H_    0.135722 0.719075 0.949426 0.144982
H5    H     H_    0.283903 0.617978 0.054955 0.153634
C17   C     C_2   0.753894 0.565247 0.441817 -0.136828
C18   C     C_2   0.816741 0.506700 0.503467 -0.293138
H6    H     H_    0.749865 0.612940 0.387932 0.165454
H7    H     H_    0.823616 0.463348 0.561670 0.158090
C19   C     C_2   0.690710 0.566978 0.449188 -0.141925
C20   C     C_2   0.678613 0.502884 0.487536 -0.336886
H8    H     H_    0.652997 0.620662 0.420816 0.169712
H9    H     H_    0.711157 0.450411 0.507145 0.154192
C21   C     C_3   0.719448 0.196574 0.029841 -0.220152
C22   C     C_3   0.681757 0.282001 0.973211 0.372600
H10   H     H_    0.695118 0.154003 0.054866 0.162198
H11   H     H_    0.753657 0.329299 0.049821 0.161603
C23   C     C_1   0.625485 0.372936 0.751664 -0.147383
C24   C     C_1   0.874225 0.125589 0.248346 -0.177389
C25   C     C_3   0.746340 0.204553 0.973630 -0.218939
C26   C     C_3   0.707503 0.289989 0.917573 0.092937
C27   C     C_3   0.818145 0.214941 0.028141 -0.131951
C28   C     C_3   0.790406 0.208083 0.082490 0.150007
C29   C     C_3   0.778562 0.301023 0.970889 -0.213870
C30   C     C_3   0.751798 0.293458 0.027059 -0.220948
C31   C     C_1   0.662592 0.335194 0.826683 0.015503
C32   C     C_1   0.836419 0.162898 0.173328 -0.032191
H12   H     H_    0.802321 0.344138 0.945589 0.160661
H13   H     H_    0.875549 0.186329 0.052556 0.143649
H14   H     H_    0.743748 0.168830 0.950580 0.156791
C33   C     C_2   0.242483 0.520063 0.551975 0.184716
C34   C     C_2   0.183344 0.513430 0.496978 -0.405153
H15   H     H_    0.178790 0.522293 0.441979 0.149227
C35   C     C_2   0.303116 0.529728 0.539231 -0.140738
C36   C     C_2   0.322635 0.491769 0.515150 -0.386840
H16   H     H_    0.332781 0.566380 0.551180 0.181783
H17   H     H_    0.297240 0.450572 0.509315 0.162185
O9    O     O_R   0.051050 0.909420 0.500010 -0.623044
O10   O     O_R   0.948920 0.909510 0.500030 -0.615963
C37   C     C_R   0.002155 0.879006 0.503443 0.966761
O11   O     O_R   0.112670 0.938280 0.623210 -0.616727
O12   O     O_R   0.010540 0.938370 0.623230 -0.617008
C38   C     C_R   0.081311 0.918560 0.662738 0.909836
Zn3   Zn    Zn3+2 0.068190 0.999870 0.499990 0.964465
Zn4   Zn    Zn3+2 0.931810 0.999990 0.500010 0.978951
O13   O     O_R   0.051080 0.090340 0.499970 -0.616585
O14   O     O_R   0.948950 0.090430 0.499990 -0.619640
O15   O     O_R   0.989460 0.061480 0.376770 -0.622628
O16   O     O_R   0.887330 0.061570 0.376790 -0.609931
C39   C     C_R   0.997158 0.121236 0.495642 0.933817
C40   C     C_R   0.918694 0.081297 0.337294 0.905748
O17   O     O_R   0.965150 0.625240 0.430430 -0.630737
O18   O     O_R   0.034710 0.555670 0.569560 -0.579398
C41   C     C_R   0.996138 0.619517 0.499203 0.982909
O19   O     O_R   0.874770 0.534770 0.430450 -0.626278
O20   O     O_R   0.944330 0.465210 0.569580 -0.589903
C42   C     C_R   0.881002 0.501930 0.500372 0.967020
Zn5   Zn    Zn3+2 0.953560 0.546450 0.407100 0.958227
Zn6   Zn    Zn3+2 0.046440 0.453550 0.592900 0.998273
O21   O     O_R   0.965290 0.444330 0.430440 -0.633425
O22   O     O_R   0.034850 0.374760 0.569570 -0.623694
O23   O     O_R   0.055670 0.534790 0.430420 -0.619202
O24   O     O_R   0.125230 0.465230 0.569550 -0.639864
C43   C     C_R   0.006982 0.380373 0.501085 0.897612
C44   C     C_R   0.118962 0.503496 0.499706 0.914149
C45   C     C_2   0.980586 0.691381 0.551488 0.353931
C46   C     C_2   0.986023 0.687228 0.495473 -0.477469
H18   H     H_    0.979074 0.737314 0.441138 0.143109
C47   C     C_2   0.975048 0.762659 0.543437 -0.199874
C48   C     C_2   0.009597 0.807526 0.514627 -0.402693
H19   H     H_    0.943216 0.777611 0.562651 0.198072
H20   H     H_    0.047412 0.789787 0.503123 0.160272
C49   C     C_2   0.999032 0.314971 0.435991 -0.197834
C50   C     C_2   0.029659 0.313124 0.506443 0.003661
H21   H     H_    0.961115 0.366838 0.374455 0.164248
C51   C     C_2   0.007397 0.245949 0.440097 -0.164793
C52   C     C_2   0.988532 0.192355 0.485137 -0.363710
H22   H     H_    0.025743 0.240320 0.404813 0.173632
H23   H     H_    0.963113 0.202491 0.512748 0.161698
N1    N     N_R   0.607254 0.318226 0.944453 0.204704
O25   O     O_R   0.592831 0.306419 0.999074 -0.382500
O26   O     O_R   0.554962 0.362264 0.864685 -0.398766
C53   C     C_3   0.245741 0.520313 0.622192 -0.347549
C54   C     C_3   0.312395 0.537688 0.671813 -0.846271
H24   H     H_    0.365399 0.496296 0.700927 0.288157
H25   H     H_    0.310100 0.595357 0.630281 0.248366
H26   H     H_    0.310929 0.534310 0.722756 0.263198
H27   H     H_    0.194278 0.562738 0.594948 0.202682
H28   H     H_    0.248260 0.464168 0.667521 0.234077
N2    N     N_R   0.973985 0.630896 0.614322 0.224904
O27   O     O_R   0.997807 0.623892 0.684446 -0.384432
O28   O     O_R   0.932475 0.592198 0.595870 -0.390835
C55   C     C_3   0.093812 0.245340 0.592489 -0.381663
C56   C     C_3   0.167480 0.261265 0.618667 -0.835090
H29   H     H_    0.179695 0.275871 0.570868 0.256547
H30   H     H_    0.166062 0.307940 0.626230 0.274545
H31   H     H_    0.213241 0.210461 0.679722 0.245116
H32   H     H_    0.081718 0.231220 0.640290 0.205938
H33   H     H_    0.102939 0.193987 0.594518 0.230299
C57   C     C_3   0.169641 0.778152 0.060171 -0.429527
C58   C     C_3   0.091790 0.835223 0.988727 -0.857170
H34   H     H_    0.095044 0.889890 0.948064 0.257540
H35   H     H_    0.058888 0.814749 0.950192 0.260403
H36   H     H_    0.062847 0.843745 0.015138 0.254011
H37   H     H_    0.165317 0.724244 0.100818 0.211183
H38   H     H_    0.201315 0.799052 0.098699 0.212419

loop_
_geom_bond_atom_site_label_1
_geom_bond_atom_site_label_2
_geom_bond_distance
_ccdc_geom_bond_type
C5    H2    1.110105 S    
C46   H18   1.086821 S    
C27   H13   1.110094 S    
C47   C48   1.337885 D    
O13   C39   1.281315 A    
C55   H32   1.111226 S    
C21   C25   1.554232 S    
C13   C14   1.542445 S    
C29   H12   1.110122 S    
C17   C19   1.462003 S    
C37   C48   1.440411 S    
C19   C20   1.336668 D    
C11   C13   1.542258 S    
O12   Zn4   1.997342 S    
O4    C2    1.276147 A    
O7    C4    1.275878 A    
O17   C41   1.269170 A    
C5    C12   1.535293 S    
N1    O25   1.300194 A    
C5    C6    1.549729 S    
C18   C42   1.436704 S    
N2    O27   1.301077 A    
C35   H16   1.085487 S    
C13   C57   1.527167 S    
C10   C13   1.529141 S    
C36   H17   1.087279 S    
O5    C3    1.271864 A    
C54   H24   1.111091 S    
C5    C9    1.549485 S    
C33   C53   1.525687 S    
C6    H1    1.110080 S    
C28   C30   1.537955 S    
O15   C40   1.276388 A    
C48   H20   1.086685 S    
Zn3   O15   1.997346 S    
O9    Zn3   2.005548 S    
O24   C44   1.275062 A    
H3    C14   1.110173 S    
C34   C44   1.444809 S    
C56   H31   1.110572 S    
C23   C31   1.194194 T    
C39   C52   1.439692 S    
C27   C29   1.551108 S    
C24   C32   1.194340 T    
O3    Zn1   1.991304 S    
C43   C50   1.464920 S    
O19   C42   1.276446 A    
C56   H30   1.109211 S    
C26   C29   1.539142 S    
C54   H25   1.110659 S    
Zn6   O22   2.006050 S    
C12   C16   1.447157 S    
C25   C27   1.551354 S    
C9    H5    1.110098 S    
C11   C12   1.536795 S    
O3    C2    1.275500 A    
O21   C43   1.284074 A    
Zn4   O14   2.005335 S    
Zn6   O24   2.001392 S    
O12   C38   1.276448 A    
C33   C35   1.473355 S    
C7    C15   1.194825 T    
C34   H15   1.087602 S    
O10   Zn4   1.996170 S    
C8    C16   1.194900 T    
C45   C47   1.465273 S    
C8    C38   1.417044 S    
C35   C36   1.337933 D    
O1    C1    1.269762 A    
C17   H6    1.086429 S    
Zn1   O7    2.001952 S    
C58   H35   1.110651 S    
O16   C40   1.275894 A    
C49   C50   1.347513 D    
O23   C44   1.271404 A    
C57   H38   1.110782 S    
Zn2   O8    1.991306 S    
C29   C30   1.553830 S    
C22   C26   1.523389 S    
C52   H23   1.088547 S    
C50   C55   1.533353 S    
C10   C15   1.448246 S    
C51   H22   1.086185 S    
C45   N2    1.440524 S    
C54   H26   1.110610 S    
C53   H27   1.112107 S    
C55   H33   1.105845 S    
C21   C22   1.534874 S    
C49   H21   1.086040 S    
O8    C4    1.275096 A    
O20   C42   1.267560 A    
C6    C10   1.536145 S    
O14   C39   1.268537 A    
C9    C11   1.550436 S    
C22   N1    1.457395 S    
C58   H34   1.110654 S    
O18   Zn6   1.995164 S    
O19   Zn5   2.001387 S    
C56   H29   1.111059 S    
C4    C23   1.415697 S    
Zn1   O5    1.997533 S    
C25   C26   1.538922 S    
C27   C28   1.537063 S    
O1    Zn1   2.006783 S    
O2    Zn2   1.997533 S    
Zn5   O23   2.002487 S    
Zn5   O21   1.995164 S    
O6    C3    1.277753 A    
O4    Zn2   2.001952 S    
C24   C40   1.416050 S    
C55   C56   1.529437 S    
C47   H19   1.086900 S    
C26   C31   1.447024 S    
C12   C14   1.536962 S    
O20   Zn6   2.002482 S    
C2    C7    1.416972 S    
O11   Zn3   1.995884 S    
C17   C18   1.336109 D    
C19   H8    1.086444 S    
O2    C1    1.277690 A    
C58   H36   1.110233 S    
C20   H9    1.087060 S    
C53   C54   1.529499 S    
Zn4   O16   1.995888 S    
H11   C30   1.110158 S    
C33   C34   1.351169 D    
N1    O26   1.300325 A    
C57   H37   1.110788 S    
C6    C14   1.550854 S    
C57   C58   1.524938 S    
C28   C32   1.446240 S    
C21   H10   1.110150 S    
C45   C46   1.347160 D    
C18   H7    1.087070 S    
N2    O28   1.301361 A    
C51   C52   1.333964 D    
C11   H4    1.110175 S    
C53   H28   1.110781 S    
O18   C41   1.275372 A    
O17   Zn5   2.006052 S    
C49   C51   1.460607 S    
C3    C36   1.441825 S    
C1    C20   1.437132 S    
Zn2   O6    2.006782 S    
O10   C37   1.277029 A    
O22   C43   1.269696 A    
C25   H14   1.110100 S    
C9    C10   1.536296 S    
Zn3   O13   1.995956 S    
O11   C38   1.276355 A    
C41   C46   1.440233 S    
C22   C30   1.534697 S    
C21   C28   1.538147 S    
O9    C37   1.273005 A    
