data_mof_unit_21040.cif
_audit_creation_date              2012-10-26T20:23:19-0400
_audit_creation_method            fapswitch 2.2
_symmetry_space_group_name_H-M    P1
_symmetry_Int_Tables_number       1
_space_group_crystal_system       triclinic
_cell_length_a                    10.657923
_cell_length_b                    12.727291
_cell_length_c                    13.890375
_cell_angle_alpha                 97.946939
_cell_angle_beta                  89.95136
_cell_angle_gamma                 93.579851
_cell_volume                      1862.38695982

loop_
_atom_site_label
_atom_site_type_symbol
_atom_type_description
_atom_site_fract_x
_atom_site_fract_y
_atom_site_fract_z
_atom_type_partial_charge
C1    C     C_R   0.500231 0.483567 0.315932 0.562753
C2    C     C_3   0.970562 0.590074 0.568333 0.200078
C3    C     C_3   0.951495 0.501660 0.420608 0.231996
C4    C     C_3   0.052088 0.502621 0.597587 0.233745
C5    C     C_3   0.876669 0.503029 0.515978 -0.032542
C6    C     C_3   0.122827 0.500830 0.501299 0.007423
C7    C     C_3   0.956876 0.414398 0.547609 -0.042806
C8    C     C_3   0.043977 0.588787 0.471994 -0.010249
C9    C     C_1   0.493588 0.524689 0.786772 -0.055341
C10   C     C_1   0.508513 0.474563 0.213158 -0.036177
C11   C     C_2   0.472546 0.535797 0.976649 0.041784
C12   C     C_R   0.501116 0.516281 0.684047 0.530077
C13   C     C_2   0.529059 0.464319 0.023302 0.032153
C14   C     C_1   0.517605 0.468368 0.126673 -0.066048
C15   C     C_1   0.484330 0.530768 0.873183 -0.052089
C16   C     C_3   0.938658 0.449210 0.253292 0.022037
C17   C     C_3   0.894173 0.486444 0.159787 -0.267424
C18   C     C_3   0.946508 0.421052 0.069996 -0.500438
C19   C     C_3   0.116182 0.570138 0.757475 0.021173
C20   C     C_3   0.200945 0.668431 0.741710 -0.236996
C21   C     C_3   0.184373 0.760990 0.822071 -0.493701
C22   C     C_3   0.997428 0.237285 0.372379 0.008727
C23   C     C_2   0.511643 0.030290 0.462080 0.237003
C24   C     C_3   0.054946 0.146452 0.415221 -0.249579
C25   C     C_3   0.964775 0.047706 0.407265 -0.496326
C26   C     C_3   0.851643 0.693480 0.686952 0.018880
C27   C     C_3   0.777945 0.790919 0.678060 -0.232066
C28   C     C_3   0.683795 0.811987 0.760397 -0.479181
C29   C     C_3   0.904305 0.321705 0.598974 -0.245428
C30   C     C_3   0.840382 0.359959 0.694885 -0.425168
C31   C     C_3   0.092972 0.691546 0.434459 -0.226244
C32   C     C_3   0.156205 0.671543 0.335577 -0.428650
C33   C     C_3   0.604621 0.376980 0.970697 -0.274525
C34   C     C_2   0.488995 0.969606 0.534598 0.244423
C35   C     C_3   0.518922 0.281432 0.927882 -0.428718
C36   C     C_3   0.391964 0.620853 0.027288 -0.265624
C37   C     C_3   0.456251 0.731515 0.027784 -0.437760
C38   C     C_3   0.344573 0.972312 0.659591 -0.006300
C39   C     C_3   0.228265 0.006929 0.610105 -0.277838
C40   C     C_3   0.107215 0.962692 0.652450 -0.491241
C41   C     C_3   0.630436 0.045093 0.322165 0.002373
C42   C     C_3   0.558789 0.096296 0.246874 -0.254395
C43   C     C_3   0.644468 0.175878 0.200746 -0.480069
C44   C     C_1   0.509356 0.853756 0.521643 0.159680
C45   C     C_1   0.490806 0.146270 0.477079 0.155734
C46   C     C_R   0.259035 0.499947 0.497249 0.601453
C47   C     C_R   0.740191 0.500963 0.509426 0.573626
C48   C     C_3   0.029338 0.412944 0.450840 0.205435
Cu1   Cu    Cu3+1 0.491940 0.395330 0.493960 1.001370
Cu2   Cu    Cu3+1 0.508060 0.604670 0.506040 0.964355
H1    H     H_    0.902734 0.365457 0.252570 0.141320
H2    H     H_    0.300307 0.647956 0.741521 0.175913
H3    H     H_    0.181428 0.694290 0.670567 0.196346
H4    H     H_    0.088175 0.789141 0.819405 0.155716
H5    H     H_    0.252946 0.827838 0.812180 0.132061
H6    H     H_    0.201003 0.736741 0.894471 0.139462
H7    H     H_    0.988513 0.213028 0.292624 0.125399
H8    H     H_    0.900251 0.249742 0.398715 0.116476
H9    H     H_    0.142710 0.125995 0.375541 0.170745
H10   H     H_    0.080640 0.171788 0.492617 0.168912
H11   H     H_    0.880947 0.064023 0.453146 0.143224
H12   H     H_    0.043458 0.455134 0.254999 0.156827
H13   H     H_    0.012516 0.981472 0.432845 0.148963
H14   H     H_    0.934760 0.022822 0.330529 0.139046
H15   H     H_    0.890094 0.705034 0.761832 0.118256
H16   H     H_    0.788111 0.620243 0.678462 0.120766
H17   H     H_    0.844271 0.862155 0.680068 0.161622
H18   H     H_    0.728764 0.779384 0.607047 0.204416
H19   H     H_    0.621025 0.740390 0.765784 0.170229
H20   H     H_    0.625524 0.877859 0.746784 0.162581
H21   H     H_    0.734319 0.835223 0.830760 0.129620
H22   H     H_    0.909348 0.403880 0.747788 0.160777
H23   H     H_    0.789867 0.478838 0.156340 0.179369
H24   H     H_    0.763806 0.412136 0.683436 0.145697
H25   H     H_    0.799057 0.290315 0.726622 0.137904
H26   H     H_    0.834498 0.270965 0.551525 0.144735
H27   H     H_    0.982517 0.273009 0.614640 0.161831
H28   H     H_    0.224288 0.608863 0.333747 0.163252
H29   H     H_    0.084600 0.647748 0.277707 0.155836
H30   H     H_    0.207318 0.746001 0.320076 0.138074
H31   H     H_    0.013172 0.742570 0.428841 0.175341
H32   H     H_    0.161236 0.735478 0.488181 0.155690
H33   H     H_    0.463778 0.249251 0.986365 0.145469
H34   H     H_    0.924836 0.571487 0.159805 0.162846
H35   H     H_    0.453330 0.304257 0.873389 0.174261
H36   H     H_    0.576762 0.218184 0.891434 0.142371
H37   H     H_    0.662208 0.406719 0.912197 0.139035
H38   H     H_    0.671675 0.350138 0.022089 0.137267
H39   H     H_    0.548226 0.737218 0.066343 0.161150
H40   H     H_    0.471357 0.748959 0.952278 0.147875
H41   H     H_    0.396043 0.791990 0.065918 0.136138
H42   H     H_    0.300385 0.616393 0.988349 0.126065
H43   H     H_    0.369571 0.609555 0.103334 0.147701
H44   H     H_    0.339157 0.000048 0.738822 0.153255
H45   H     H_    0.050896 0.429680 0.070781 0.148658
H46   H     H_    0.344522 0.884092 0.652116 0.122262
H47   H     H_    0.229469 0.095170 0.620252 0.181988
H48   H     H_    0.229812 0.978118 0.530872 0.148868
H49   H     H_    0.102195 0.874522 0.639769 0.188094
H50   H     H_    0.024892 0.990762 0.616761 0.146087
H51   H     H_    0.102926 0.990155 0.731771 0.144886
H52   H     H_    0.699638 0.993570 0.282788 0.149811
H53   H     H_    0.687147 0.106201 0.372129 0.110383
H54   H     H_    0.520401 0.033238 0.189169 0.158090
H55   H     H_    0.478545 0.138248 0.281390 0.179357
H56   H     H_    0.911593 0.449531 0.003479 0.138096
H57   H     H_    0.680858 0.241326 0.257008 0.163627
H58   H     H_    0.590584 0.210656 0.145860 0.152128
H59   H     H_    0.724901 0.135845 0.164247 0.127856
H60   H     H_    0.915395 0.335777 0.067666 0.142538
H61   H     H_    0.150820 0.540850 0.823711 0.137528
H62   H     H_    0.017856 0.587281 0.773449 0.120239
N1    N     N_1   0.479830 0.238040 0.484880 -0.211752
N2    N     N_1   0.520170 0.761960 0.515120 -0.224281
O1    O     O_R   0.492210 0.399110 0.356330 -0.495797
O2    O     O_3   0.123595 0.487075 0.680053 -0.572579
O3    O     O_3   0.080434 0.328946 0.388424 -0.576055
O4    O     O_3   0.952271 0.691826 0.620566 -0.602152
O5    O     O_3   0.456234 0.020524 0.625463 -0.606253
O6    O     O_3   0.547701 0.979438 0.371587 -0.601007
O7    O     O_R   0.507790 0.600890 0.643670 -0.527425
O8    O     O_R   0.505820 0.575890 0.366540 -0.478388
O9    O     O_R   0.494180 0.424110 0.633460 -0.479664
O10   O     O_R   0.310050 0.411620 0.494870 -0.440441
O11   O     O_R   0.689950 0.588380 0.505130 -0.473824
O12   O     O_R   0.323660 0.588400 0.505080 -0.528198
O13   O     O_R   0.676340 0.411600 0.494920 -0.512603
O14   O     O_3   0.887794 0.512165 0.333392 -0.563273

loop_
_geom_bond_atom_site_label_1
_geom_bond_atom_site_label_2
_ccdc_geom_bond_type
C43   H57   S    
C22   O3    S    
Cu1   N1    S    
C23   C45   S    
C35   H35   S    
C41   C42   S    
C28   H19   S    
Cu2   O8    S    
C16   H1    S    
C22   H7    S    
C2    O4    S    
C29   H26   S    
C19   H62   S    
C5    C47   S    
C26   C27   S    
C31   H32   S    
C6    C48   S    
C37   H40   S    
C7    C29   S    
C36   C37   S    
C33   H38   S    
C21   H4    S    
C30   H24   S    
C35   H36   S    
C39   H47   S    
Cu1   O9    S    
C3    C48   S    
C41   H52   S    
C25   H13   S    
C1    O8    A    
C27   H18   S    
C40   H51   S    
C11   C15   S    
C36   H43   S    
C12   O7    A    
C19   C20   S    
C16   C17   S    
Cu2   O12   S    
C36   H42   S    
C44   N2    T    
C13   C14   S    
C17   H23   S    
C18   H45   S    
C26   H15   S    
C46   O10   A    
Cu2   O7    S    
C16   H12   S    
C40   H49   S    
C4    C7    S    
C42   H55   S    
C46   O12   A    
C47   O11   A    
Cu1   O13   S    
C28   H20   S    
C37   H41   S    
C26   H16   S    
C26   O4    S    
C34   C44   S    
C24   C25   S    
C4    C6    S    
C3    C8    S    
C10   C14   T    
C23   O6    S    
C5    C7    S    
C35   H33   S    
C3    O14   S    
C39   H48   S    
C6    C8    S    
Cu1   O10   S    
C41   H53   S    
Cu2   N2    S    
C25   H14   S    
C2    C4    S    
C18   H56   S    
C13   C33   S    
C29   C30   S    
C32   H30   S    
C31   C32   S    
C24   H10   S    
C23   C34   D    
C38   H44   S    
C17   C18   S    
Cu2   O11   S    
C25   H11   S    
C16   O14   S    
C22   H8    S    
C38   O5    S    
Cu1   O1    S    
C22   C24   S    
C28   H21   S    
C42   C43   S    
C39   C40   S    
C21   H5    S    
C34   O5    S    
C11   C36   S    
C6    C46   S    
C8    C31   S    
C4    O2    S    
C2    C8    S    
C1    C10   S    
C18   H60   S    
C20   H3    S    
C3    C5    S    
C42   H54   S    
C40   H50   S    
C21   H6    S    
C30   H22   S    
C47   O13   A    
C48   O3    S    
C19   H61   S    
C43   H59   S    
C31   H31   S    
C37   H39   S    
C17   H34   S    
C7    C48   S    
C33   H37   S    
C20   H2    S    
C32   H29   S    
C30   H25   S    
C11   C13   D    
C38   C39   S    
C12   O9    A    
C19   O2    S    
C24   H9    S    
C33   C35   S    
C43   H58   S    
C41   O6    S    
C9    C15   T    
C9    C12   S    
C27   H17   S    
C32   H28   S    
C2    C5    S    
C45   N1    T    
C29   H27   S    
C20   C21   S    
Cu1   Cu2   S    
C38   H46   S    
C27   C28   S    
C1    O1    A    
