data_mof_unit_46319.cif
_audit_creation_date              2012-12-10T17:22:12-0500
_audit_creation_method            fapswitch 2.2
_symmetry_space_group_name_H-M    P1
_symmetry_Int_Tables_number       1
_space_group_crystal_system       triclinic
_cell_length_a                    15.84714
_cell_length_b                    10.821279
_cell_length_c                    9.576128
_cell_angle_alpha                 90.137251
_cell_angle_beta                  90.437201
_cell_angle_gamma                 92.498193
_cell_volume                      1640.56037382

loop_
_atom_site_label
_atom_site_type_symbol
_atom_type_description
_atom_site_fract_x
_atom_site_fract_y
_atom_site_fract_z
_atom_type_partial_charge
C1    C     C_R   0.506430 0.262778 0.500587 0.792072
C2    C     C_R   0.539003 0.057089 0.883646 -0.251358
C3    C     C_R   0.492008 0.945918 0.889336 -0.184709
C4    C     C_R   0.340207 0.499980 0.499468 0.822357
C5    C     C_R   0.462862 0.888073 0.766438 0.472334
C6    C     C_R   0.487867 0.938390 0.634085 -0.037755
C7    C     C_R   0.517455 0.062870 0.631150 0.044207
C8    C     C_R   0.512400 0.128270 0.503271 -0.094602
C9    C     C_R   0.500648 0.063018 0.377846 -0.211421
C10   C     C_R   0.491981 0.935559 0.378742 -0.218269
C11   C     C_R   0.486387 0.871478 0.505498 -0.119053
C12   C     C_3   0.951037 0.448235 0.639664 -0.455672
C13   C     C_R   0.610881 0.666993 0.145731 -0.151525
C14   C     C_R   0.664086 0.749546 0.073997 -0.218144
C15   C     C_R   0.664349 0.748869 0.930190 -0.212476
C16   C     C_R   0.493389 0.737175 0.501090 0.790621
C17   C     C_R   0.611172 0.666015 0.857235 -0.123903
C18   C     C_R   0.554493 0.581908 0.925908 0.230242
C19   C     C_R   0.554413 0.582096 0.075645 0.203566
C20   C     C_R   0.448406 0.421766 0.073084 -0.079799
C21   C     C_R   0.448424 0.421800 0.925055 -0.073113
C22   C     C_R   0.659640 0.499943 0.500553 0.795770
C23   C     C_3   0.916905 0.501422 0.500946 0.211062
C24   C     C_3   0.048740 0.450480 0.638234 -0.406713
C25   C     C_3   0.045224 0.421540 0.377207 -0.424370
C26   C     C_3   0.947105 0.421425 0.376859 0.350501
C27   C     C_1   0.749145 0.499739 0.502315 -0.201607
C28   C     C_3   0.082461 0.503051 0.497969 0.230949
C29   C     C_3   0.896716 0.812710 0.383264 0.061996
C30   C     C_3   0.805359 0.813348 0.435513 -0.371381
C31   C     C_3   0.772022 0.943553 0.435908 -0.924794
C32   C     C_3   0.326954 0.811629 0.721347 0.103085
C33   C     C_3   0.257152 0.779734 0.826576 -0.372572
C34   C     C_3   0.953664 0.636709 0.485714 0.256513
C35   C     C_3   0.256554 0.644502 0.872172 -0.732141
C36   C     C_3   0.888089 0.246257 0.260245 0.018181
C37   C     C_3   0.795500 0.272518 0.229028 -0.325935
C38   C     C_3   0.764754 0.210231 0.093700 -0.927973
C39   C     C_3   0.051784 0.636287 0.479734 -0.438215
C40   C     C_1   0.824682 0.500193 0.503067 -0.032295
C41   C     C_1   0.174772 0.502962 0.497177 -0.073160
C42   C     C_1   0.250428 0.501659 0.497855 -0.214190
C43   C     C_R   0.550259 0.116860 0.756139 -0.161396
Cu1   Cu    Cu3+1 0.499990 0.499990 0.640660 0.946649
Cu2   Cu    Cu3+1 0.500010 0.500010 0.359340 0.925007
H1    H     H_    0.925769 0.351713 0.655126 0.219906
H2    H     H_    0.070469 0.355028 0.654024 0.180556
H3    H     H_    0.617337 0.673978 0.255785 0.199666
H4    H     H_    0.705909 0.814035 0.130611 0.156158
H5    H     H_    0.706329 0.812762 0.874387 0.151245
H6    H     H_    0.617502 0.672407 0.747327 0.191045
H7    H     H_    0.406162 0.357760 0.868914 0.141610
H8    H     H_    0.069191 0.457074 0.275286 0.129147
H9    H     H_    0.066788 0.325448 0.388184 0.187578
H10   H     H_    0.925813 0.466269 0.278388 0.104567
H11   H     H_    0.079304 0.697334 0.563677 0.133620
H12   H     H_    0.074193 0.508229 0.726614 0.171469
H13   H     H_    0.074677 0.674830 0.378492 0.191037
H14   H     H_    0.936025 0.687942 0.582047 0.076801
H15   H     H_    0.900075 0.860648 0.280860 0.162095
H16   H     H_    0.940506 0.866066 0.455073 0.122081
H17   H     H_    0.764167 0.753319 0.366917 0.224413
H18   H     H_    0.801882 0.775820 0.543272 0.200655
H19   H     H_    0.812460 0.005911 0.503103 0.267450
H20   H     H_    0.706632 0.940660 0.477168 0.262674
H21   H     H_    0.770786 0.980933 0.328091 0.252617
H22   H     H_    0.316942 0.753587 0.626359 0.140645
H23   H     H_    0.929582 0.503578 0.729818 0.156160
H24   H     H_    0.319966 0.909992 0.689583 0.068805
H25   H     H_    0.266095 0.840163 0.920054 0.206469
H26   H     H_    0.194910 0.798464 0.778567 0.159790
H27   H     H_    0.245847 0.582361 0.780927 0.243500
H28   H     H_    0.204646 0.626284 0.947623 0.205289
H29   H     H_    0.317260 0.623554 0.923871 0.279958
H30   H     H_    0.894007 0.144556 0.267522 0.166500
H31   H     H_    0.929851 0.278179 0.173036 0.120513
H32   H     H_    0.755397 0.237891 0.316593 0.231773
H33   H     H_    0.788217 0.373806 0.219634 0.219968
H34   H     H_    0.498891 0.110271 0.278310 0.160422
H35   H     H_    0.803092 0.245084 0.004288 0.255420
H36   H     H_    0.697743 0.231470 0.074353 0.257535
H37   H     H_    0.769247 0.108309 0.101144 0.247038
H38   H     H_    0.586764 0.203594 0.756473 0.173846
H39   H     H_    0.563396 0.099859 0.978860 0.158236
H40   H     H_    0.477135 0.904953 0.989747 0.152795
H41   H     H_    0.489102 0.887298 0.279441 0.167523
H42   H     H_    0.406146 0.357686 0.127754 0.137512
N1    N     N_R   0.500800 0.501210 0.147910 -0.195093
N2    N     N_R   0.500820 0.501290 0.852040 -0.187038
O1    O     O_R   0.499990 0.319640 0.618810 -0.590084
O2    O     O_3   0.406674 0.787319 0.780946 -0.571402
O3    O     O_3   0.913211 0.298144 0.390702 -0.615012
O4    O     O_R   0.500000 0.319660 0.381240 -0.582183
O5    O     O_R   0.379430 0.499990 0.618840 -0.561261
O6    O     O_R   0.379440 0.500020 0.381260 -0.571701
O7    O     O_R   0.500000 0.680340 0.618760 -0.554549
O8    O     O_R   0.500010 0.680360 0.381190 -0.608159
O9    O     O_R   0.620560 0.499980 0.618740 -0.600781
O10   O     O_R   0.620570 0.500010 0.381160 -0.591950
O11   O     O_3   0.921448 0.689976 0.361566 -0.623448

loop_
_geom_bond_atom_site_label_1
_geom_bond_atom_site_label_2
_ccdc_geom_bond_type
C31   H21   S    
C35   H29   S    
C1    O1    A    
C22   O9    A    
C3    H40   S    
C1    C8    S    
C43   H38   S    
C41   C42   T    
C2    H39   S    
Cu2   O4    S    
C26   H10   S    
C17   H6    S    
C7    C8    A    
C21   N2    A    
C25   C28   S    
C12   H23   S    
C12   C23   S    
C29   C30   S    
C38   H35   S    
C36   C37   S    
C25   H8    S    
C5    C6    A    
C16   O8    A    
C15   H5    S    
C14   H4    S    
C26   O3    S    
C23   C40   S    
C20   H42   S    
C28   C41   S    
C31   H20   S    
C18   C19   A    
C9    H34   S    
C23   C26   S    
C36   H31   S    
Cu1   O9    S    
C35   H28   S    
C24   H12   S    
C34   O11   S    
C7    C43   A    
C9    C10   A    
C27   C40   T    
C36   O3    S    
C13   C14   A    
C38   H37   S    
C24   H2    S    
C29   H16   S    
C16   O7    A    
C13   C19   A    
C34   C39   S    
Cu2   N1    S    
C25   H9    S    
C12   H1    S    
C19   N1    A    
Cu2   O10   S    
C6    C11   A    
C8    C9    A    
C28   C39   S    
C25   C26   S    
C39   H13   S    
C37   H32   S    
C37   C38   S    
Cu1   O7    S    
C36   H30   S    
C4    O6    A    
C11   C16   S    
C39   H11   S    
C29   H15   S    
C2    C43   A    
C23   C34   S    
C17   C18   A    
C5    O2    S    
C33   H25   S    
C32   H22   S    
C4    O5    A    
C35   H27   S    
C22   C27   S    
C30   H17   S    
C38   H36   S    
C34   H14   S    
Cu2   O6    S    
Cu1   O1    S    
Cu1   Cu2   S    
C15   C17   A    
C10   H41   S    
C22   O10   A    
C29   O11   S    
C18   N2    A    
C31   H19   S    
C32   H24   S    
C24   C28   S    
C3    C5    A    
C13   H3    S    
C6    C7    A    
C37   H33   S    
C12   C24   S    
C32   C33   S    
C2    C3    A    
Cu2   O8    S    
C30   C31   S    
C4    C42   S    
C20   N1    A    
C33   C35   S    
Cu1   O5    S    
C10   C11   A    
C33   H26   S    
C32   O2    S    
C20   C21   A    
C1    O4    A    
C14   C15   A    
C30   H18   S    
C21   H7    S    
Cu1   N2    S    
