data_mof_unit_28458.cif
_audit_creation_date              2013-03-05T15:53:44-0500
_audit_creation_method            fapswitch 2.2
_symmetry_space_group_name_H-M    P1
_symmetry_Int_Tables_number       1
_space_group_crystal_system       triclinic
_cell_length_a                    14.882604
_cell_length_b                    14.799938
_cell_length_c                    17.048424
_cell_angle_alpha                 109.087959
_cell_angle_beta                  106.063826
_cell_angle_gamma                 108.175018
_cell_volume                      3057.0079446

loop_
_atom_site_label
_atom_site_type_symbol
_atom_site_description
_atom_site_fract_x
_atom_site_fract_y
_atom_site_fract_z
_atom_type_partial_charge
C1    C     C_R   0.089273 0.275136 0.051024 -0.150336
H1    H     H_    0.167704 0.292440 0.091957 0.102360
N1    N     N_R   0.055640 0.348550 0.045600 -0.043814
C2    C     C_R   0.935603 0.511905 0.743709 -0.157675
H2    H     H_    0.856921 0.486831 0.696898 0.131553
N2    N     N_R   0.960830 0.507850 0.823710 -0.068298
C3    C     C_R   0.768612 0.200352 0.811018 -0.125218
H3    H     H_    0.749591 0.134189 0.826637 0.096006
N3    N     N_R   0.811290 0.303400 0.871650 -0.042031
C4    C     C_R   0.251902 0.527232 0.943669 -0.090068
H4    H     H_    0.255508 0.552679 0.892135 0.142900
N4    N     N_R   0.205180 0.552990 0.997660 -0.025184
C5    C     C_R   0.777926 0.297395 0.734921 -0.123341
H5    H     H_    0.771716 0.323411 0.682532 0.090334
N5    N     N_R   0.814810 0.361830 0.823710 -0.040783
C6    C     C_R   0.256412 0.439868 0.027747 -0.123815
H6    H     H_    0.274992 0.393101 0.060492 0.092268
N6    N     N_R   0.201660 0.494570 0.045600 -0.046028
C7    C     C_R   0.107843 0.604396 0.823805 0.463890
N7    N     N_R   0.068420 0.560530 0.871650 -0.097009
C8    C     C_R   0.916859 0.191929 0.975160 -0.131937
H7    H     H_    0.837035 0.134043 0.947463 0.096418
N8    N     N_R   0.948050 0.295860 0.997660 -0.043716
C9    C     C_R   0.004245 0.174473 0.001361 0.124095
C10   C     C_R   0.026429 0.569805 0.740428 -0.104818
C11   C     C_R   0.751682 0.194596 0.724875 0.060919
C12   C     C_R   0.285940 0.456426 0.961187 0.021491
C13   C     C_R   0.272843 0.688908 0.252675 -0.144298
H8    H     H_    0.295850 0.651362 0.294028 0.093789
N9    N     N_R   0.185190 0.638170 0.176290 -0.047989
C14   C     C_R   0.704257 0.499997 0.918339 -0.160719
H9    H     H_    0.681375 0.522086 0.864264 0.124989
N10   N     N_R   0.798340 0.505430 0.954400 -0.045806
C15   C     C_R   0.889523 0.466221 0.187316 -0.128759
H10   H     H_    0.807031 0.438207 0.169298 0.097239
N11   N     N_R   0.931580 0.439470 0.128350 -0.042405
C16   C     C_R   0.079310 0.808501 0.048023 -0.031980
H11   H     H_    0.158204 0.869774 0.091636 0.105260
N12   N     N_R   0.051950 0.704140 0.002340 -0.024651
C17   C     C_R   0.906899 0.723776 0.971638 -0.024884
H12   H     H_    0.825315 0.705809 0.944422 0.145039
N13   N     N_R   0.944360 0.651450 0.954400 -0.046797
C18   C     C_R   0.063397 0.550583 0.263754 -0.125041
H13   H     H_    0.142197 0.600019 0.315262 0.096933
N14   N     N_R   0.039170 0.492150 0.176290 -0.043796
C19   C     C_R   0.278379 0.786565 0.178139 -0.089750
H14   H     H_    0.307748 0.843170 0.154102 0.119167
N15   N     N_R   0.188710 0.696600 0.128350 -0.033180
C20   C     C_R   0.698240 0.406530 0.996784 -0.133098
H15   H     H_    0.669834 0.345047 0.016828 0.089940
N16   N     N_R   0.794820 0.447010 0.002340 -0.042395
Ni1   Ni    Ni4+2 0.119330 0.493420 0.109950 0.207721
Ni2   Ni    Ni4+2 0.880670 0.506580 0.890050 0.235200
Ni3   Ni    Ni4+2 0.872590 0.372590 0.000000 0.209916
Ni4   Ni    Ni4+2 0.127410 0.627410 0.000000 0.309898
C21   C     C_R   0.334173 0.782910 0.255847 0.036752
C22   C     C_R   0.639074 0.438121 0.943547 0.074531
C23   C     C_R   0.970850 0.537897 0.273189 0.058277
C24   C     C_R   0.989742 0.824447 0.031239 -0.047161
C25   C     C_R   0.388717 0.452965 0.867982 0.098932
C26   C     C_R   0.346156 0.412506 0.919974 0.055725
C27   C     C_R   0.377891 0.341727 0.944308 -0.190519
H16   H     H_    0.343285 0.302710 0.979214 0.129310
C28   C     C_R   0.467958 0.335917 0.938817 -0.187414
H17   H     H_    0.497862 0.291600 0.968944 0.127797
C29   C     C_R   0.526648 0.402137 0.910087 0.044928
C30   C     C_R   0.478188 0.447927 0.863233 0.134143
C31   C     C_3   0.519691 0.555216 0.865499 -0.482596
C32   C     C_3   0.422048 0.560824 0.870567 -0.417826
H18   H     H_    0.590900 0.616296 0.928854 0.207497
H19   H     H_    0.524399 0.550367 0.800392 0.216264
H20   H     H_    0.438825 0.625342 0.936718 0.225272
H21   H     H_    0.370539 0.558805 0.808112 0.215490
C33   C     C_R   0.962929 0.582904 0.360203 0.124009
C34   C     C_R   0.033679 0.598748 0.667154 0.164042
C35   C     C_R   0.137599 0.652393 0.589284 -0.227612
C36   C     C_R   0.128068 0.626467 0.658147 -0.075222
C37   C     C_R   0.945593 0.589952 0.601394 -0.223151
C38   C     C_R   0.951349 0.602009 0.524814 0.153844
C39   C     C_R   0.048807 0.635758 0.520383 0.172184
C40   C     C_R   0.054227 0.635994 0.440976 -0.252866
C41   C     C_R   0.865932 0.556849 0.365093 -0.174394
C42   C     C_R   0.860689 0.570249 0.448513 -0.189430
H22   H     H_    0.130231 0.662868 0.440454 0.116437
H23   H     H_    0.794065 0.519930 0.304218 0.118691
H24   H     H_    0.211767 0.673494 0.584364 0.139970
H25   H     H_    0.785162 0.544873 0.450662 0.134900
H26   H     H_    0.193860 0.623307 0.701422 0.171660
H27   H     H_    0.871260 0.565867 0.605579 0.151251
C43   C     C_R   0.709487 0.098344 0.638615 0.107037
C44   C     C_R   0.442144 0.856630 0.322607 0.135511
C45   C     C_R   0.586560 0.032524 0.395684 -0.215247
C46   C     C_R   0.495410 0.952143 0.320630 -0.168597
C47   C     C_R   0.488582 0.837081 0.394963 -0.263434
C48   C     C_R   0.575702 0.919193 0.472405 0.158251
C49   C     C_R   0.622093 0.019141 0.474137 0.188584
C50   C     C_R   0.693149 0.107237 0.556963 -0.269290
C51   C     C_R   0.673974 0.996799 0.635336 -0.135723
C52   C     C_R   0.608487 0.906928 0.551872 -0.180190
H28   H     H_    0.725254 0.183934 0.557571 0.117553
H29   H     H_    0.690190 0.986647 0.696906 0.142956
H30   H     H_    0.622802 0.108446 0.395706 0.126971
H31   H     H_    0.575386 0.829945 0.550959 0.153245
H32   H     H_    0.463835 0.968323 0.264418 0.114370
H33   H     H_    0.451609 0.762646 0.396547 0.118216
C53   C     C_R   0.100044 0.060881 0.984694 0.131242
C54   C     C_R   0.006073 0.069098 0.970787 -0.010985
C55   C     C_R   0.912727 0.973855 0.912255 -0.383519
H34   H     H_    0.837759 0.974228 0.900961 0.190239
C56   C     C_R   0.914959 0.879489 0.858983 0.508624
C57   C     C_R   0.010584 0.878488 0.865047 0.069752
C58   C     C_R   0.101920 0.967041 0.933729 0.069748
C59   C     C_3   0.199167 0.024672 0.927276 -0.303006
C60   C     C_3   0.196635 0.127330 0.981517 -0.597587
H35   H     H_    0.265957 0.014609 0.965734 0.202786
H36   H     H_    0.187013 0.009458 0.855920 0.199453
H37   H     H_    0.262987 0.177155 0.050399 0.193323
H38   H     H_    0.180931 0.170378 0.940759 0.209755
S1    S     S_3+6 0.797968 0.767454 0.776026 -0.068221
O1    O     O_2   0.715184 0.756918 0.811443 -0.324165
O2    O     O_2   0.763626 0.781453 0.690993 -0.293411
O3    O     O_3   0.816854 0.657198 0.751160 -0.573408
H39   H     H_    0.746702 0.597352 0.709332 0.354276
S2    S     S_3+6 0.222007 0.727484 0.878696 -0.093805
O4    O     O_2   0.310492 0.711350 0.860837 -0.351842
O5    O     O_2   0.200149 0.802535 0.843346 -0.314680
O6    O     O_3   0.258609 0.782706 0.991816 -0.581315
H40   H     H_    0.313477 0.855776 0.015315 0.355116

loop_
_geom_bond_atom_site_label_1
_geom_bond_atom_site_label_2
_geom_bond_distance
_ccdc_geom_bond_type
C4    C12   1.376983 A    
N15   Ni4   1.875069 S    
C42   H25   1.083642 S    
C47   H33   1.080097 S    
N1    N8    1.385620 A    
C48   C49   1.410194 A    
C22   C29   1.458017 S    
C50   H28   1.080785 S    
C2    C10   1.383896 A    
C13   C21   1.379436 A    
N6    Ni1   1.856954 S    
C3    H3    1.072019 S    
C53   C58   1.390300 A    
C16   H11   1.079565 S    
C3    C11   1.388363 A    
C53   C60   1.494180 S    
N5    Ni2   1.822407 S    
N9    N15   1.369752 A    
C13   H8    1.079060 S    
C15   H10   1.078866 S    
N13   Ni2   1.821345 S    
C48   C52   1.398845 A    
C53   C54   1.402981 A    
C45   C49   1.398205 A    
C20   C22   1.381944 A    
C55   H34   1.080555 S    
C1    H1    1.077455 S    
C56   C57   1.403219 A    
C27   C28   1.396056 A    
C12   C26   1.460308 S    
C18   C23   1.392572 A    
C21   C44   1.466229 S    
N12   Ni4   1.828432 S    
C7    N7    1.343369 A    
C25   C30   1.379414 A    
C6    H6    1.074182 S    
C20   N16   1.335755 A    
C54   C55   1.415584 A    
C14   N10   1.328926 A    
C32   H21   1.111494 S    
C43   C50   1.402379 A    
C45   H30   1.083982 S    
C59   H36   1.112187 S    
C6    C12   1.389776 A    
C17   N13   1.341716 A    
C29   C30   1.399150 A    
C17   C24   1.393910 A    
C8    H7    1.076238 S    
C47   C48   1.386130 A    
C33   C41   1.407078 A    
N7    Ni4   1.875299 S    
C46   H32   1.080568 S    
C58   C59   1.487833 S    
N12   N13   1.385621 A    
S1    O2    1.502730 D    
C37   H27   1.081800 S    
N10   Ni2   1.856956 S    
C19   N15   1.341526 A    
C7    S2    1.776320 S    
C30   C31   1.496391 S    
N4    Ni4   1.829318 S    
C35   C36   1.377836 A    
C36   H26   1.075455 S    
C2    N2    1.337522 A    
C52   H31   1.083991 S    
C37   C38   1.395852 A    
C31   C32   1.505362 S    
N14   Ni1   1.857241 S    
C41   C42   1.398080 A    
C25   C26   1.402390 A    
C1    N1    1.348703 A    
C28   C29   1.407124 A    
C32   H20   1.112255 S    
C18   H13   1.075332 S    
C27   H16   1.077817 S    
C44   C46   1.405229 A    
C18   N14   1.328864 A    
C14   H9    1.079608 S    
S1    O1    1.503408 D    
C49   C50   1.386182 A    
N11   N14   1.385618 A    
C9    C54   1.485679 S    
C60   H38   1.111714 S    
C34   C36   1.402242 A    
C16   C24   1.394199 A    
C4    N4    1.328955 A    
S2    O6    1.671503 S    
C6    N6    1.341517 A    
C17   H12   1.079979 S    
C20   H15   1.080200 S    
C8    N8    1.341157 A    
C5    C11   1.385076 A    
C11   C43   1.465258 S    
N2    Ni2   1.857239 S    
N4    N6    1.369634 A    
O6    H40   0.990702 S    
C41   H23   1.081598 S    
C35   H24   1.084573 S    
C40   H22   1.079338 S    
C23   C33   1.468922 S    
N8    Ni3   1.828432 S    
S2    O5    1.502485 D    
C59   C60   1.516899 S    
S1    O3    1.679588 S    
C3    N3    1.341320 A    
N9    Ni1   1.822406 S    
C19   H14   1.075191 S    
C57   C58   1.393023 A    
C35   C39   1.391233 A    
C39   C40   1.379315 A    
C56   S1    1.755998 S    
N1    Ni1   1.821346 S    
N10   N16   1.369633 A    
C51   H29   1.080831 S    
N2    N7    1.385618 A    
N16   Ni3   1.829317 S    
C28   H17   1.080748 S    
C14   C22   1.377777 A    
C5    N5    1.330982 A    
N3    N5    1.369754 A    
C16   N12   1.342890 A    
C44   C47   1.403342 A    
C38   C42   1.402380 A    
C25   C32   1.498034 S    
C31   H19   1.111849 S    
C13   N9    1.330655 A    
C45   C46   1.389165 A    
C55   C56   1.411561 A    
C15   N11   1.342245 A    
C26   C27   1.406020 A    
C7    C10   1.390911 A    
C34   C37   1.406102 A    
C60   H37   1.111560 S    
N11   Ni3   1.875296 S    
C4    H4    1.070768 S    
C38   C39   1.411496 A    
C2    H2    1.078830 S    
C1    C9    1.394152 A    
C31   H18   1.112290 S    
C51   C52   1.389138 A    
C8    C9    1.386099 A    
C19   C21   1.383341 A    
C15   C23   1.391475 A    
N3    Ni3   1.875072 S    
C33   C40   1.396671 A    
C10   C34   1.466765 S    
O3    H39   0.990470 S    
C5    H5    1.075159 S    
C43   C51   1.405074 A    
S2    O4    1.501481 D    
C59   H35   1.111619 S    
