data_mof_unit_62748.cif
_audit_creation_date              2013-03-05T15:58:37-0500
_audit_creation_method            fapswitch 2.2
_symmetry_space_group_name_H-M    P1
_symmetry_Int_Tables_number       1
_space_group_crystal_system       triclinic
_cell_length_a                    18.830989
_cell_length_b                    18.839559
_cell_length_c                    18.812761
_cell_angle_alpha                 109.565483
_cell_angle_beta                  109.418113
_cell_angle_gamma                 109.6352
_cell_volume                      5124.70568174

loop_
_atom_site_label
_atom_site_type_symbol
_atom_site_description
_atom_site_fract_x
_atom_site_fract_y
_atom_site_fract_z
_atom_type_partial_charge
O1    O     O_R   0.590200 0.537990 0.447840 -0.549032
O2    O     O_R   0.590170 0.642360 0.552180 -0.565873
C1    C     C_R   0.617251 0.618764 0.498439 0.867327
O3    O     O_R   0.409840 0.447810 0.357640 -0.572627
O4    O     O_R   0.409810 0.552180 0.461990 -0.530524
C2    C     C_R   0.381151 0.499690 0.381064 0.854192
Cu1   Cu    Cu3+1 0.500020 0.438210 0.438220 1.081953
Cu2   Cu    Cu3+1 0.499980 0.561790 0.561780 1.117854
O5    O     O_R   0.409830 0.357640 0.447820 -0.595825
O6    O     O_R   0.409800 0.462010 0.552160 -0.540493
O7    O     O_R   0.590190 0.447820 0.538010 -0.580303
O8    O     O_R   0.590160 0.552190 0.642360 -0.578833
C3    C     C_R   0.379815 0.381100 0.498834 0.797616
C4    C     C_R   0.618778 0.500039 0.618952 0.808324
H1    H     H_    0.190237 0.119463 0.238647 0.204285
C5    C     C_R   0.244066 0.208704 0.198592 -0.164383
H2    H     H_    0.267652 0.170021 0.167704 0.196475
C6    C     C_R   0.256949 0.286345 0.197436 0.386680
C7    C     C_R   0.225463 0.335466 0.239451 0.020368
C8    C     C_R   0.181102 0.304889 0.279248 -0.138313
H3    H     H_    0.156148 0.341393 0.310632 0.200357
C9    C     C_R   0.167999 0.227138 0.278359 -0.098169
H4    H     H_    0.133308 0.203967 0.308839 0.182679
C10   C     C_R   0.199940 0.179457 0.238658 -0.113878
C11   C     C_R   0.175007 0.420342 0.180326 0.345171
C12   C     C_R   0.186650 0.500306 0.185654 -0.198111
C13   C     C_R   0.262567 0.579812 0.254917 -0.022575
C14   C     C_R   0.327214 0.578961 0.317947 0.271504
C15   C     C_R   0.314637 0.499416 0.313660 -0.153290
C16   C     C_R   0.238938 0.419856 0.244696 -0.089068
C17   C     C_R   0.317405 0.702149 0.227787 -0.131814
H5    H     H_    0.340578 0.668025 0.191010 0.204882
C18   C     C_R   0.331077 0.783073 0.237766 -0.207654
H6    H     H_    0.364782 0.810776 0.208747 0.204794
C19   C     C_R   0.303340 0.829172 0.286288 0.246627
C20   C     C_R   0.260559 0.793635 0.325318 0.267307
C21   C     C_R   0.244906 0.710461 0.313346 0.154660
C22   C     C_R   0.273949 0.665058 0.264729 0.030913
C23   C     C_R   0.753565 0.756851 0.576233 -0.237546
H7    H     H_    0.757806 0.762046 0.636843 0.206237
C24   C     C_R   0.818706 0.822266 0.578641 0.313432
C25   C     C_R   0.813022 0.814389 0.499318 -0.287993
C26   C     C_R   0.740616 0.742730 0.418614 0.256905
C27   C     C_R   0.674658 0.678604 0.417450 0.217778
C28   C     C_R   0.682485 0.685482 0.496785 -0.190551
C29   C     C_R   0.682522 0.508266 0.760989 -0.192317
H8    H     H_    0.630473 0.514889 0.769491 0.197905
C30   C     C_R   0.746264 0.508423 0.825676 0.307919
C31   C     C_R   0.814240 0.500157 0.814013 -0.243570
C32   C     C_R   0.817808 0.493038 0.737937 0.313554
C33   C     C_R   0.752851 0.492877 0.674501 -0.191665
H9    H     H_    0.754606 0.486827 0.615829 0.198158
C34   C     C_R   0.685682 0.500318 0.685852 -0.138824
C35   C     C_R   0.241635 0.322917 0.502692 0.246671
C36   C     C_R   0.178077 0.257579 0.501924 -0.198983
H10   H     H_    0.123456 0.263473 0.504170 0.183475
C37   C     C_R   0.185412 0.185601 0.499809 -0.058686
C38   C     C_R   0.255559 0.177547 0.496602 -0.088060
H11   H     H_    0.261128 0.121493 0.494227 0.194361
C39   C     C_R   0.317880 0.241070 0.494426 -0.197709
H12   H     H_    0.371672 0.233875 0.491332 0.183539
C40   C     C_R   0.311931 0.314367 0.498350 -0.094393
O9    O     O_R   0.947830 0.537990 0.090130 -0.563310
O10   O     O_R   0.052220 0.642350 0.090110 -0.576599
C41   C     C_R   0.998611 0.619005 0.117245 0.867557
O11   O     O_R   0.038000 0.447810 0.090170 -0.547497
O12   O     O_R   0.142390 0.552170 0.090150 -0.592904
C42   C     C_R   0.119037 0.500425 0.119153 0.847129
Cu3   Cu    Cu3+1 0.938210 0.438200 0.999980 1.164424
Cu4   Cu    Cu3+1 0.061840 0.561770 0.999960 1.117434
O13   O     O_R   0.947830 0.357620 0.909840 -0.542515
O14   O     O_R   0.052230 0.461980 0.909820 -0.546342
O15   O     O_R   0.857660 0.447800 0.909790 -0.549560
O16   O     O_R   0.962050 0.552160 0.909780 -0.544436
C43   C     C_R   0.000116 0.381004 0.881319 0.908346
C44   C     C_R   0.881144 0.499890 0.880979 0.914865
O17   O     O_R   0.052180 0.909730 0.461910 -0.545608
O18   O     O_R   0.947800 0.909770 0.357550 -0.537152
C45   C     C_R   0.999511 0.880758 0.380968 0.906659
O19   O     O_R   0.962000 0.909720 0.552080 -0.538497
O20   O     O_R   0.857620 0.909750 0.447720 -0.558191
C46   C     C_R   0.880986 0.881226 0.499913 0.905788
Cu5   Cu    Cu3+1 0.061800 0.999890 0.561700 1.144034
Cu6   Cu    Cu3+1 0.938200 0.999930 0.438120 1.126127
O21   O     O_R   0.052200 0.090060 0.642270 -0.557578
O22   O     O_R   0.947820 0.090090 0.537910 -0.597481
O23   O     O_R   0.142380 0.090070 0.552100 -0.586015
O24   O     O_R   0.038000 0.090100 0.447740 -0.567275
C47   C     C_R   0.000228 0.118894 0.618926 0.825893
C48   C     C_R   0.118868 0.118516 0.499738 0.808751
C49   C     C_R   0.001849 0.760749 0.177689 0.249441
C50   C     C_R   0.003218 0.825240 0.243596 0.293306
C51   C     C_R   0.999643 0.814569 0.313374 -0.212449
C52   C     C_R   0.993298 0.739167 0.316292 0.303846
C53   C     C_R   0.991431 0.675497 0.250523 -0.184764
H13   H     H_    0.986819 0.617702 0.253371 0.212816
C54   C     C_R   0.997050 0.686231 0.182280 -0.179079
C55   C     C_R   0.078658 0.314655 0.828110 0.259737
C56   C     C_R   0.078008 0.249867 0.764153 -0.158332
H14   H     H_    0.138457 0.250455 0.774846 0.191442
C57   C     C_R   0.000234 0.185537 0.686127 -0.107988
C58   C     C_R   0.922279 0.184704 0.672525 -0.139026
H15   H     H_    0.861816 0.134327 0.612442 0.191575
C59   C     C_R   0.921369 0.247549 0.736773 0.263776
C60   C     C_R   0.000056 0.313752 0.814634 -0.138588
Br1   Br    Br    0.330844 0.942958 0.301834 -0.339755
N1    N     N_R   0.235514 0.842519 0.378645 0.153280
O25   O     O_R   0.196691 0.881830 0.352690 -0.331008
O26   O     O_R   0.256657 0.852890 0.456124 -0.245941
Br2   Br    Br    0.181939 0.657152 0.360801 -0.371118
N2    N     N_R   0.887868 0.897488 0.661701 0.155492
O27   O     O_R   0.917820 0.888985 0.729587 -0.284658
O28   O     O_R   0.911168 0.975458 0.672875 -0.345284
N3    N     N_R   0.735000 0.733903 0.337829 0.167000
O29   O     O_R   0.794669 0.727826 0.320291 -0.323439
O30   O     O_R   0.672093 0.735368 0.283170 -0.257047
Br3   Br    Br    0.573864 0.583080 0.307002 -0.268981
N4    N     N_R   0.742540 0.520111 0.903686 0.149232
O31   O     O_R   0.667479 0.486969 0.899487 -0.289036
O32   O     O_R   0.812416 0.574581 0.979852 -0.338446
N5    N     N_R   0.885619 0.484751 0.723158 0.149652
O33   O     O_R   0.912035 0.434243 0.741207 -0.341635
O34   O     O_R   0.912845 0.518363 0.680720 -0.291882
Br4   Br    Br    0.226299 0.419502 0.505613 -0.429514
Br5   Br    Br    0.006137 0.775978 0.082318 -0.293021
N6    N     N_R   0.012157 0.903213 0.241691 0.154653
O35   O     O_R   0.952057 0.899127 0.178272 -0.262943
O36   O     O_R   0.079053 0.978781 0.304907 -0.357511
Br6   Br    Br    0.983121 0.717511 0.406296 -0.314534
Br7   Br    Br    0.187959 0.400485 0.933908 -0.335858
N7    N     N_R   0.303329 0.314472 0.155657 0.148328
O37   O     O_R   0.294403 0.367717 0.128602 -0.275076
O38   O     O_R   0.351700 0.282928 0.140027 -0.298075
Br8   Br    Br    0.811139 0.240753 0.713449 -0.369912
N8    N     N_R   0.100158 0.339150 0.107492 0.144295
O39   O     O_R   0.086204 0.317099 0.028746 -0.302219
O40   O     O_R   0.045515 0.287419 0.119626 -0.309125
Br9   Br    Br    0.434906 0.687281 0.407571 -0.390518

loop_
_geom_bond_atom_site_label_1
_geom_bond_atom_site_label_2
_geom_bond_distance
_ccdc_geom_bond_type
O11   C42   1.294880 A    
C36   H10   1.083777 S    
O9    C41   1.295186 A    
C57   C58   1.397401 A    
C24   C25   1.412523 A    
O24   C48   1.293582 A    
Cu5   O23   1.968940 S    
C53   H13   1.083765 S    
C25   C46   1.456568 S    
O20   C46   1.292888 A    
N8    O39   1.300709 A    
C23   C24   1.391119 A    
Cu1   O7    1.971422 S    
C4    C34   1.451929 S    
C12   C13   1.414300 A    
C21   C22   1.410791 A    
C55   C60   1.409296 A    
C59   Br8   1.922432 S    
C14   C15   1.405772 A    
Cu6   O22   1.968160 S    
C45   C51   1.453992 S    
O3    Cu1   1.973043 S    
C26   N3    1.435491 S    
O4    C2    1.293692 A    
Cu2   O6    1.967905 S    
O7    C4    1.293069 A    
O11   Cu3   1.971909 S    
O17   Cu5   1.968163 S    
C13   C22   1.484272 S    
C38   C39   1.389964 A    
C55   C56   1.390756 A    
C39   C40   1.402142 A    
C6    C7    1.422375 A    
Cu3   O13   1.969254 S    
O5    C3    1.296282 A    
N4    O31   1.301390 A    
C58   H15   1.083646 S    
C29   H8    1.083921 S    
C3    C40   1.455780 S    
O9    Cu3   1.968467 S    
C5    H2    1.082372 S    
Cu4   O16   1.971810 S    
N1    O25   1.300056 A    
C17   C18   1.392206 A    
Cu3   O15   1.972562 S    
O10   Cu4   1.969375 S    
C23   C28   1.395585 A    
C47   C57   1.453047 S    
C5    C10   1.396103 A    
C20   N1    1.436917 S    
N1    O26   1.300907 A    
C6    N7    1.444208 S    
Cu3   Cu4   2.682964 S    
C32   N5    1.439886 S    
O19   Cu5   1.967941 S    
C59   C60   1.409942 A    
N3    O29   1.300832 A    
Cu1   O5    1.968785 S    
O17   C45   1.294472 A    
C29   C30   1.394865 A    
C52   Br6   1.922517 S    
C37   C48   1.449466 S    
O12   C42   1.291942 A    
Cu1   Cu2   2.683550 S    
C14   Br9   1.939210 S    
O19   C46   1.296122 A    
C23   H7    1.084241 S    
O21   C47   1.295005 A    
O18   C45   1.294136 A    
C30   N4    1.438594 S    
C35   C40   1.411135 A    
C38   H11   1.083579 S    
C1    C28   1.450440 S    
C33   H9    1.083965 S    
O22   C47   1.295155 A    
C39   H12   1.083548 S    
O1    C1    1.291407 A    
C19   C20   1.412959 A    
C26   C27   1.399441 A    
C15   C16   1.412015 A    
Cu5   Cu6   2.688257 S    
Cu2   O8    1.973042 S    
C55   Br7   1.922579 S    
C32   C33   1.394602 A    
N5    O33   1.300142 A    
C31   C44   1.458613 S    
N2    O28   1.301221 A    
C51   C52   1.406336 A    
C49   C54   1.409847 A    
C58   C59   1.389950 A    
C21   Br2   1.927607 S    
O16   C44   1.292262 A    
O3    C2    1.290763 A    
H1    C10   1.082546 S    
Cu5   O21   1.969760 S    
O8    C4    1.293643 A    
C43   C60   1.453493 S    
C36   C37   1.397453 A    
O15   C44   1.294753 A    
C9    C10   1.392489 A    
C25   C26   1.414349 A    
N7    O37   1.300733 A    
C49   C50   1.401046 A    
O20   Cu6   1.968938 S    
C27   C28   1.406223 A    
C11   C16   1.400467 A    
N8    O40   1.300769 A    
C35   Br4   1.922040 S    
C35   C36   1.390807 A    
C20   C21   1.414941 A    
N6    O36   1.301018 A    
C49   Br5   1.932234 S    
N2    O27   1.301390 A    
C56   C57   1.398070 A    
O1    Cu1   1.967907 S    
C17   H5    1.083403 S    
O2    Cu2   1.968784 S    
Cu6   O24   1.967941 S    
C8    C9    1.394536 A    
N7    O38   1.301578 A    
O6    C3    1.292075 A    
C50   N6    1.435474 S    
O4    Cu2   1.971422 S    
N3    O30   1.300948 A    
C53   C54   1.396482 A    
C17   C22   1.400015 A    
O12   Cu4   1.972563 S    
C12   C42   1.459779 S    
O10   C41   1.291413 A    
C7    C8    1.404102 A    
O2    C1    1.293836 A    
C11   C12   1.410642 A    
C41   C54   1.453599 S    
C19   Br1   1.918944 S    
C56   H14   1.083577 S    
O13   C43   1.292074 A    
O14   C43   1.293835 A    
C37   C38   1.397547 A    
C27   Br3   1.932931 S    
N6    O35   1.300895 A    
C30   C31   1.417305 A    
C29   C34   1.394352 A    
C50   C51   1.412304 A    
C18   C19   1.396876 A    
C18   H6    1.082533 S    
C52   C53   1.385525 A    
C11   N8    1.437699 S    
N4    O32   1.300644 A    
N5    O34   1.301482 A    
O18   Cu6   1.969643 S    
C2    C15   1.453271 S    
C8    H3    1.082626 S    
C5    C6    1.408967 A    
C31   C32   1.418541 A    
C24   N2    1.438571 S    
O23   C48   1.294853 A    
C13   C14   1.397960 A    
C9    H4    1.082209 S    
Cu4   O14   1.968468 S    
C33   C34   1.394203 A    
C7    C16   1.486278 S    
