data_mof_unit_67717.cif
_audit_creation_date              2012-12-10T19:48:33-0500
_audit_creation_method            fapswitch 2.2
_symmetry_space_group_name_H-M    P1
_symmetry_Int_Tables_number       1
_space_group_crystal_system       triclinic
_cell_length_a                    11.570795
_cell_length_b                    11.015498
_cell_length_c                    9.770995
_cell_angle_alpha                 89.718411
_cell_angle_beta                  92.002445
_cell_angle_gamma                 87.198408
_cell_volume                      1243.11667271

loop_
_atom_site_label
_atom_site_type_symbol
_atom_type_description
_atom_site_fract_x
_atom_site_fract_y
_atom_site_fract_z
_atom_type_partial_charge
C1    C     C_R   0.507315 0.260197 0.501364 0.849835
C2    C     C_3   0.404952 0.059255 0.453154 0.417025
C3    C     C_3   0.487951 0.877718 0.492581 -0.375195
C4    C     C_3   0.513538 0.122327 0.505471 -0.373675
C5    C     C_3   0.411972 0.969312 0.574384 0.269971
C6    C     C_3   0.589140 0.030182 0.423318 0.252939
C7    C     C_3   0.500718 0.608500 0.048181 0.278270
C8    C     C_3   0.498764 0.392091 0.951154 0.296500
C9    C     C_3   0.411971 0.559362 0.947099 0.318286
C10   C     C_3   0.589112 0.441839 0.051851 0.265882
C11   C     C_3   0.588777 0.551100 0.949324 0.434762
C12   C     C_R   0.493529 0.739828 0.498309 0.864403
C13   C     C_3   0.410621 0.451634 0.046985 0.464829
C14   C     C_R   0.262628 0.501694 0.498806 0.793148
C15   C     C_R   0.737458 0.497823 0.503149 0.854506
C16   C     C_R   0.117998 0.726091 0.085110 0.248253
C17   C     C_R   0.920738 0.179325 0.834436 0.304611
C18   C     C_R   0.106862 0.694908 0.223624 0.349878
C19   C     C_R   0.927919 0.255119 0.719772 0.309814
C20   C     C_R   0.098670 0.572917 0.260464 -0.047265
C21   C     C_R   0.908290 0.381760 0.732235 -0.045210
C22   C     C_R   0.107365 0.480069 0.163816 0.397028
C23   C     C_R   0.872112 0.499566 0.509621 -0.208296
C24   C     C_R   0.888577 0.434423 0.860760 0.441217
C25   C     C_R   0.118827 0.512031 0.026851 -0.191871
C26   C     C_R   0.892216 0.356674 0.975543 -0.320962
C27   C     C_R   0.110951 0.634320 0.983974 0.456299
C28   C     C_R   0.909677 0.231554 0.965097 0.364725
C29   C     C_R   0.929257 0.544437 0.397493 0.532722
C30   C     C_R   0.071199 0.462962 0.616171 0.587892
C31   C     C_3   0.036468 0.763822 0.805438 -0.094130
C32   C     C_3   0.991112 0.070900 0.094576 -0.147876
C33   C     C_3   0.341957 0.727241 0.826068 -0.054436
C34   C     C_R   0.127870 0.503871 0.500816 -0.256255
C35   C     C_3   0.668975 0.263003 0.134766 -0.121961
C36   C     C_3   0.617505 0.753996 0.137313 -0.118386
C37   C     C_3   0.375330 0.251291 0.861939 -0.081404
C38   C     C_3   0.223450 0.895571 0.100548 -0.225276
C39   C     C_3   0.816043 0.013862 0.815487 -0.235850
C40   C     C_3   0.986421 0.830124 0.335377 -0.248151
C41   C     C_3   0.062135 0.157380 0.585570 -0.181694
C42   C     C_3   0.154048 0.284101 0.239020 -0.063814
C43   C     C_3   0.853984 0.608341 0.999688 -0.083704
C44   C     C_3   0.544815 0.958328 0.846822 -0.268536
C45   C     C_R   0.947587 0.456788 0.620417 -0.014596
C46   C     C_3   0.458967 0.049238 0.154606 -0.266914
C47   C     C_3   0.231380 0.892920 0.553204 -0.262161
C48   C     C_3   0.775337 0.093464 0.423384 -0.224169
C49   C     C_R   0.052646 0.543381 0.391251 -0.052212
C50   C     C_3   0.520940 0.031436 0.628565 0.314091
C51   C     C_3   0.479759 0.968972 0.370147 0.358123
C52   C     C_3   0.596963 0.940676 0.545398 0.403594
Cu1   Cu    Cu3+1 0.500030 0.499990 0.643150 1.074674
Cu2   Cu    Cu3+1 0.499970 0.500010 0.356850 1.052496
F1    F     F_    0.657895 0.625030 0.877982 -0.643055
F2    F     F_    0.321952 0.392284 0.099555 -0.719529
F3    F     F_    0.863593 0.592852 0.292218 -0.733047
F4    F     F_    0.137482 0.413451 0.720854 -0.702925
F5    F     F_    0.695700 0.874758 0.590962 -0.689943
F6    F     F_    0.305752 0.122355 0.405311 -0.746297
H1    H     H_    0.117893 0.440546 0.952462 0.248497
H2    H     H_    0.434173 0.748622 0.835532 0.157990
H3    H     H_    0.290477 0.803560 0.868679 0.171540
H4    H     H_    0.735379 0.229375 0.209534 0.243176
H5    H     H_    0.678118 0.210920 0.038459 0.188006
H6    H     H_    0.583968 0.249827 0.178072 0.177461
H7    H     H_    0.660580 0.788322 0.046830 0.133959
H8    H     H_    0.667383 0.675954 0.186541 0.201154
H9    H     H_    0.619896 0.826884 0.213782 0.224298
H10   H     H_    0.327142 0.331990 0.816029 0.225196
H11   H     H_    0.330119 0.218513 0.952036 0.137365
H12   H     H_    0.885486 0.391922 0.077227 0.275536
H13   H     H_    0.371187 0.179117 0.784174 0.206649
H14   H     H_    0.298285 0.828278 0.107906 0.246965
H15   H     H_    0.208448 0.937818 0.201527 0.230200
H16   H     H_    0.244966 0.968699 0.029415 0.146157
H17   H     H_    0.776239 0.028196 0.916253 0.166686
H18   H     H_    0.819264 0.915169 0.795385 0.222149
H19   H     H_    0.762240 0.059627 0.732297 0.232954
H20   H     H_    0.944235 0.781035 0.417601 0.208593
H21   H     H_    0.932787 0.828703 0.238413 0.178256
H22   H     H_    0.988535 0.925336 0.370029 0.144530
H23   H     H_    0.998713 0.753782 0.700400 0.160034
H24   H     H_    0.094274 0.106409 0.678873 0.204690
H25   H     H_    0.122090 0.229651 0.563355 0.200795
H26   H     H_    0.064863 0.093493 0.498806 0.156151
H27   H     H_    0.221862 0.324477 0.303946 0.230541
H28   H     H_    0.191703 0.236148 0.150206 0.181125
H29   H     H_    0.115147 0.215407 0.303376 0.170443
H30   H     H_    0.785197 0.563706 0.050298 0.224382
H31   H     H_    0.831038 0.706553 0.991294 0.149724
H32   H     H_    0.925136 0.598195 0.072216 0.122082
H33   H     H_    0.587310 0.874999 0.804013 0.229177
H34   H     H_    0.964789 0.786237 0.873704 0.163511
H35   H     H_    0.453070 0.944200 0.866784 0.178625
H36   H     H_    0.591746 0.973723 0.944260 0.162243
H37   H     H_    0.551516 0.058398 0.136593 0.188473
H38   H     H_    0.419584 0.133559 0.198771 0.216774
H39   H     H_    0.414795 0.039405 0.054837 0.158046
H40   H     H_    0.262067 0.801316 0.519406 0.166114
H41   H     H_    0.210920 0.949531 0.461174 0.234751
H42   H     H_    0.148337 0.884733 0.602836 0.164139
H43   H     H_    0.811902 0.022498 0.495307 0.233717
H44   H     H_    0.748023 0.177555 0.478609 0.170686
H45   H     H_    0.094305 0.840590 0.804764 0.191503
H46   H     H_    0.847241 0.115580 0.357122 0.205980
H47   H     H_    0.020266 0.060282 0.202807 0.144919
H48   H     H_    0.068884 0.089074 0.035188 0.169061
H49   H     H_    0.952492 0.984989 0.062972 0.219839
H50   H     H_    0.314890 0.720217 0.718035 0.205408
N1    N     N_3   0.500090 0.499970 0.858290 -0.287189
N2    N     N_3   0.499910 0.500030 0.141710 -0.285994
O1    O     O_R   0.500060 0.316850 0.620870 -0.543116
O2    O     O_3   0.905440 0.165131 0.085459 -0.602473
O3    O     O_3   0.314481 0.618615 0.888600 -0.556431
O4    O     O_3   0.688036 0.385327 0.113059 -0.599683
O5    O     O_3   0.502052 0.727364 0.101212 -0.557476
O6    O     O_3   0.492222 0.273514 0.897867 -0.553347
O7    O     O_3   0.122042 0.846112 0.047006 -0.643686
O8    O     O_3   0.928825 0.055008 0.817443 -0.615457
O9    O     O_3   0.101611 0.784030 0.322722 -0.618057
O10   O     O_3   0.947372 0.206088 0.592092 -0.621715
O11   O     O_3   0.065333 0.367734 0.194307 -0.609983
O12   O     O_R   0.499940 0.683150 0.379130 -0.540776
O13   O     O_3   0.877773 0.561244 0.868070 -0.522164
O14   O     O_3   0.552082 0.061665 0.763601 -0.554493
O15   O     O_3   0.445402 0.944689 0.234526 -0.563570
O16   O     O_3   0.311853 0.944832 0.645564 -0.623316
O17   O     O_3   0.683788 0.051009 0.341079 -0.623148
O18   O     O_R   0.500000 0.316860 0.379090 -0.581541
O19   O     O_R   0.500000 0.683140 0.620910 -0.574490
O20   O     O_R   0.319670 0.500010 0.620890 -0.520878
O21   O     O_R   0.680330 0.499990 0.379110 -0.516845
O22   O     O_R   0.319620 0.500010 0.379110 -0.572132
O23   O     O_R   0.680380 0.499990 0.620890 -0.523385
O24   O     O_3   0.099158 0.655044 0.842730 -0.515881

loop_
_geom_bond_atom_site_label_1
_geom_bond_atom_site_label_2
_ccdc_geom_bond_type
C9    N1    S    
C46   H39   S    
C19   O10   S    
C8    C13   S    
C23   C45   A    
C12   O19   A    
C26   H12   S    
C7    O5    S    
C30   C45   A    
Cu1   O23   S    
C43   O13   S    
C36   H7    S    
C8    O6    S    
C47   O16   S    
C38   H16   S    
Cu1   Cu2   S    
C7    C11   S    
C41   H26   S    
C44   O14   S    
C47   H41   S    
C27   O24   S    
C23   C29   A    
C19   C21   A    
C24   C26   A    
C13   N2    S    
C2    F6    S    
C15   O23   A    
C35   H5    S    
C39   O8    S    
C48   H44   S    
C6    C52   S    
C31   H23   S    
C7    N2    S    
C9    C13   S    
Cu2   O12   S    
C3    C12   S    
C17   O8    S    
C48   H46   S    
C37   O6    S    
C33   H2    S    
C22   C25   A    
C50   C52   S    
C40   H20   S    
C10   N2    S    
C35   H4    S    
C50   O14   S    
C6    C51   S    
C13   F2    S    
Cu1   N1    S    
C16   C27   A    
C15   C23   S    
C46   H38   S    
C47   H42   S    
C37   H10   S    
C31   H45   S    
C1    O1    A    
C6    O17   S    
C41   H24   S    
Cu1   O1    S    
C42   O11   S    
C21   C45   S    
C38   H15   S    
Cu2   O18   S    
C33   O3    S    
C43   H30   S    
C32   H49   S    
C30   C34   A    
C11   N1    S    
C9    O3    S    
C39   H18   S    
C40   H22   S    
C46   O15   S    
C22   O11   S    
C4    C6    S    
C1    O18   A    
C44   H33   S    
C16   O7    S    
C3    C51   S    
C29   C49   A    
C14   O22   A    
C35   H6    S    
C48   H43   S    
C32   H47   S    
C43   H31   S    
C47   H40   S    
C4    C50   S    
C39   H19   S    
C41   O10   S    
C2    C4    S    
C20   C49   S    
C44   H36   S    
C52   F5    S    
C2    C51   S    
C12   O12   A    
C33   H3    S    
Cu2   N2    S    
C35   O4    S    
Cu1   O20   S    
C25   H1    S    
C36   O5    S    
C28   O2    S    
Cu1   O19   S    
C38   O7    S    
C16   C18   A    
C46   H37   S    
C29   F3    S    
C37   H11   S    
C24   O13   S    
C5    C50   S    
C8    N1    S    
C2    C5    S    
C42   H28   S    
C39   H17   S    
C11   F1    S    
C36   H9    S    
C38   H14   S    
C7    C9    S    
C37   H13   S    
C34   C49   A    
C17   C28   A    
C40   H21   S    
C20   C22   A    
C31   O24   S    
C3    C5    S    
C14   C34   S    
C3    C52   S    
C36   H8    S    
C15   O21   A    
C25   C27   A    
C31   H34   S    
C41   H25   S    
C26   C28   A    
C43   H32   S    
C14   O20   A    
C1    C4    S    
C51   O15   S    
C42   H29   S    
C40   O9    S    
C44   H35   S    
Cu2   O21   S    
C30   F4    S    
C5    O16   S    
C17   C19   A    
C18   C20   A    
C48   O17   S    
C10   O4    S    
C42   H27   S    
C10   C11   S    
C18   O9    S    
C8    C10   S    
C32   H48   S    
C21   C24   A    
C33   H50   S    
C32   O2    S    
Cu2   O22   S    
