data_mof_unit_59248.cif
_audit_creation_date              2012-12-11T15:45:02-0500
_audit_creation_method            fapswitch 2.2
_symmetry_space_group_name_H-M    P1
_symmetry_Int_Tables_number       1
_space_group_crystal_system       triclinic
_cell_length_a                    19.382768
_cell_length_b                    11.012691
_cell_length_c                    18.667429
_cell_angle_alpha                 90.316149
_cell_angle_beta                  90.731188
_cell_angle_gamma                 89.894498
_cell_volume                      3984.29146845

loop_
_atom_site_label
_atom_site_type_symbol
_atom_type_description
_atom_site_fract_x
_atom_site_fract_y
_atom_site_fract_z
_atom_type_partial_charge
C1    C     C_R   0.759335 0.536264 0.647203 0.564024
C2    C     C_R   0.172652 0.087087 0.552181 -0.167391
C3    C     C_R   0.530390 0.928812 0.958640 -0.134798
C4    C     C_R   0.967568 0.239450 0.969523 0.359335
C5    C     C_R   0.972793 0.246360 0.043904 0.361331
C6    C     C_R   0.467612 0.739415 0.969512 0.359313
C7    C     C_R   0.472828 0.746328 0.043894 0.361331
C8    C     C_3   0.028920 0.570378 0.032840 0.326359
C9    C     C_3   0.031520 0.565296 0.951921 0.291196
C10   C     C_3   0.528894 0.070390 0.032846 0.326361
C11   C     C_3   0.531495 0.065316 0.951926 0.291190
C12   C     C_R   0.762619 0.527555 0.853685 0.554909
C13   C     C_R   0.323410 0.563915 0.453071 -0.156999
C14   C     C_R   0.239036 0.530088 0.147549 0.555952
C15   C     C_R   0.262620 0.027553 0.853684 0.554929
C16   C     C_R   0.739035 0.030086 0.147548 0.555944
C17   C     C_R   0.773046 0.128301 0.853245 0.586498
C18   C     C_R   0.227232 0.123825 0.148185 0.584425
C19   C     C_R   0.273049 0.628307 0.853247 0.586461
C20   C     C_R   0.727232 0.623827 0.148184 0.584395
C21   C     C_R   0.968467 0.346481 0.854134 0.569423
C22   C     C_R   0.028232 0.347668 0.147986 0.596746
C23   C     C_R   0.468471 0.846480 0.854131 0.569397
C24   C     C_R   0.672652 0.587087 0.552181 -0.167392
C25   C     C_R   0.528234 0.847667 0.147984 0.596769
C26   C     C_R   0.765315 0.107707 0.415646 0.019216
C27   C     C_R   0.236859 0.110877 0.585289 0.007722
C28   C     C_R   0.265315 0.607707 0.415646 0.019218
C29   C     C_R   0.736859 0.610877 0.585289 0.007721
C30   C     C_R   0.729654 0.203672 0.447080 0.100988
C31   C     C_R   0.280113 0.190708 0.549918 0.100163
C32   C     C_R   0.229654 0.703672 0.447080 0.100991
C33   C     C_R   0.780113 0.690708 0.549918 0.100162
C34   C     C_R   0.742318 0.236024 0.519025 -0.061862
C35   C     C_3   0.654763 0.212326 0.455902 0.672709
C36   C     C_R   0.268359 0.220434 0.478078 -0.064454
C37   C     C_R   0.242318 0.736024 0.519025 -0.061861
C38   C     C_R   0.768359 0.720434 0.478078 -0.064454
C39   C     C_3   0.354991 0.182070 0.539814 0.673842
C40   C     C_3   0.154763 0.712325 0.455902 0.672709
C41   C     C_3   0.854991 0.682070 0.539814 0.673841
C42   C     C_3   0.667873 0.250812 0.532688 -0.184504
C43   C     C_3   0.342790 0.212968 0.461717 -0.183461
C44   C     C_3   0.167873 0.750812 0.532689 -0.184504
C45   C     C_R   0.240918 0.536476 0.352762 0.572739
C46   C     C_3   0.842790 0.712967 0.461717 -0.183461
C47   C     C_R   0.789527 0.169601 0.560845 0.001196
C48   C     C_R   0.213179 0.169507 0.439596 -0.001123
C49   C     C_R   0.289527 0.669601 0.560845 0.001194
C50   C     C_R   0.713179 0.669507 0.439596 -0.001122
C51   C     C_R   0.997620 0.341509 0.425471 -0.035111
C52   C     C_R   0.006692 0.332436 0.576972 -0.032449
C53   C     C_R   0.497620 0.841509 0.425471 -0.035110
C54   C     C_R   0.506692 0.832436 0.576972 -0.032449
C55   C     C_R   0.981340 0.121907 0.421640 -0.093936
C56   C     C_R   0.259335 0.036264 0.647203 0.564021
C57   C     C_R   0.005243 0.108666 0.568943 -0.112678
C58   C     C_R   0.481340 0.621907 0.421640 -0.093935
C59   C     C_R   0.505243 0.608666 0.568943 -0.112678
C60   C     C_R   0.986845 0.010253 0.454367 -0.124957
C61   C     C_R   0.999546 0.003254 0.527714 -0.141329
C62   C     C_R   0.486845 0.510253 0.454367 -0.124957
C63   C     C_R   0.499546 0.503254 0.527714 -0.141328
C64   C     C_R   0.001000 0.223587 0.536472 0.008074
C65   C     C_R   0.993279 0.229262 0.460728 0.000805
C66   C     C_R   0.501000 0.723587 0.536472 0.008074
C67   C     C_R   0.740918 0.036476 0.352762 0.572738
C68   C     C_R   0.493279 0.729262 0.460728 0.000805
C69   C     C_R   0.017790 0.441104 0.540339 0.064360
C70   C     C_R   0.999396 0.448564 0.467488 0.080668
C71   C     C_R   0.517790 0.941104 0.540339 0.064359
C72   C     C_R   0.499396 0.948564 0.467488 0.080668
C73   C     C_R   0.792901 0.175129 0.639763 0.570695
C74   C     C_R   0.207798 0.174195 0.360664 0.568655
C75   C     C_R   0.292901 0.675129 0.639763 0.570696
C76   C     C_R   0.707798 0.674195 0.360664 0.568651
C77   C     C_R   0.037997 0.546885 0.577350 -0.011770
C78   C     C_R   0.833986 0.091011 0.524921 -0.124445
C79   C     C_R   0.985076 0.564158 0.438840 0.025522
C80   C     C_R   0.537997 0.046885 0.577350 -0.011770
C81   C     C_R   0.485076 0.064158 0.438840 0.025521
C82   C     C_R   0.022746 0.659377 0.549182 0.016029
C83   C     C_R   0.996903 0.668092 0.479703 0.032312
C84   C     C_R   0.522745 0.159378 0.549182 0.016029
C85   C     C_R   0.496903 0.168092 0.479703 0.032312
C86   C     C_R   0.746380 0.059688 0.072911 0.022068
C87   C     C_R   0.257765 0.060283 0.928312 -0.025538
C88   C     C_R   0.246382 0.559694 0.072915 0.022102
C89   C     C_R   0.161867 0.112549 0.479425 -0.124854
C90   C     C_R   0.757758 0.560287 0.928313 -0.025643
C91   C     C_R   0.766429 0.966360 0.026394 -0.017251
C92   C     C_R   0.192966 0.058755 0.957943 0.100984
C93   C     C_R   0.266413 0.466361 0.026393 -0.017231
C94   C     C_R   0.692966 0.558637 0.957956 0.101076
C95   C     C_R   0.768646 0.982385 0.953594 -0.072601
C96   C     C_R   0.185141 0.067667 0.030164 0.013963
C97   C     C_R   0.268637 0.482398 0.953595 -0.072624
C98   C     C_R   0.685146 0.567543 0.030179 0.013933
C99   C     C_R   0.722649 0.184545 0.969982 0.362833
C100  C     C_R   0.333986 0.591012 0.524921 -0.124445
C101  C     C_R   0.307749 0.062736 0.049469 0.314124
C102  C     C_R   0.222679 0.684584 0.969992 0.362849
C103  C     C_R   0.807761 0.562847 0.049461 0.314111
C104  C     C_R   0.721279 0.167572 0.044004 -0.014388
C105  C     C_R   0.315752 0.050825 0.974935 -0.111031
C106  C     C_R   0.221303 0.667600 0.044013 -0.014360
C107  C     C_R   0.815757 0.550956 0.974924 -0.111264
C108  C     C_3   0.829810 0.889155 0.026610 -0.201822
C109  C     C_3   0.131475 0.134962 0.941624 -0.280735
C110  C     C_3   0.329764 0.389079 0.026606 -0.201827
C111  C     C_R   0.661867 0.612549 0.479425 -0.124854
C112  C     C_3   0.631435 0.634752 0.941642 -0.280614
C113  C     C_3   0.830337 0.902067 0.945787 -0.224625
C114  C     C_3   0.122358 0.144103 0.021934 -0.259243
C115  C     C_3   0.330304 0.402027 0.945784 -0.224623
C116  C     C_3   0.622327 0.643903 0.021951 -0.259148
C117  C     C_R   0.751831 0.094668 0.924508 0.033622
C118  C     C_R   0.241556 0.080780 0.076599 0.025914
C119  C     C_R   0.251842 0.594692 0.924514 0.033604
C120  C     C_R   0.741563 0.580764 0.076602 0.025928
C121  C     C_R   0.972805 0.344383 0.647890 0.528442
C122  C     C_R   0.823410 0.063915 0.453071 -0.156999
C123  C     C_R   0.027886 0.346704 0.352697 0.526366
C124  C     C_R   0.472805 0.844383 0.647890 0.528441
C125  C     C_R   0.527886 0.846704 0.352697 0.526372
C126  C     C_R   0.004252 0.347240 0.075234 -0.015705
C127  C     C_R   0.993344 0.334905 0.926251 -0.039707
C128  C     C_R   0.504256 0.847232 0.075230 -0.015645
C129  C     C_R   0.493361 0.834900 0.926245 -0.039755
C130  C     C_R   0.033569 0.435161 0.031343 -0.073457
C131  C     C_R   0.030396 0.428793 0.958640 -0.134794
C132  C     C_R   0.533557 0.935175 0.031343 -0.073426
Cr1   Cr    Cr6+3 0.885860 0.491680 0.749630 1.126647
Cr2   Cr    Cr6+3 0.112430 0.179310 0.249850 1.074717
Cr3   Cr    Cr6+3 0.387570 0.679310 0.750150 1.066954
Cr4   Cr    Cr6+3 0.612430 0.679310 0.249850 1.074706
Cr5   Cr    Cr6+3 0.114140 0.491680 0.250370 1.138424
Cr6   Cr    Cr6+3 0.385860 0.991680 0.749630 1.126651
Cr7   Cr    Cr6+3 0.614140 0.991680 0.250370 1.138423
Cr8   Cr    Cr6+3 0.730490 0.332970 0.748720 1.056418
Cr9   Cr    Cr6+3 0.269510 0.332970 0.251280 1.051292
Cr10  Cr    Cr6+3 0.230490 0.832970 0.748720 1.056413
Cr11  Cr    Cr6+3 0.769510 0.832970 0.251280 1.051323
Cr12  Cr    Cr6+3 0.887570 0.179310 0.750150 1.066934
F1    F     F_    0.700599 0.292721 0.944186 -0.616687
F2    F     F_    0.973341 0.617446 0.921610 -0.643177
F3    F     F_    0.586063 0.123455 0.063756 -0.645752
F4    F     F_    0.473307 0.117445 0.921618 -0.643149
F5    F     F_    0.125749 0.598673 0.448924 -0.644987
F6    F     F_    0.879521 0.565375 0.549915 -0.633548
F7    F     F_    0.625749 0.098674 0.448923 -0.644987
F8    F     F_    0.379521 0.065375 0.549915 -0.633548
F9    F     F_    0.624577 0.300746 0.413375 -0.630369
F10   F     F_    0.389942 0.270490 0.578639 -0.654874
F11   F     F_    0.124577 0.800745 0.413375 -0.630368
F12   F     F_    0.363460 0.061696 0.094028 -0.652170
F13   F     F_    0.889942 0.770490 0.578639 -0.654875
F14   F     F_    0.200656 0.792780 0.944202 -0.616691
F15   F     F_    0.863476 0.561929 0.094005 -0.652192
F16   F     F_    0.933494 0.143311 0.940813 -0.616355
F17   F     F_    0.947697 0.155300 0.084783 -0.611178
F18   F     F_    0.433571 0.643237 0.940796 -0.616313
F19   F     F_    0.447746 0.655248 0.084768 -0.611151
F20   F     F_    0.086093 0.623435 0.063747 -0.645748
H1    H     H_    0.871881 0.038733 0.553935 0.197851
H2    H     H_    0.366280 0.032648 0.954031 0.213896
H3    H     H_    0.201749 0.738907 0.078504 0.185511
H4    H     H_    0.866290 0.532893 0.954013 0.214022
H5    H     H_    0.819094 0.796121 0.044732 0.165385
H6    H     H_    0.089819 0.082577 0.914164 0.196970
H7    H     H_    0.319006 0.296051 0.044711 0.165224
H8    H     H_    0.589801 0.582291 0.914195 0.197092
H9    H     H_    0.874459 0.933967 0.053763 0.233737
H10   H     H_    0.144969 0.222870 0.916338 0.114104
H11   H     H_    0.374430 0.433819 0.053773 0.233663
H12   H     H_    0.116688 0.077224 0.452812 0.191500
H13   H     H_    0.644885 0.722668 0.916343 0.114064
H14   H     H_    0.876989 0.948475 0.926165 0.253930
H15   H     H_    0.130302 0.237377 0.043442 0.121900
H16   H     H_    0.376972 0.448409 0.926177 0.253907
H17   H     H_    0.630243 0.737191 0.043446 0.121851
H18   H     H_    0.817429 0.816195 0.917102 0.143465
H19   H     H_    0.076649 0.094343 0.041461 0.217650
H20   H     H_    0.317375 0.316181 0.917085 0.143461
H21   H     H_    0.576635 0.594103 0.041492 0.217762
H22   H     H_    0.979732 0.605474 0.054470 0.226335
H23   H     H_    0.371881 0.538734 0.553935 0.197851
H24   H     H_    0.080479 0.599538 0.929214 0.170806
H25   H     H_    0.479703 0.105472 0.054475 0.226294
H26   H     H_    0.580449 0.099581 0.929222 0.170841
H27   H     H_    0.855720 0.995346 0.429991 0.146645
H28   H     H_    0.134368 0.034804 0.579685 0.137747
H29   H     H_    0.355720 0.495346 0.429991 0.146645
H30   H     H_    0.634368 0.534804 0.579685 0.137747
H31   H     H_    0.653268 0.345712 0.543648 0.124518
H32   H     H_    0.364800 0.301022 0.446014 0.102657
H33   H     H_    0.153267 0.845712 0.543648 0.124518
H34   H     H_    0.616688 0.577224 0.452812 0.191500
H35   H     H_    0.864800 0.801022 0.446014 0.102657
H36   H     H_    0.651320 0.184534 0.573242 0.123158
H37   H     H_    0.353423 0.136736 0.424317 0.128487
H38   H     H_    0.151320 0.684534 0.573242 0.123159
H39   H     H_    0.853424 0.636735 0.424317 0.128485
H40   H     H_    0.979351 0.931108 0.421460 0.135229
H41   H     H_    0.002522 0.916959 0.553499 0.154285
H42   H     H_    0.479351 0.431108 0.421460 0.135228
H43   H     H_    0.502522 0.416959 0.553499 0.154285
H44   H     H_    0.966558 0.123076 0.365563 0.147949
H45   H     H_    0.032881 0.738632 0.581540 0.098209
H46   H     H_    0.016746 0.098691 0.625423 0.139658
H47   H     H_    0.466558 0.623076 0.365563 0.147949
H48   H     H_    0.516746 0.598691 0.625423 0.139659
H49   H     H_    0.963128 0.575295 0.385711 0.117259
H50   H     H_    0.060722 0.542681 0.630644 0.106043
H51   H     H_    0.463128 0.075295 0.385711 0.117261
H52   H     H_    0.560722 0.042681 0.630644 0.106042
H53   H     H_    0.986261 0.754563 0.457118 0.108117
H54   H     H_    0.532882 0.238632 0.581540 0.098209
H55   H     H_    0.486261 0.254563 0.457118 0.108117
H56   H     H_    0.701713 0.238875 0.078492 0.185539
O1    O     O_R   0.957020 0.451640 0.669920 -0.467368
O2    O     O_R   0.168040 0.093290 0.169870 -0.505957
O3    O     O_R   0.331960 0.593290 0.830130 -0.475614
O4    O     O_R   0.668040 0.593290 0.169870 -0.505994
O5    O     O_R   0.945600 0.250580 0.824860 -0.454214
O6    O     O_R   0.054400 0.250580 0.175140 -0.478863
O7    O     O_R   0.445600 0.750580 0.824860 -0.454191
O8    O     O_R   0.554400 0.750580 0.175140 -0.478861
O9    O     O_3   0.834640 0.334650 0.749500 -0.307700
O10   O     O_3   0.165360 0.334650 0.250500 -0.320547
O11   O     O_3   0.334640 0.834650 0.749500 -0.307713
O12   O     O_R   0.042980 0.451640 0.330080 -0.484225
O13   O     O_3   0.665360 0.834650 0.250500 -0.320553
O14   O     O_R   0.821450 0.543440 0.674610 -0.418963
O15   O     O_R   0.178550 0.543440 0.325390 -0.418642
O16   O     O_R   0.321450 0.043440 0.674610 -0.418963
O17   O     O_R   0.678550 0.043440 0.325390 -0.418642
O18   O     O_R   0.715320 0.458650 0.668100 -0.559107
O19   O     O_R   0.284680 0.458650 0.331900 -0.553674
O20   O     O_R   0.215320 0.958650 0.668100 -0.559109
O21   O     O_R   0.784680 0.958650 0.331900 -0.553673
O22   O     O_R   0.737170 0.209590 0.674530 -0.518071
O23   O     O_R   0.457020 0.951640 0.669920 -0.467369
O24   O     O_R   0.262830 0.209590 0.325470 -0.501838
O25   O     O_R   0.237170 0.709590 0.674530 -0.518068
O26   O     O_R   0.762830 0.709590 0.325470 -0.501842
O27   O     O_R   0.832710 0.092740 0.669580 -0.505539
O28   O     O_R   0.167290 0.092740 0.330420 -0.475618
O29   O     O_R   0.332710 0.592740 0.669580 -0.505534
O30   O     O_R   0.667290 0.592740 0.330420 -0.475619
O31   O     O_R   0.946290 0.250060 0.676040 -0.539063
O32   O     O_R   0.053710 0.250060 0.323960 -0.528927
O33   O     O_R   0.446290 0.750060 0.676040 -0.539061
O34   O     O_R   0.542980 0.951640 0.330080 -0.484222
O35   O     O_R   0.553710 0.750060 0.323960 -0.528926
O36   O     O_R   0.956270 0.452200 0.830470 -0.454819
O37   O     O_R   0.043730 0.452200 0.169530 -0.467817
O38   O     O_R   0.456270 0.952200 0.830470 -0.454824
O39   O     O_R   0.543730 0.952200 0.169530 -0.467798
O40   O     O_R   0.820760 0.543950 0.823440 -0.500882
O41   O     O_R   0.179240 0.543950 0.176560 -0.457166
O42   O     O_R   0.320760 0.043950 0.823440 -0.500868
O43   O     O_R   0.679240 0.043950 0.176560 -0.457191
O44   O     O_R   0.714570 0.459210 0.828640 -0.454301
O45   O     O_R   0.736470 0.210100 0.823360 -0.447108
O46   O     O_R   0.285430 0.459210 0.171360 -0.506188
O47   O     O_R   0.214570 0.959210 0.828640 -0.454278
O48   O     O_R   0.785430 0.959210 0.171360 -0.506167
O49   O     O_R   0.263530 0.210100 0.176640 -0.468200
O50   O     O_R   0.236470 0.710100 0.823360 -0.447126
O51   O     O_R   0.763530 0.710100 0.176640 -0.468130
O52   O     O_R   0.831960 0.093290 0.830130 -0.475616

loop_
_geom_bond_atom_site_label_1
_geom_bond_atom_site_label_2
_ccdc_geom_bond_type
C58   C62   A    
C66   C68   A    
Cr6   O38   S    
Cr7   O43   S    
Cr7   O17   S    
C121  O1    A    
C51   C123  S    
Cr4   O35   S    
C69   C77   A    
C103  C120  A    
C34   C42   S    
C3    C11   S    
Cr2   O32   S    
C50   C76   S    
C80   C84   A    
C9    H24   S    
C86   C104  A    
C102  F14   S    
Cr10  O50   S    
C115  H20   S    
C67   O21   A    
C122  H27   S    
C80   H52   S    
C112  H8    S    
C58   H47   S    
C95   C117  A    
Cr10  O20   S    
C55   H44   S    
Cr5   O12   S    
C76   O30   A    
Cr3   O7    S    
C30   C35   S    
Cr11  O51   S    
C101  C118  A    
Cr2   O6    S    
C96   C118  A    
Cr6   O11   S    
Cr12  O52   S    
C25   C128  S    
C2    H28   S    
C90   C107  A    
C72   C81   A    
C15   O47   A    
C86   C91   A    
C6    C129  A    
C59   C66   A    
C12   O44   A    
C103  C107  A    
C83   H53   S    
C92   C109  S    
C121  O31   A    
C94   C98   A    
C114  H19   S    
C29   C33   A    
C9    F2    S    
C92   C96   A    
C88   C106  A    
C105  H2    S    
C23   C129  S    
Cr11  O48   S    
C51   C65   A    
C46   H35   S    
C125  O35   A    
C35   C42   S    
C24   C29   A    
C104  H56   S    
C17   O45   A    
C52   C69   A    
C57   H46   S    
C16   O43   A    
Cr6   O16   S    
C60   H40   S    
Cr1   O40   S    
C73   O22   A    
Cr6   O42   S    
C23   O38   A    
Cr5   O15   S    
C8    C9    S    
Cr2   O2    S    
C20   C120  S    
Cr7   O39   S    
C5    C126  A    
C43   H37   S    
Cr1   O1    S    
C41   C46   S    
Cr11  O21   S    
C13   C28   A    
C102  C106  A    
C2    C27   A    
C51   C70   A    
Cr9   O49   S    
C7    C128  A    
C21   C127  S    
C18   C118  S    
C115  H16   S    
C75   O25   A    
C17   C117  S    
C10   F3    S    
C44   H33   S    
C82   H45   S    
C74   O24   A    
C110  H7    S    
C32   C40   S    
C113  H14   S    
C99   F1    S    
C69   C70   A    
C19   C119  S    
Cr8   O9    S    
Cr9   O19   S    
C63   H43   S    
C55   C60   A    
C116  H17   S    
Cr8   O45   S    
C16   C86   S    
Cr4   O30   S    
C125  O34   A    
C24   C111  A    
C35   F7    S    
Cr3   O29   S    
C17   O52   A    
C78   C122  A    
C128  C132  A    
Cr1   O36   S    
Cr2   O28   S    
C71   C80   A    
C55   C65   A    
C77   H50   S    
C90   C94   A    
C19   O50   A    
C10   C132  S    
C53   C68   A    
C9    C131  S    
C22   O37   A    
C101  C105  A    
C76   O26   A    
C28   C45   S    
C110  C115  S    
C10   H25   S    
C38   C50   A    
C30   C34   A    
C39   F10   S    
C27   C31   A    
C3    C132  A    
Cr9   O24   S    
C6    F18   S    
Cr12  O9    S    
C28   C32   A    
C100  H23   S    
C19   O3    A    
C84   C85   A    
C47   C73   S    
C52   C64   A    
C109  H10   S    
Cr5   O10   S    
C39   C43   S    
C41   F6    S    
C101  F12   S    
C8    H22   S    
Cr9   O10   S    
C110  H11   S    
C7    F19   S    
C39   F8    S    
C67   O17   A    
C43   H32   S    
C5    F17   S    
C108  C113  S    
C97   C119  A    
C2    C89   A    
C45   O19   A    
Cr7   O13   S    
C62   C63   A    
C14   O41   A    
C48   C74   S    
C95   C113  S    
C99   C117  A    
C37   C49   A    
C52   C121  S    
Cr3   O11   S    
C98   C116  S    
C113  H18   S    
Cr4   O4    S    
C35   F9    S    
C24   H30   S    
C1    O14   A    
Cr10  O25   S    
Cr4   O13   S    
Cr7   O34   S    
Cr8   O18   S    
C20   O4    A    
C40   F11   S    
C32   C37   A    
Cr3   O33   S    
C124  O23   A    
C98   C120  A    
C20   O51   A    
C49   C75   S    
C16   O48   A    
C79   H49   S    
C53   C125  S    
C109  C114  S    
C87   C105  A    
C54   C66   A    
C84   H54   S    
C58   C68   A    
C46   H39   S    
Cr12  O31   S    
C114  H15   S    
C59   H48   S    
C21   O5    A    
C8    F20   S    
C41   F13   S    
Cr12  O5    S    
C97   C115  S    
C1    C29   S    
C108  H9    S    
C93   C97   A    
C112  C116  S    
C25   O39   A    
C87   C92   A    
C109  H6    S    
C57   C64   A    
C15   C87   S    
C12   C90   S    
C44   H38   S    
C54   C124  S    
C88   C93   A    
C107  H4    S    
C78   H1    S    
C99   C104  A    
C25   O8    A    
C4    C127  A    
C112  H13   S    
C26   C67   S    
C3    C129  A    
C91   C108  S    
C56   O20   A    
C74   O28   A    
C45   O15   A    
C124  O33   A    
Cr1   O9    S    
C11   F4    S    
C4    F16   S    
C23   O7    A    
Cr10  O47   S    
C57   C61   A    
C6    C7    A    
C22   O6    A    
Cr5   O37   S    
C1    O18   A    
Cr3   O3    S    
C116  H21   S    
C93   C110  S    
C27   C56   S    
C59   C63   A    
C33   C38   A    
C47   C78   A    
Cr11  O26   S    
C48   C89   A    
C11   H26   S    
C33   C41   S    
C106  H3    S    
Cr11  O13   S    
C13   C100  A    
C42   H36   S    
C130  C131  A    
C85   H55   S    
C14   C88   S    
C123  O32   A    
C111  H34   S    
C15   O42   A    
C75   O29   A    
Cr9   O46   S    
C49   C100  A    
C8    C130  S    
C96   C114  S    
C103  F15   S    
Cr10  O11   S    
C81   H51   S    
C77   C82   A    
C37   C44   S    
C4    C5    A    
C54   C71   A    
C64   C65   A    
C94   C112  S    
C50   C111  A    
C56   O16   A    
C31   C39   S    
C40   F5    S    
C36   C48   A    
Cr8   O22   S    
Cr1   O14   S    
Cr2   O10   S    
Cr4   O8    S    
C42   H31   S    
C18   O2    A    
C127  C131  A    
C38   C46   S    
C22   C126  S    
C10   C11   S    
C102  C119  A    
C91   C95   A    
C79   C83   A    
C123  O12   A    
C12   O40   A    
C40   C44   S    
C71   C72   A    
C82   C83   A    
Cr8   O44   S    
Cr12  O27   S    
C126  C130  A    
C31   C36   A    
C60   C61   A    
C36   C43   S    
C13   H29   S    
C34   C47   A    
C26   C122  A    
C89   H12   S    
C108  H5    S    
C53   C72   A    
C73   O27   A    
C62   H42   S    
C18   O49   A    
C81   C85   A    
Cr6   O23   S    
C14   O46   A    
C61   H41   S    
C70   C79   A    
C21   O36   A    
C26   C30   A    
Cr5   O41   S    
