data_mof_unit_5406.cif
_audit_creation_date              2012-12-10T19:32:24-0500
_audit_creation_method            fapswitch 2.2
_symmetry_space_group_name_H-M    P1
_symmetry_Int_Tables_number       1
_space_group_crystal_system       triclinic
_cell_length_a                    23.529591
_cell_length_b                    16.033139
_cell_length_c                    14.94432
_cell_angle_alpha                 88.868847
_cell_angle_beta                  90.718371
_cell_angle_gamma                 88.95584
_cell_volume                      5635.28885166

loop_
_atom_site_label
_atom_site_type_symbol
_atom_type_description
_atom_site_fract_x
_atom_site_fract_y
_atom_site_fract_z
_atom_type_partial_charge
C1    C     C_R   0.504774 0.337585 0.500763 0.929656
C2    C     C_R   0.703654 0.557831 0.451241 -0.068964
C3    C     C_R   0.698897 0.298627 0.573907 -0.131060
C4    C     C_R   0.321018 0.355366 0.548107 0.108074
C5    C     C_R   0.350145 0.315331 0.480630 -0.151508
C6    C     C_R   0.384831 0.247743 0.501966 -0.157869
C7    C     C_R   0.389949 0.217897 0.590387 -0.133685
C8    C     C_R   0.358629 0.255463 0.657800 -0.127298
C9    C     C_R   0.323950 0.324767 0.636695 -0.107448
C10   C     C_R   0.675878 0.621613 0.391772 0.096948
C11   C     C_R   0.648745 0.599977 0.311654 -0.068494
C12   C     C_R   0.624330 0.661934 0.255559 -0.118758
C13   C     C_R   0.233883 0.439949 0.530833 -0.151164
C14   C     C_R   0.629087 0.745789 0.277119 -0.135506
C15   C     C_R   0.655782 0.767745 0.356881 -0.139194
C16   C     C_R   0.679012 0.706053 0.414202 -0.151848
C17   C     C_3   0.615583 0.071262 0.410702 -0.375097
C18   C     C_3   0.656141 0.010266 0.366143 -0.888324
C19   C     C_3   0.422538 0.939626 0.595608 -0.403743
C20   C     C_3   0.388011 0.004597 0.646086 -0.879177
C21   C     C_3   0.620072 0.923501 0.582753 -0.375759
C22   C     C_3   0.662175 0.982662 0.624633 -0.881152
C23   C     C_3   0.418504 0.064833 0.412792 -0.401594
C24   C     C_R   0.762615 0.560820 0.461653 -0.157363
C25   C     C_3   0.381906 0.002055 0.364093 -0.881887
C26   C     C_R   0.516310 0.957353 0.315236 0.140669
C27   C     C_R   0.515359 0.024203 0.252738 -0.132851
C28   C     C_R   0.510694 0.009655 0.161061 -0.141953
C29   C     C_R   0.506376 0.928264 0.130610 -0.122542
C30   C     C_R   0.506867 0.861418 0.191868 -0.163433
C31   C     C_R   0.512154 0.875665 0.283583 -0.199424
C32   C     C_R   0.523652 0.041852 0.686003 0.142787
C33   C     C_R   0.527407 0.975159 0.748557 -0.134954
C34   C     C_R   0.525781 0.989838 0.840373 -0.145522
C35   C     C_R   0.205616 0.517500 0.521948 0.244157
C36   C     C_R   0.519607 0.071154 0.870895 -0.115444
C37   C     C_R   0.515126 0.137819 0.809604 -0.151194
C38   C     C_R   0.517177 0.123427 0.717756 -0.217109
C39   C     C_R   0.790455 0.519736 0.534170 0.247327
C40   C     C_3   0.567824 0.968525 0.540508 0.135904
C41   C     C_3   0.472472 0.029555 0.460259 0.126362
C42   C     C_3   0.565798 0.028530 0.457476 0.137964
C43   C     C_3   0.474440 0.971528 0.544253 0.127205
C44   C     C_1   0.513635 0.248862 0.501966 -0.197058
C45   C     C_R   0.505481 0.662008 0.499453 0.935337
C46   C     C_1   0.514924 0.750225 0.498709 -0.195756
C47   C     C_3   0.522214 0.023223 0.586934 -0.018438
C48   C     C_3   0.518526 0.975806 0.414330 -0.022742
C49   C     C_R   0.388563 0.499996 0.499655 0.899953
C50   C     C_R   0.610823 0.499556 0.500748 0.872654
C51   C     C_3   0.519776 0.082393 0.503465 -0.038580
C52   C     C_3   0.520098 0.916599 0.497858 -0.041386
C53   C     C_1   0.518207 0.173886 0.502367 -0.090314
C54   C     C_1   0.519328 0.825045 0.498767 -0.095138
C55   C     C_3   0.537831 0.437197 0.973752 0.041289
C56   C     C_R   0.237690 0.587400 0.499679 -0.151066
C57   C     C_3   0.467808 0.559511 0.025813 0.030664
C58   C     C_3   0.554888 0.511799 0.031892 0.036045
C59   C     C_3   0.450787 0.485058 0.967828 0.031336
C60   C     C_3   0.484389 0.424171 0.032283 -0.278862
C61   C     C_3   0.521258 0.572601 0.967415 -0.283408
C62   C     C_3   0.501670 0.499492 0.089794 0.016672
C63   C     C_3   0.504048 0.497351 0.910017 0.020506
C64   C     C_1   0.500668 0.499997 0.189881 0.032564
C65   C     C_1   0.502197 0.498477 0.810045 0.033077
C66   C     C_R   0.877588 0.600607 0.528416 0.507094
C67   C     C_R   0.758550 0.468890 0.591194 -0.160950
C68   C     C_R   0.119309 0.476659 0.600121 0.506577
C69   C     C_R   0.883079 0.458005 0.576158 0.488084
C70   C     C_R   0.112875 0.581711 0.485203 0.490517
C71   C     C_R   0.941103 0.465673 0.596848 -0.055365
C72   C     C_R   0.055407 0.596785 0.505020 -0.057443
C73   C     C_R   0.968665 0.535319 0.560370 -0.032293
C74   C     C_R   0.028115 0.535960 0.557223 -0.033115
C75   C     C_R   0.936797 0.602684 0.523730 -0.011753
C76   C     C_R   0.060102 0.473895 0.603405 -0.008106
C77   C     C_R   0.973172 0.404201 0.646343 0.000083
C78   C     C_R   0.295475 0.579291 0.482222 -0.060297
C79   C     C_R   0.023487 0.666508 0.470271 -0.000643
C80   C     C_R   0.032467 0.410598 0.651084 -0.221978
C81   C     C_R   0.964512 0.669621 0.482538 -0.222295
C82   C     C_R   0.946166 0.336682 0.699204 0.186433
C83   C     C_R   0.904333 0.355913 0.762385 -0.098197
C84   C     C_R   0.878503 0.292207 0.811454 -0.136065
C85   C     C_R   0.894611 0.209028 0.798610 -0.106346
C86   C     C_R   0.936665 0.189428 0.736814 -0.131077
C87   C     C_R   0.962498 0.252924 0.687371 -0.139165
C88   C     C_R   0.050423 0.739778 0.427339 0.186961
C89   C     C_R   0.701948 0.452792 0.571524 -0.049516
C90   C     C_R   0.093460 0.782562 0.472499 -0.099812
C91   C     C_R   0.118759 0.851648 0.431978 -0.134121
C92   C     C_R   0.100990 0.878990 0.346599 -0.108076
C93   C     C_R   0.057804 0.837392 0.301665 -0.132453
C94   C     C_R   0.032447 0.768163 0.341856 -0.137605
C95   C     C_R   0.614795 0.521863 0.066351 0.097905
C96   C     C_R   0.647655 0.589624 0.038313 -0.193219
C97   C     C_R   0.704390 0.594950 0.066293 -0.124031
C98   C     C_R   0.728917 0.532303 0.121313 -0.104166
C99   C     C_R   0.696692 0.464317 0.148735 -0.157431
C100  C     C_R   0.324966 0.503796 0.499909 -0.131890
C101  C     C_R   0.639717 0.459383 0.122033 -0.142742
C102  C     C_R   0.392452 0.472961 0.927899 0.110320
C103  C     C_R   0.362185 0.399836 0.945225 -0.162552
C104  C     C_R   0.308573 0.389199 0.906026 -0.149676
C105  C     C_R   0.284866 0.451309 0.849405 -0.117920
C106  C     C_R   0.314780 0.524128 0.831681 -0.122062
C107  C     C_R   0.368309 0.535070 0.870876 -0.127987
C108  C     C_R   0.580934 0.371219 0.948599 0.106790
C109  C     C_R   0.573725 0.287141 0.973419 -0.192678
C110  C     C_R   0.617173 0.228352 0.959213 -0.144639
C111  C     C_R   0.672914 0.501344 0.504944 -0.123743
C112  C     C_R   0.668242 0.253069 0.921050 -0.103284
C113  C     C_R   0.675711 0.336494 0.895951 -0.121126
C114  C     C_R   0.631909 0.395105 0.908225 -0.159564
C115  C     C_R   0.426198 0.625938 0.054298 0.113388
C116  C     C_R   0.434575 0.710429 0.032511 -0.181858
C117  C     C_R   0.393868 0.770729 0.055249 -0.135837
C118  C     C_R   0.344489 0.747118 0.099254 -0.126373
C119  C     C_R   0.336070 0.663280 0.121671 -0.138462
C120  C     C_R   0.376947 0.602928 0.099980 -0.125773
C121  C     C_R   0.325738 0.653929 0.459224 0.109487
C122  C     C_R   0.293019 0.434489 0.526508 -0.059210
C123  C     C_R   0.355453 0.692383 0.527060 -0.152993
C124  C     C_R   0.388361 0.759713 0.506493 -0.160874
C125  C     C_R   0.391357 0.790497 0.418388 -0.137972
C126  C     C_R   0.359869 0.753804 0.350536 -0.127724
C127  C     C_R   0.326772 0.684833 0.370909 -0.103608
C128  C     C_R   0.678681 0.374352 0.608116 0.090502
C129  C     C_R   0.639326 0.373126 0.677900 -0.108325
C130  C     C_R   0.618435 0.297131 0.709508 -0.118209
C131  C     C_R   0.639938 0.222157 0.676670 -0.120868
C132  C     C_R   0.680141 0.222928 0.608941 -0.153555
H1    H     H_    0.536376 0.632726 0.939562 0.127807
H2    H     H_    0.846008 0.307334 0.859454 0.121885
H3    H     H_    0.874572 0.159774 0.836635 0.123515
H4    H     H_    0.949155 0.124977 0.727051 0.131486
H5    H     H_    0.994725 0.236799 0.639239 0.126994
H6    H     H_    0.107446 0.762247 0.538871 0.109801
H7    H     H_    0.152091 0.884051 0.466824 0.128484
H8    H     H_    0.120607 0.932498 0.315329 0.125468
H9    H     H_    0.044012 0.858744 0.235614 0.130149
H10   H     H_    0.999207 0.736267 0.306129 0.126342
H11   H     H_    0.629803 0.638166 0.994680 0.122581
H12   H     H_    0.469049 0.364155 0.060106 0.127961
H13   H     H_    0.729456 0.647451 0.044861 0.130258
H14   H     H_    0.772885 0.536407 0.142638 0.127044
H15   H     H_    0.715717 0.415744 0.191250 0.135172
H16   H     H_    0.615267 0.406171 0.143450 0.134873
H17   H     H_    0.379864 0.350845 0.988478 0.118554
H18   H     H_    0.285450 0.332648 0.919356 0.134527
H19   H     H_    0.243452 0.442828 0.818921 0.166259
H20   H     H_    0.296539 0.572029 0.787455 0.134702
H21   H     H_    0.391100 0.591775 0.856508 0.128003
H22   H     H_    0.535080 0.266888 0.004896 0.118286
H23   H     H_    0.057022 0.364133 0.689376 0.184177
H24   H     H_    0.611515 0.163729 0.978799 0.131895
H25   H     H_    0.701926 0.207567 0.910618 0.125032
H26   H     H_    0.715177 0.355595 0.866007 0.131128
H27   H     H_    0.638361 0.459589 0.888632 0.131529
H28   H     H_    0.472194 0.730029 0.997651 0.114481
H29   H     H_    0.400445 0.835737 0.038223 0.131000
H30   H     H_    0.312836 0.793800 0.116252 0.126556
H31   H     H_    0.297683 0.644975 0.155332 0.133151
H32   H     H_    0.369720 0.538068 0.117154 0.129892
H33   H     H_    0.354887 0.668085 0.595282 0.133268
H34   H     H_    0.940146 0.723057 0.456675 0.185176
H35   H     H_    0.414033 0.783181 0.559617 0.134131
H36   H     H_    0.419105 0.841135 0.402505 0.154949
H37   H     H_    0.362134 0.777737 0.282591 0.143992
H38   H     H_    0.303107 0.654650 0.318545 0.130731
H39   H     H_    0.625153 0.430394 0.708338 0.148939
H40   H     H_    0.586960 0.296256 0.761608 0.150393
H41   H     H_    0.626264 0.163531 0.704726 0.148372
H42   H     H_    0.697248 0.165099 0.583942 0.132726
H43   H     H_    0.729992 0.298329 0.521039 0.157143
H44   H     H_    0.348430 0.339346 0.412299 0.133365
H45   H     H_    0.218236 0.649169 0.497294 0.173112
H46   H     H_    0.409975 0.222991 0.449158 0.131529
H47   H     H_    0.419082 0.167183 0.606709 0.149858
H48   H     H_    0.362556 0.232597 0.726273 0.132760
H49   H     H_    0.301369 0.356333 0.689217 0.146290
H50   H     H_    0.646178 0.535322 0.293280 0.148926
H51   H     H_    0.602018 0.645270 0.195136 0.139520
H52   H     H_    0.612414 0.793740 0.231811 0.144240
H53   H     H_    0.658821 0.832452 0.374118 0.137782
H54   H     H_    0.699930 0.724060 0.475674 0.153743
H55   H     H_    0.678736 0.970579 0.417069 0.258998
H56   H     H_    0.778328 0.437078 0.648415 0.175061
H57   H     H_    0.633005 0.970731 0.318344 0.265462
H58   H     H_    0.688457 0.045743 0.328481 0.252287
H59   H     H_    0.598522 0.116100 0.359213 0.199258
H60   H     H_    0.639434 0.108062 0.460162 0.207321
H61   H     H_    0.414285 0.040077 0.693114 0.272792
H62   H     H_    0.364871 0.047430 0.598991 0.256222
H63   H     H_    0.355432 0.972079 0.686223 0.248522
H64   H     H_    0.392635 0.913870 0.546895 0.221529
H65   H     H_    0.437265 0.890603 0.644429 0.200049
H66   H     H_    0.681054 0.023076 0.572567 0.257400
H67   H     H_    0.210404 0.383497 0.543025 0.177095
H68   H     H_    0.641226 0.021347 0.675632 0.261259
H69   H     H_    0.697104 0.945824 0.657927 0.253591
H70   H     H_    0.605935 0.878628 0.634941 0.198629
H71   H     H_    0.641834 0.886475 0.530985 0.205249
H72   H     H_    0.406296 0.965659 0.315172 0.271622
H73   H     H_    0.360883 0.959964 0.412343 0.256700
H74   H     H_    0.347641 0.036502 0.326373 0.248736
H75   H     H_    0.390912 0.092134 0.463609 0.221687
H76   H     H_    0.431128 0.113546 0.363560 0.198851
H77   H     H_    0.517279 0.087901 0.274932 0.117039
H78   H     H_    0.786257 0.598081 0.414354 0.179557
H79   H     H_    0.509951 0.061628 0.113717 0.115155
H80   H     H_    0.502501 0.916996 0.059649 0.112812
H81   H     H_    0.503603 0.798254 0.168359 0.147067
H82   H     H_    0.512533 0.822428 0.328486 0.164977
H83   H     H_    0.530444 0.911462 0.726370 0.117656
H84   H     H_    0.528658 0.938008 0.887818 0.117024
H85   H     H_    0.517876 0.082458 0.941954 0.110272
H86   H     H_    0.509722 0.200810 0.833173 0.140345
H87   H     H_    0.513259 0.176445 0.672782 0.160379
H88   H     H_    0.891580 0.420143 0.773226 0.109171
N1    N     N_R   0.851233 0.526634 0.547610 -0.337305
N2    N     N_R   0.145008 0.525628 0.536330 -0.337076
N3    N     N_1   0.500020 0.500000 0.268010 -0.097401
N4    N     N_1   0.499980 0.500000 0.731990 -0.101779
O1    O     O_R   0.500000 0.376780 0.574460 -0.602545
O2    O     O_2   0.150506 0.430728 0.660026 -0.606987
O3    O     O_2   0.859989 0.381627 0.578725 -0.572918
O4    O     O_2   0.135168 0.618928 0.412280 -0.567596
O5    O     O_R   0.500000 0.623220 0.425540 -0.596608
O6    O     O_R   0.500010 0.376780 0.425520 -0.621942
O7    O     O_R   0.499990 0.623220 0.574480 -0.622091
O8    O     O_R   0.416150 0.499970 0.574490 -0.600566
O9    O     O_R   0.583850 0.500030 0.425510 -0.629163
O10   O     O_R   0.416160 0.499980 0.425550 -0.606193
O11   O     O_R   0.583840 0.500020 0.574450 -0.630835
O12   O     O_2   0.846998 0.671576 0.513209 -0.591075
Zn1   Zn    Zn3+2 0.499990 0.500000 0.599450 0.973692
Zn2   Zn    Zn3+2 0.500010 0.500000 0.400550 0.978464

loop_
_geom_bond_atom_site_label_1
_geom_bond_atom_site_label_2
_ccdc_geom_bond_type
C58   C62   S    
C40   C47   S    
C63   C65   S    
C18   H57   S    
C93   C94   A    
C83   H88   S    
C23   H76   S    
C19   C43   S    
C72   C74   A    
O1    Zn1   S    
C73   C74   A    
C21   H71   S    
C95   C96   A    
C67   C89   A    
O9    Zn2   S    
C25   H72   S    
C128  C129  A    
C92   C93   A    
C97   C98   A    
C33   H83   S    
C61   H1    S    
C7    C8    A    
C101  H16   S    
C31   H82   S    
C21   H70   S    
C45   C46   S    
C116  C117  A    
C28   H79   S    
C15   H53   S    
C84   H2    S    
C26   C27   A    
C37   C38   A    
C74   C76   A    
C80   H23   S    
C22   H68   S    
C28   C29   A    
C70   O4    S    
C116  H28   S    
C72   C79   A    
C5    C6    A    
C68   O2    S    
C43   C52   S    
C57   C59   S    
C12   H51   S    
C106  C107  A    
C104  H18   S    
C82   C87   A    
C18   H55   S    
C27   H77   S    
C24   C39   A    
C56   C78   A    
C108  C109  A    
C60   C62   S    
O10   Zn2   S    
C108  C114  A    
C61   C63   S    
C78   C121  S    
C17   C42   S    
C79   C88   S    
C62   C64   S    
C103  C104  A    
C70   N2    A    
C118  C119  A    
C44   C53   T    
C18   H58   S    
C19   C20   S    
C130  H40   S    
C8    C9    A    
C55   C63   S    
C95   C101  A    
C81   H34   S    
C32   C38   A    
C113  H26   S    
C16   H54   S    
C49   O10   A    
N4    Zn1   S    
C41   C43   S    
C20   H63   S    
C100  C122  A    
C26   C48   S    
C42   C51   S    
C58   C61   S    
C40   C42   S    
C26   C31   A    
C92   H8    S    
C55   C60   S    
C6    H46   S    
C120  H32   S    
O11   Zn1   S    
C50   O11   A    
C11   H50   S    
C45   O5    A    
C37   H86   S    
C87   H5    S    
C66   N1    A    
C25   H73   S    
C69   O3    S    
C20   H62   S    
C104  C105  A    
C90   H6    S    
C52   C54   S    
C33   C34   A    
C56   H45   S    
C17   H60   S    
C105  H19   S    
C88   C94   A    
C2    C111  A    
C19   H65   S    
C69   C71   A    
C112  H25   S    
C7    H47   S    
C3    C132  A    
C94   H10   S    
C1    O1    A    
C123  C124  A    
C125  H36   S    
C106  H20   S    
C84   C85   A    
C9    H49   S    
C57   C115  S    
C35   N2    S    
C119  H31   S    
C91   C92   A    
C71   C73   A    
C24   H78   S    
C86   C87   A    
C75   C81   A    
C47   C51   S    
C98   H14   S    
C117  H29   S    
C85   C86   A    
C131  H41   S    
C13   C35   A    
C17   H59   S    
C64   N3    T    
C66   O12   S    
C127  H38   S    
C50   O9    A    
C58   C95   S    
C29   C30   A    
C124  H35   S    
C8    H48   S    
C1    C44   S    
C83   C84   A    
O5    Zn2   S    
C115  C116  A    
C30   C31   A    
C11   C12   A    
C96   C97   A    
C46   C54   T    
C17   C18   S    
C4    C122  S    
C102  C107  A    
C132  H42   S    
C109  H22   S    
C107  H21   S    
C85   H3    S    
C91   H7    S    
C86   H4    S    
C99   C101  A    
C12   C14   A    
C1    O6    A    
C42   C48   S    
C82   C83   A    
C78   C100  A    
C125  C126  A    
C32   C47   S    
C59   C63   S    
O6    Zn2   S    
C96   H11   S    
C73   C75   A    
C25   H74   S    
C57   C62   S    
C48   C52   S    
C20   H61   S    
C71   C77   A    
C93   H9    S    
C67   H56   S    
C29   H80   S    
C79   C81   A    
C113  C114  A    
C77   C80   A    
C3    H43   S    
C99   H15   S    
C118  H30   S    
C13   H67   S    
C22   H69   S    
C23   H75   S    
C35   C56   A    
C3    C128  A    
C59   C102  S    
C97   H13   S    
C38   H87   S    
C129  H39   S    
C68   N2    A    
C76   C80   A    
C88   C90   A    
C4    C5    A    
N3    Zn2   S    
C36   H85   S    
C15   C16   A    
C14   H52   S    
C119  C120  A    
C115  C120  A    
C121  C127  A    
C57   C61   S    
C6    C7    A    
C68   C76   A    
C39   C67   A    
C105  C106  A    
C89   C111  A    
C19   H64   S    
C23   C41   S    
C55   C108  S    
O7    Zn1   S    
C32   C33   A    
C49   O8    A    
C130  C131  A    
C129  C130  A    
C126  H37   S    
C40   C52   S    
C117  C118  A    
C60   H12   S    
C49   C100  S    
C2    C24   A    
C13   C122  A    
C90   C91   A    
O8    Zn1   S    
C10   C16   A    
C77   C82   S    
C126  C127  A    
C66   C75   A    
C50   C111  S    
C5    H44   S    
C41   C48   S    
C69   N1    A    
C23   C25   S    
C102  C103  A    
C110  C112  A    
C114  H27   S    
C121  C123  A    
C110  H24   S    
C10   C11   A    
C103  H17   S    
C21   C40   S    
C123  H33   S    
C112  C113  A    
C59   C60   S    
C70   C72   A    
C34   C36   A    
C36   C37   A    
C98   C99   A    
C55   C58   S    
C109  C110  A    
C27   C28   A    
C22   H66   S    
C14   C15   A    
C39   N1    S    
C34   H84   S    
C45   O7    A    
C51   C53   S    
C4    C9    A    
C21   C22   S    
C43   C47   S    
C41   C51   S    
C65   N4    T    
C131  C132  A    
C124  C125  A    
C30   H81   S    
C89   C128  S    
C2    C10   S    
