data_mof_unit_59804.cif
_audit_creation_date              2012-12-10T18:05:58-0500
_audit_creation_method            fapswitch 2.2
_symmetry_space_group_name_H-M    P1
_symmetry_Int_Tables_number       1
_space_group_crystal_system       triclinic
_cell_length_a                    12.580696
_cell_length_b                    13.251824
_cell_length_c                    14.927381
_cell_angle_alpha                 90.613372
_cell_angle_beta                  101.393464
_cell_angle_gamma                 82.839283
_cell_volume                      2420.33278853

loop_
_atom_site_label
_atom_site_type_symbol
_atom_type_description
_atom_site_fract_x
_atom_site_fract_y
_atom_site_fract_z
_atom_type_partial_charge
C1    C     C_R   0.439656 0.690986 0.486655 0.871406
C2    C     C_R   0.502185 0.588057 0.813571 -0.288828
C3    C     C_R   0.497984 0.496507 0.767612 -0.097903
C4    C     C_R   0.500014 0.498671 0.672409 0.894975
C5    C     C_R   0.482397 0.406742 0.810000 -0.063019
C6    C     C_R   0.733333 0.058180 0.521050 0.485698
C7    C     C_R   0.596857 0.201610 0.526985 -0.102543
C8    C     C_R   0.303601 0.833792 0.509516 -0.197410
C9    C     C_R   0.282142 0.932962 0.537547 -0.169863
C10   C     C_R   0.360181 0.999248 0.541308 -0.179272
C11   C     C_R   0.459530 0.969066 0.511162 0.109852
C12   C     C_R   0.471753 0.415336 0.089323 0.131945
C13   C     C_R   0.478866 0.869939 0.478638 0.071641
C14   C     C_R   0.541961 0.033375 0.515356 0.003177
C15   C     C_R   0.648502 0.994598 0.501884 -0.017451
C16   C     C_R   0.560501 0.309578 0.514465 0.890842
C17   C     C_R   0.663002 0.897556 0.463580 -0.052717
C18   C     C_R   0.575244 0.841282 0.444604 -0.249943
C19   C     C_R   0.517925 0.137198 0.525540 -0.234363
C20   C     C_R   0.706006 0.161838 0.533490 -0.289443
C21   C     C_R   0.403836 0.800245 0.484706 -0.098519
C22   C     C_R   0.087228 0.360265 0.358238 0.443082
C23   C     C_R   0.494941 0.686461 0.043197 -0.215968
C24   C     C_R   0.799805 0.629542 0.608074 0.027216
C25   C     C_R   0.904051 0.658308 0.628229 -0.258753
C26   C     C_R   0.984912 0.609092 0.586052 -0.154788
C27   C     C_R   0.961614 0.530330 0.522968 0.058942
C28   C     C_R   0.499195 0.502857 0.327159 0.935805
C29   C     C_R   0.854069 0.504979 0.503790 0.179566
C30   C     C_R   0.040133 0.477476 0.477454 -0.148763
C31   C     C_R   0.007451 0.409566 0.404913 -0.054911
C32   C     C_R   0.897179 0.392595 0.380166 0.459335
C33   C     C_R   0.825526 0.432264 0.437129 -0.397603
C34   C     C_R   0.494742 0.684197 0.950244 -0.223247
C35   C     C_R   0.150743 0.491537 0.500160 -0.039847
C36   C     C_R   0.193939 0.381658 0.382663 -0.111836
C37   C     C_R   0.472656 0.418264 0.182016 -0.361585
C38   C     C_R   0.497636 0.505121 0.230936 -0.169720
C39   C     C_R   0.517973 0.592703 0.188019 0.434660
C40   C     C_R   0.498908 0.595543 0.091983 0.003280
C41   C     C_R   0.484184 0.504298 0.043706 0.009554
C42   C     C_1   0.764453 0.854887 0.438955 0.218050
C43   C     C_3   0.896240 0.980298 0.601674 0.081353
C44   C     C_3   0.957676 0.058892 0.659481 -0.366783
C45   C     C_R   0.493748 0.591733 0.904439 0.136865
C46   C     C_3   0.030588 0.010253 0.746022 -0.950020
C47   C     C_3   0.758346 0.317493 0.274796 0.069630
C48   C     C_3   0.753297 0.213184 0.315056 -0.346909
C49   C     C_3   0.637044 0.185233 0.295733 -0.938193
C50   C     C_3   0.068884 0.195876 0.314342 0.146735
C51   C     C_3   0.183694 0.139865 0.316469 -0.432385
C52   C     C_3   0.183331 0.024772 0.317302 -0.887521
C53   C     C_3   0.652934 0.698294 0.230495 0.021606
C54   C     C_3   0.745315 0.629106 0.290483 -0.324695
C55   C     C_3   0.856095 0.643640 0.268509 -0.891950
C56   C     C_R   0.483700 0.501715 0.950046 0.070629
C57   C     C_1   0.475832 0.313223 0.758706 0.150749
C58   C     C_R   0.475521 0.408945 0.902604 0.070221
C59   C     C_R   0.461397 0.321328 0.949318 -0.208702
C60   C     C_R   0.458431 0.324980 0.041781 -0.202367
H1    H     H_    0.457855 0.351727 0.217133 0.167081
H2    H     H_    0.063549 0.636345 0.602393 0.128947
H3    H     H_    0.921966 0.719096 0.675728 0.141288
H4    H     H_    0.746785 0.409026 0.428022 0.223682
H5    H     H_    0.495948 0.759011 0.077258 0.172676
H6    H     H_    0.497577 0.754343 0.914591 0.148160
H7    H     H_    0.510482 0.656691 0.777787 0.142824
H8    H     H_    0.453190 0.249468 0.915104 0.158894
H9    H     H_    0.448012 0.256563 0.076541 0.144303
H10   H     H_    0.769051 0.211755 0.541166 0.166186
H11   H     H_    0.956884 0.916785 0.587509 0.173437
H12   H     H_    0.434815 0.170360 0.523397 0.171288
H13   H     H_    0.842136 0.946222 0.640882 0.117364
H14   H     H_    0.009129 0.093576 0.618719 0.228533
H15   H     H_    0.898147 0.120057 0.679104 0.221336
H16   H     H_    0.980731 0.975655 0.788206 0.265692
H17   H     H_    0.073126 0.069211 0.786813 0.271420
H18   H     H_    0.093017 0.950684 0.728180 0.258933
H19   H     H_    0.737777 0.311480 0.199208 0.180271
H20   H     H_    0.695527 0.377038 0.290561 0.125566
H21   H     H_    0.806741 0.154743 0.284990 0.223750
H22   H     H_    0.785038 0.213354 0.389524 0.230327
H23   H     H_    0.245210 0.781434 0.514120 0.159852
H24   H     H_    0.583409 0.239899 0.329090 0.251356
H25   H     H_    0.636839 0.107781 0.323208 0.276039
H26   H     H_    0.604293 0.185839 0.220959 0.255370
H27   H     H_    0.009102 0.158433 0.264206 0.184797
H28   H     H_    0.045073 0.188656 0.382018 0.112102
H29   H     H_    0.214255 0.161750 0.255368 0.244481
H30   H     H_    0.240319 0.161614 0.378599 0.207265
H31   H     H_    0.145633 0.001506 0.373816 0.270425
H32   H     H_    0.268493 0.986292 0.326770 0.278145
H33   H     H_    0.136231 0.000190 0.251488 0.259286
H34   H     H_    0.342110 0.072087 0.571511 0.140248
H35   H     H_    0.659911 0.778165 0.251727 0.165344
H36   H     H_    0.666049 0.694383 0.159171 0.150264
H37   H     H_    0.745224 0.646059 0.363411 0.239360
H38   H     H_    0.732287 0.548671 0.277885 0.233817
H39   H     H_    0.862788 0.611335 0.200584 0.266016
H40   H     H_    0.922748 0.604039 0.320754 0.273189
H41   H     H_    0.866702 0.725466 0.267508 0.266748
H42   H     H_    0.206761 0.957242 0.560690 0.148952
H43   H     H_    0.584801 0.772536 0.405774 0.206762
H44   H     H_    0.255208 0.348338 0.345728 0.154703
H45   H     H_    0.183088 0.539289 0.555011 0.139421
H46   H     H_    0.736123 0.667704 0.640032 0.137406
N1    N     N_R   0.222190 0.444670 0.452360 -0.129315
N2    N     N_R   0.776970 0.554790 0.547140 -0.124888
N3    N     N_1   0.846359 0.821058 0.420143 -0.213259
N4    N     N_1   0.470469 0.238611 0.718008 -0.224013
O1    O     O_R   0.366740 0.627160 0.477250 -0.614027
O2    O     O_3   0.865937 0.343008 0.297329 -0.607105
O3    O     O_3   0.061588 0.297900 0.284199 -0.596588
O4    O     O_3   0.548110 0.675774 0.240507 -0.660080
O5    O     O_R   0.544830 0.662520 0.507680 -0.626752
O6    O     O_R   0.410940 0.482340 0.616930 -0.615942
O7    O     O_R   0.589030 0.517700 0.647360 -0.616486
O8    O     O_R   0.455170 0.337480 0.492320 -0.624880
O9    O     O_R   0.633260 0.372840 0.522750 -0.641535
O10   O     O_R   0.410970 0.482300 0.352640 -0.612182
O11   O     O_R   0.589060 0.517660 0.383070 -0.644018
O12   O     O_3   0.840499 0.023845 0.516497 -0.656024
Zn1   Zn    Zn3+2 0.381090 0.476390 0.479680 0.947969
Zn2   Zn    Zn3+2 0.618910 0.523610 0.520320 0.926822

loop_
_geom_bond_atom_site_label_1
_geom_bond_atom_site_label_2
_ccdc_geom_bond_type
C43   H13   S    
C1    C21   S    
O6    Zn1   S    
C53   H35   S    
C8    H23   S    
N1    Zn1   S    
C34   H6    S    
C46   H16   S    
O9    Zn2   S    
C26   C27   A    
C37   C38   A    
C13   C18   A    
C60   H9    S    
C49   H24   S    
C42   N3    T    
C51   H30   S    
C30   C31   A    
C11   C14   A    
C27   C29   A    
C10   H34   S    
C23   C40   A    
C29   C33   A    
C48   H21   S    
C25   H3    S    
C12   C37   A    
C17   C42   S    
O11   Zn2   S    
C6    C15   A    
C22   O3    S    
C57   N4    T    
C45   C56   A    
C56   C58   A    
C9    H42   S    
C55   H40   S    
C54   H37   S    
C24   N2    A    
C47   H19   S    
C9    C10   A    
O10   Zn1   S    
C50   H28   S    
O8    Zn1   S    
C39   O4    S    
C59   C60   A    
C36   N1    A    
C20   H10   S    
C19   H12   S    
C47   H20   S    
N2    Zn2   S    
C49   H26   S    
C44   C46   S    
C50   C51   S    
C2    C45   A    
C22   C31   A    
O1    Zn1   S    
C51   C52   S    
C49   H25   S    
C24   C25   A    
C2    H7    S    
C28   O10   A    
C16   O9    A    
C39   C40   A    
C46   H18   S    
C4    O6    A    
C28   O11   A    
C8    C9    A    
C25   C26   A    
C53   C54   S    
C44   H15   S    
C43   C44   S    
C41   C56   A    
C12   C41   A    
C35   H45   S    
C16   O8    A    
C59   H8    S    
C47   C48   S    
C28   C38   S    
C23   C34   A    
C17   C18   A    
C13   C21   A    
C52   H33   S    
C29   N2    A    
C34   C45   A    
C44   H14   S    
C43   O12   S    
C50   H27   S    
C5    C58   A    
C7    C16   S    
C7    C19   A    
C4    O7    A    
C52   H32   S    
C24   H46   S    
C6    O12   S    
C3    C4    S    
C22   C36   A    
C53   O4    S    
C15   C17   A    
C54   C55   S    
C48   C49   S    
C43   H11   S    
O5    Zn2   S    
C32   O2    S    
C14   C19   A    
O7    Zn2   S    
C31   C32   A    
C3    C5    A    
C8    C21   A    
C46   H17   S    
C37   H1    S    
C30   C35   A    
C55   H41   S    
C5    C57   S    
C36   H44   S    
C50   O3    S    
C32   C33   A    
C23   H5    S    
C2    C3    A    
C58   C59   A    
C51   H29   S    
C11   C13   A    
C38   C39   A    
C6    C20   A    
C33   H4    S    
C48   H22   S    
C18   H43   S    
C26   H2    S    
C35   N1    A    
C10   C11   A    
C12   C60   A    
C7    C20   A    
C55   H39   S    
C14   C15   A    
C54   H38   S    
C52   H31   S    
C40   C41   A    
C1    O5    A    
C53   H36   S    
C1    O1    A    
C47   O2    S    
C27   C30   A    
