data_mof_unit_43923.cif
_audit_creation_date              2012-12-10T17:17:28-0500
_audit_creation_method            fapswitch 2.2
_symmetry_space_group_name_H-M    P1
_symmetry_Int_Tables_number       1
_space_group_crystal_system       triclinic
_cell_length_a                    10.208022
_cell_length_b                    10.834165
_cell_length_c                    12.531973
_cell_angle_alpha                 91.0717
_cell_angle_beta                  109.975368
_cell_angle_gamma                 95.772462
_cell_volume                      1293.90380239

loop_
_atom_site_label
_atom_site_type_symbol
_atom_type_description
_atom_site_fract_x
_atom_site_fract_y
_atom_site_fract_z
_atom_type_partial_charge
C1    C     C_R   0.053315 0.732424 0.495585 0.926976
C2    C     C_R   0.439639 0.564390 0.985180 0.088199
C3    C     C_R   0.369066 0.575936 0.868703 0.044012
C4    C     C_R   0.578466 0.532204 0.019289 0.079425
C5    C     C_R   0.648864 0.526521 0.939518 0.168914
C6    C     C_R   0.584633 0.561005 0.829351 -0.214502
C7    C     C_R   0.447935 0.589943 0.795811 -0.161927
C8    C     C_R   0.648639 0.503705 0.130188 -0.229798
C9    C     C_R   0.856849 0.473528 0.086177 -0.190561
C10   C     C_R   0.222001 0.576301 0.828785 -0.210603
C11   C     C_2   0.089254 0.865135 0.502502 -0.362009
C12   C     C_R   0.138897 0.531019 0.710663 0.891050
C13   C     C_2   0.008727 0.936606 0.534520 -0.117032
C14   C     C_2   0.927650 0.137046 0.525402 -0.347017
C15   C     C_2   0.031095 0.068556 0.531196 -0.153830
C16   C     C_2   0.430982 0.517988 0.499473 -0.203941
C17   C     C_2   0.567434 0.487523 0.489729 0.398006
C18   C     C_R   0.950228 0.268041 0.510255 0.970181
C19   C     C_R   0.864175 0.485571 0.286933 0.899450
C20   C     C_R   0.784675 0.491003 0.972443 -0.131338
C21   C     C_R   0.789428 0.484111 0.165551 -0.068852
C22   C     C_R   0.157708 0.613507 0.905692 0.385607
C23   C     C_R   0.232332 0.619160 0.021972 -0.178116
C24   C     C_R   0.369297 0.588487 0.061985 -0.245198
H1    H     H_    0.965080 0.454307 0.112064 0.169461
H2    H     H_    0.919416 0.897881 0.556664 0.198798
H3    H     H_    0.828069 0.096497 0.530176 0.170940
H4    H     H_    0.178270 0.904328 0.480332 0.158208
H5    H     H_    0.430847 0.603489 0.545322 0.129031
H6    H     H_    0.682355 0.628529 0.595177 0.134481
H7    H     H_    0.315740 0.364612 0.412976 0.226913
H8    H     H_    0.640315 0.566588 0.769626 0.160600
H9    H     H_    0.835821 0.479711 0.910855 0.190993
H10   H     H_    0.595850 0.498785 0.191300 0.194282
H11   H     H_    0.419847 0.592925 0.153077 0.163669
H12   H     H_    0.183815 0.646694 0.081885 0.178880
H13   H     H_    0.405127 0.626628 0.713324 0.163869
H14   H     H_    0.130863 0.108637 0.526276 0.196726
N1    N     N_2   0.313640 0.446500 0.454900 -0.180538
N2    N     N_2   0.686360 0.553430 0.545150 -0.208729
O1    O     O_R   0.936910 0.692950 0.509080 -0.606570
O2    O     O_R   0.138320 0.658600 0.480130 -0.622771
O3    O     O_R   0.002900 0.525670 0.675280 -0.557833
O4    O     O_R   0.204310 0.491320 0.646330 -0.620007
O5    O     O_R   0.861680 0.341400 0.519870 -0.550184
O6    O     O_R   0.063090 0.307050 0.490920 -0.619596
O7    O     O_R   0.795690 0.508680 0.353670 -0.575656
O8    O     O_R   0.997100 0.474330 0.324720 -0.618307
Zn1   Zn    Zn3+2 0.865520 0.522940 0.519330 1.025474
Zn2   Zn    Zn3+2 0.134480 0.477060 0.480670 0.952937
Cl1   Cl    Cl    0.564783 0.360075 0.399221 -0.627702
Cl2   Cl    Cl    0.992962 0.670586 0.860545 -0.664466

loop_
_geom_bond_atom_site_label_1
_geom_bond_atom_site_label_2
_ccdc_geom_bond_type
C2    C4    A    
C23   C24   A    
C15   H14   S    
C6    C7    A    
C14   H3    S    
C14   C18   S    
C9    C20   A    
C6    H8    S    
C1    C11   S    
O5    Zn1   S    
C4    C8    A    
C17   Cl1   S    
O8    Zn2   S    
C2    C3    A    
C7    H13   S    
H6    N2    S    
O7    Zn1   S    
C3    C10   A    
C8    H10   S    
C10   C22   A    
C11   C13   D    
C9    C21   A    
C16   C17   S    
C10   C12   S    
C11   H4    S    
O2    Zn2   S    
C20   H9    S    
C18   O6    A    
O1    Zn1   S    
C19   C21   S    
H7    N1    S    
C8    C21   A    
C12   O3    A    
C3    C7    A    
C13   C15   S    
C2    C24   A    
C5    C6    A    
C19   O7    A    
C13   H2    S    
C24   H11   S    
C16   N1    D    
C9    H1    S    
N2    Zn1   S    
C18   O5    A    
C1    O2    A    
N1    Zn2   S    
C22   Cl2   S    
C23   H12   S    
O4    Zn2   S    
C5    C20   A    
O6    Zn2   S    
C14   C15   D    
C12   O4    A    
C16   H5    S    
C19   O8    A    
C22   C23   A    
O3    Zn1   S    
C1    O1    A    
C4    C5    A    
C17   N2    D    
