data_mof_unit_21786.cif
_audit_creation_date              2013-03-05T15:41:35-0500
_audit_creation_method            fapswitch 2.2
_symmetry_space_group_name_H-M    P1
_symmetry_Int_Tables_number       1
_space_group_crystal_system       triclinic
_cell_length_a                    24.581742
_cell_length_b                    17.472535
_cell_length_c                    15.67634
_cell_angle_alpha                 90.350122
_cell_angle_beta                  129.579485
_cell_angle_gamma                 90.257252
_cell_volume                      5189.05352001

loop_
_atom_site_label
_atom_site_type_symbol
_atom_site_description
_atom_site_fract_x
_atom_site_fract_y
_atom_site_fract_z
_atom_type_partial_charge
C1    C     C_R   0.347965 0.361126 0.237255 -0.059064
C2    C     C_R   0.338500 0.621298 0.211956 -0.067695
C3    C     C_R   0.847849 0.861250 0.236979 -0.058845
C4    C     C_R   0.838532 0.121385 0.212001 -0.068298
H1    H     H_    0.298664 0.348721 0.219944 0.152879
H2    H     H_    0.284625 0.623182 0.180431 0.143766
H3    H     H_    0.798564 0.848817 0.219713 0.151932
H4    H     H_    0.784681 0.123377 0.180559 0.143715
N1    N     N_R   0.389430 0.421450 0.294590 -0.059654
N2    N     N_R   0.389430 0.578550 0.294590 -0.057308
N3    N     N_R   0.889430 0.921450 0.294590 -0.059628
N4    N     N_R   0.889430 0.078550 0.294590 -0.057534
C5    C     C_R   0.657110 0.369678 0.772126 -0.030879
C6    C     C_R   0.669483 0.604635 0.801639 -0.031447
C7    C     C_R   0.157117 0.869722 0.772223 -0.029236
C8    C     C_R   0.169468 0.104730 0.801544 -0.029572
N5    N     N_R   0.612200 0.424040 0.705410 -0.076038
N6    N     N_R   0.612200 0.575960 0.705410 -0.059494
N7    N     N_R   0.112200 0.924040 0.705410 -0.075974
N8    N     N_R   0.112200 0.075960 0.705410 -0.059233
C9    C     C_R   0.614039 0.402140 0.405097 -0.022801
C10   C     C_R   0.593198 0.638662 0.407614 -0.040189
C11   C     C_R   0.113755 0.901120 0.405006 -0.020658
C12   C     C_R   0.093248 0.138600 0.407605 -0.040329
H5    H     H_    0.588755 0.404143 0.318545 0.168875
H6    H     H_    0.569692 0.648227 0.322772 0.115333
H7    H     H_    0.088847 0.903483 0.318580 0.168257
H8    H     H_    0.069729 0.148161 0.322754 0.115391
N9    N     N_R   0.581780 0.422390 0.443390 -0.062827
N10   N     N_R   0.581780 0.577610 0.443390 -0.052900
N11   N     N_R   0.081780 0.922390 0.443390 -0.062538
N12   N     N_R   0.081780 0.077610 0.443390 -0.053015
C13   C     C_R   0.383779 0.402231 0.589180 -0.107953
C14   C     C_R   0.412894 0.643656 0.590579 -0.063355
C15   C     C_R   0.883720 0.902361 0.589145 -0.108947
C16   C     C_R   0.911855 0.142806 0.590814 -0.071852
H9    H     H_    0.403120 0.405069 0.672775 0.153838
H10   H     H_    0.440960 0.661534 0.674557 0.163837
H11   H     H_    0.903017 0.905331 0.672715 0.153961
H12   H     H_    0.939454 0.160218 0.674813 0.159917
N13   N     N_R   0.419850 0.423100 0.556610 -0.041720
N14   N     N_R   0.419850 0.576900 0.556610 -0.031959
N15   N     N_R   0.919850 0.923100 0.556610 -0.041790
N16   N     N_R   0.919850 0.076900 0.556610 -0.030717
C17   C     C_R   0.690258 0.405518 0.586450 -0.035166
C18   C     C_R   0.665804 0.641020 0.592159 -0.016336
C19   C     C_R   0.190042 0.904315 0.586526 -0.034703
C20   C     C_R   0.165908 0.140927 0.592175 -0.017638
H13   H     H_    0.739590 0.413521 0.668323 0.166693
H14   H     H_    0.706700 0.657512 0.676905 0.150321
H15   H     H_    0.239612 0.912428 0.668204 0.157776
H16   H     H_    0.206886 0.157344 0.676932 0.150372
N17   N     N_R   0.627410 0.423100 0.556610 -0.049589
N18   N     N_R   0.627410 0.576900 0.556610 -0.031964
N19   N     N_R   0.127410 0.923100 0.556610 -0.048453
N20   N     N_R   0.127410 0.076900 0.556610 -0.031906
C21   C     C_R   0.311085 0.399396 0.406365 -0.108411
C22   C     C_R   0.337576 0.641029 0.406878 -0.078594
C23   C     C_R   0.811064 0.899460 0.406352 -0.108747
C24   C     C_R   0.836841 0.140540 0.406949 -0.073031
H17   H     H_    0.264536 0.399161 0.320183 0.114032
H18   H     H_    0.294181 0.651393 0.321507 0.122141
H19   H     H_    0.764523 0.899242 0.320165 0.113856
H20   H     H_    0.794021 0.151469 0.321486 0.120816
N21   N     N_R   0.374220 0.422390 0.443390 -0.049965
N22   N     N_R   0.374220 0.577610 0.443390 -0.053697
N23   N     N_R   0.874220 0.922390 0.443390 -0.049931
N24   N     N_R   0.874220 0.077610 0.443390 -0.053576
C25   C     C_R   0.569504 0.370646 0.779767 -0.040287
C26   C     C_R   0.579532 0.608457 0.803185 -0.039649
C27   C     C_R   0.069361 0.870475 0.779482 -0.040447
C28   C     C_R   0.079510 0.108624 0.803083 -0.046234
N25   N     N_R   0.555000 0.424040 0.705410 -0.053718
N26   N     N_R   0.555000 0.575960 0.705410 -0.059678
N27   N     N_R   0.055000 0.924040 0.705410 -0.053601
N28   N     N_R   0.055000 0.075960 0.705410 -0.058969
C29   C     C_R   0.438758 0.360090 0.235250 -0.030505
C30   C     C_R   0.429520 0.624009 0.212001 -0.086479
C31   C     C_R   0.938539 0.860328 0.234720 -0.030083
C32   C     C_R   0.929517 0.123940 0.211937 -0.085992
H21   H     H_    0.473027 0.345563 0.216885 0.169714
H22   H     H_    0.458483 0.630224 0.182064 0.131569
H23   H     H_    0.972651 0.845970 0.216001 0.169451
H24   H     H_    0.958495 0.130103 0.182019 0.131547
N29   N     N_R   0.446630 0.421450 0.294590 -0.065635
N30   N     N_R   0.446630 0.578550 0.294590 -0.058548
N31   N     N_R   0.946630 0.921450 0.294590 -0.065719
N32   N     N_R   0.946630 0.078550 0.294590 -0.058621
C33   C     C_R   0.378304 0.320247 0.201415 0.084021
C34   C     C_R   0.364285 0.654891 0.165316 0.084598
C35   C     C_R   0.878028 0.820551 0.200745 0.084288
C36   C     C_R   0.864282 0.154838 0.165187 0.084776
C37   C     C_R   0.632691 0.335080 0.821211 -0.062489
C38   C     C_R   0.649937 0.630363 0.862338 -0.135930
C39   C     C_R   0.132558 0.834946 0.820994 -0.063031
C40   C     C_R   0.149895 0.130602 0.862139 -0.136438
C41   C     C_R   0.682849 0.388256 0.493189 0.006998
C42   C     C_R   0.646249 0.680040 0.500139 -0.037245
C43   C     C_R   0.182187 0.886001 0.493183 0.002290
C44   C     C_R   0.146360 0.179909 0.500142 -0.036362
C45   C     C_R   0.315227 0.387703 0.496794 0.087728
C46   C     C_R   0.359594 0.684110 0.497889 -0.006529
C47   C     C_R   0.815158 0.887855 0.496754 0.088304
C48   C     C_R   0.858271 0.182923 0.498152 -0.008434
Ni1   Ni    Ni4+2 0.382890 0.500000 0.370170 0.245144
Ni2   Ni    Ni4+2 0.882890 0.000000 0.370170 0.245335
Ni3   Ni    Ni4+2 0.618740 0.500000 0.629830 0.277946
Ni4   Ni    Ni4+2 0.118740 0.000000 0.629830 0.277481
Ni5   Ni    Ni4+2 0.514090 0.500000 0.370170 0.253490
Ni6   Ni    Ni4+2 0.014090 0.000000 0.370170 0.253428
Ni7   Ni    Ni4+2 0.487550 0.500000 0.629830 0.306936
Ni8   Ni    Ni4+2 0.987550 0.000000 0.629830 0.306969
C49   C     C_3   0.270830 0.354906 0.600167 -0.262242
C50   C     C_3   0.350256 0.824808 0.532836 -0.248011
C51   C     C_3   0.770560 0.855243 0.599938 -0.262296
C52   C     C_3   0.853051 0.322471 0.541651 -0.252904
H25   H     H_    0.324315 0.337933 0.675417 0.129111
H26   H     H_    0.350841 0.844933 0.466082 0.153555
H27   H     H_    0.824036 0.838391 0.675322 0.129342
H28   H     H_    0.861257 0.342528 0.483154 0.145257
C53   C     C_3   0.717142 0.801063 0.593221 -0.308148
C54   C     C_3   0.802203 0.381502 0.535031 -0.283845
C55   C     C_3   0.217429 0.300729 0.593459 -0.308632
C56   C     C_3   0.301013 0.881055 0.534454 -0.285239
H29   H     H_    0.747473 0.773234 0.675142 0.146009
H30   H     H_    0.788187 0.423783 0.471396 0.177480
H31   H     H_    0.247816 0.272784 0.675301 0.145620
H32   H     H_    0.285932 0.926859 0.474302 0.178608
H33   H     H_    0.166874 0.400213 0.385779 0.243462
H34   H     H_    0.347898 0.709322 0.658933 0.225956
H35   H     H_    0.666707 0.900221 0.385369 0.243354
H36   H     H_    0.839697 0.197412 0.650428 0.221125
H37   H     H_    0.595492 0.800782 0.360494 0.220942
H38   H     H_    0.779957 0.289998 0.654722 0.254337
H39   H     H_    0.095619 0.300820 0.360866 0.221285
H40   H     H_    0.275213 0.787437 0.653002 0.251487
C57   C     C_3   0.189574 0.344140 0.390116 -0.311478
C58   C     C_3   0.299183 0.714457 0.571449 -0.327603
C59   C     C_3   0.689501 0.844159 0.389943 -0.311833
C60   C     C_3   0.793382 0.211901 0.564182 -0.322619
C61   C     C_3   0.293751 0.256056 0.505798 -0.495131
C62   C     C_3   0.244288 0.749277 0.376929 -0.477635
C63   C     C_3   0.793744 0.756243 0.506059 -0.495359
C64   C     C_3   0.745928 0.253566 0.376014 -0.476714
C65   C     C_3   0.267353 0.338540 0.498017 0.198990
C66   C     C_3   0.315699 0.743047 0.496598 0.188896
C67   C     C_3   0.767249 0.838720 0.497972 0.199467
C68   C     C_3   0.814982 0.242520 0.496909 0.185896
H41   H     H_    0.785211 0.742939 0.428705 0.233846
H42   H     H_    0.719166 0.197349 0.339026 0.208400
H43   H     H_    0.285161 0.242883 0.428367 0.234498
H44   H     H_    0.219066 0.691572 0.347775 0.210210
H45   H     H_    0.351752 0.251938 0.573827 0.207633
H46   H     H_    0.254320 0.767396 0.320161 0.228194
H47   H     H_    0.851743 0.752209 0.574135 0.207280
H48   H     H_    0.759635 0.275438 0.325296 0.231600
C69   C     C_3   0.690039 0.738344 0.501237 0.135421
C70   C     C_3   0.731451 0.339518 0.490962 0.078841
C71   C     C_3   0.190152 0.238159 0.501231 0.133949
C72   C     C_3   0.230824 0.837667 0.490789 0.080303
C73   C     C_3   0.646405 0.778918 0.386489 -0.401863
C74   C     C_3   0.749634 0.270636 0.567597 -0.318539
C75   C     C_3   0.146454 0.278911 0.386612 -0.401861
C76   C     C_3   0.249551 0.768588 0.567208 -0.323440
C77   C     C_3   0.755075 0.697580 0.522987 0.547901
C78   C     C_3   0.694649 0.307083 0.370183 0.523745
C79   C     C_3   0.255045 0.197339 0.522589 0.550079
C80   C     C_3   0.193874 0.804803 0.370222 0.524972
H49   H     H_    0.184616 0.338667 0.314868 0.164069
H50   H     H_    0.274409 0.656359 0.543819 0.212795
H51   H     H_    0.684645 0.838581 0.314799 0.163815
H52   H     H_    0.761924 0.157987 0.525211 0.216374
H53   H     H_    0.632910 0.737858 0.320954 0.195783
H54   H     H_    0.700867 0.242494 0.543693 0.220994
H55   H     H_    0.132814 0.237956 0.320891 0.195810
H56   H     H_    0.201035 0.736825 0.538257 0.221117
H57   H     H_    0.758116 0.376385 0.999895 0.119583
H58   H     H_    0.776295 0.588900 0.050537 0.132288
H59   H     H_    0.257803 0.876214 0.000040 0.119030
H60   H     H_    0.276078 0.088965 0.050504 0.131413
C81   C     C_2   0.678305 0.290853 0.923024 0.341650
C82   C     C_2   0.695444 0.671462 0.969317 0.311833
C83   C     C_2   0.178052 0.790603 0.922698 0.342878
C84   C     C_2   0.195406 0.171728 0.969072 0.310683
C85   C     C_2   0.743925 0.318059 0.002954 -0.214543
C86   C     C_2   0.760647 0.646501 0.052258 -0.238347
C87   C     C_2   0.243604 0.817837 0.002878 -0.212580
C88   C     C_2   0.260481 0.146594 0.052206 -0.235022
C89   C     C_2   0.324771 0.709863 0.078123 0.230678
C90   C     C_2   0.344417 0.254243 0.126344 0.222526
C91   C     C_2   0.824820 0.209837 0.077944 0.230903
C92   C     C_2   0.843933 0.754746 0.125339 0.223347
C93   C     C_2   0.299255 0.771599 0.094308 0.282486
C94   C     C_2   0.314132 0.197844 0.143122 0.322543
C95   C     C_2   0.799664 0.271817 0.094328 0.282562
C96   C     C_2   0.814410 0.697886 0.142842 0.322052
C97   C     C_2   0.157429 0.340326 0.580089 0.553271
H61   H     H_    0.145128 0.323910 0.632837 0.036227
O1    O     O_2   0.121436 0.388686 0.509536 -0.532153
C98   C     C_2   0.337339 0.924801 0.642650 0.590885
H62   H     H_    0.341886 0.986607 0.643522 0.101800
O2    O     O_2   0.361729 0.892432 0.728988 -0.510078
C99   C     C_2   0.657035 0.840653 0.579554 0.552099
H63   H     H_    0.644751 0.824431 0.632386 0.037358
O3    O     O_2   0.620962 0.888821 0.508720 -0.533108
C100  C     C_2   0.836304 0.431033 0.637935 0.587631
H64   H     H_    0.841130 0.492218 0.632853 0.106869
O4    O     O_2   0.858929 0.404054 0.726620 -0.510091
Br1   Br    Br    0.822929 0.656467 0.673106 -0.508755
Br2   Br    Br    0.669420 0.387102 0.262470 -0.445154
Br3   Br    Br    0.322897 0.155776 0.672392 -0.510362
Br4   Br    Br    0.170778 0.884740 0.263638 -0.444663
Br5   Br    Br    0.728657 0.609771 0.423946 -0.507887
Br6   Br    Br    0.607863 0.246528 0.306306 -0.499634
Br7   Br    Br    0.228385 0.109748 0.423133 -0.504112
Br8   Br    Br    0.105759 0.746301 0.304138 -0.498030
C101  C     C_2   0.725194 0.356611 0.799261 0.519759
H65   H     H_    0.766884 0.399373 0.844928 0.072136
O5    O     O_2   0.734532 0.297835 0.768172 -0.522455
C102  C     C_2   0.741919 0.586910 0.845348 0.448609
H66   H     H_    0.787614 0.612917 0.920500 0.106997
O6    O     O_2   0.751498 0.541285 0.796984 -0.592222
C103  C     C_2   0.225375 0.856916 0.799907 0.518021
H67   H     H_    0.266797 0.900007 0.845027 0.071525
O7    O     O_2   0.235169 0.797904 0.769897 -0.522548
C104  C     C_2   0.241890 0.086830 0.845341 0.446753
H68   H     H_    0.287607 0.112545 0.920718 0.107209
O8    O     O_2   0.251417 0.041202 0.796874 -0.595014
Br9   Br    Br    0.337532 0.807167 0.239748 -0.539284
Br10  Br    Br    0.335540 0.182650 0.283306 -0.460972
Br11  Br    Br    0.838794 0.307791 0.239978 -0.535995
Br12  Br    Br    0.837657 0.681836 0.284087 -0.459059
Br13  Br    Br    0.299377 0.678817 0.939439 -0.396512
Br14  Br    Br    0.331803 0.262299 0.992241 -0.520624
Br15  Br    Br    0.799041 0.178787 0.938977 -0.395500
Br16  Br    Br    0.829565 0.763876 0.989965 -0.520638
Br17  Br    Br    0.645448 0.193708 0.932521 -0.445925
Br18  Br    Br    0.662327 0.768490 0.978169 -0.478972
Br19  Br    Br    0.145167 0.693321 0.931743 -0.445513
Br20  Br    Br    0.162454 0.268960 0.977653 -0.490727
C105  C     C_2   0.535606 0.362582 0.829642 0.514659
H69   H     H_    0.530441 0.306492 0.853097 0.091842
O9    O     O_2   0.517549 0.418580 0.852215 -0.523890
C106  C     C_2   0.546597 0.600262 0.855141 0.603869
H70   H     H_    0.572183 0.625003 0.936448 0.073451
O10   O     O_2   0.491428 0.564729 0.809218 -0.547480
C107  C     C_2   0.035213 0.862045 0.828906 0.516014
H71   H     H_    0.029494 0.805759 0.851174 0.091087
O11   O     O_2   0.017589 0.917876 0.852472 -0.522321
C108  C     C_2   0.046712 0.100405 0.855232 0.602319
H72   H     H_    0.072005 0.125814 0.936071 0.074893
O12   O     O_2   0.992047 0.064031 0.810085 -0.544970
C109  C     C_2   0.264846 0.438522 0.620497 0.653197
H73   H     H_    0.274439 0.454355 0.696156 0.044823
O13   O     O_2   0.249727 0.488388 0.554500 -0.572493
C110  C     C_2   0.427530 0.826668 0.635808 0.580170
H74   H     H_    0.466130 0.852185 0.631677 0.041121
O14   O     O_2   0.447476 0.800990 0.723718 -0.519991
C111  C     C_2   0.764439 0.938890 0.619930 0.653311
H75   H     H_    0.773871 0.954848 0.695416 0.045205
O15   O     O_2   0.749390 0.988650 0.553857 -0.572787
C112  C     C_2   0.926990 0.319383 0.652759 0.585249
H76   H     H_    0.971350 0.340347 0.659736 0.037027
O16   O     O_2   0.937925 0.294309 0.734963 -0.517788

loop_
_geom_bond_atom_site_label_1
_geom_bond_atom_site_label_2
_geom_bond_distance
_ccdc_geom_bond_type
C22   H18   1.071099 S    
C70   C74   1.558783 S    
C11   C43   1.362209 A    
C99   H63   1.085466 S    
C106  O10   1.218917 D    
C64   H48   1.111601 S    
C10   C42   1.376779 A    
C26   C106  1.476469 S    
C58   H50   1.114407 S    
C48   C68   1.483520 S    
C15   H11   1.072875 S    
C103  H67   1.082959 S    
C14   N14   1.335485 A    
C27   C107  1.468231 S    
C32   H24   1.079179 S    
C39   C83   1.464136 S    
C60   C68   1.548616 S    
C31   N31   1.344957 A    
C24   C48   1.376172 A    
C47   C67   1.464292 S    
C64   C68   1.555111 S    
N31   Ni6   1.869057 S    
C30   C34   1.383955 A    
C7    N7    1.328444 A    
C99   O3    1.221081 D    
C8    C104  1.479377 S    
N27   Ni8   1.857427 S    
C14   C46   1.386526 A    
N12   Ni6   1.857948 S    
N18   Ni3   1.869834 S    
C51   C53   1.563015 S    
C72   C76   1.556847 S    
C86   C96   1.466800 S    
C8    N8    1.336617 A    
C26   C38   1.395092 A    
C85   C95   1.450883 S    
N6    N26   1.406076 A    
C25   C37   1.395896 A    
C62   C66   1.555773 S    
N5    Ni3   1.857730 S    
C7    C39   1.381579 A    
C109  H73   1.085309 S    
C16   N16   1.334535 A    
C100  O4    1.220417 D    
C27   C39   1.395548 A    
N25   Ni7   1.857427 S    
H57   C85   1.086884 S    
N1    Ni1   1.880995 S    
C51   C67   1.572690 S    
C32   N32   1.343776 A    
C19   C43   1.383667 A    
C106  H70   1.084584 S    
N8    N28   1.406076 A    
C3    C35   1.383992 A    
C105  H69   1.083776 S    
C82   C86   1.344370 D    
C62   H44   1.112440 S    
C2    C34   1.368689 A    
C89   C93   1.351610 D    
C54   C100  1.518939 S    
N6    Ni3   1.848392 S    
C63   C77   1.529907 S    
C64   H42   1.111295 S    
H60   C88   1.085258 S    
C23   N23   1.323156 A    
C55   H31   1.110011 S    
C22   N22   1.313990 A    
N20   Ni4   1.869834 S    
C96   Br12  1.924725 S    
N3    N31   1.406076 A    
C98   H62   1.084298 S    
C31   H23   1.080151 S    
C79   Br3   1.965857 S    
C110  O14   1.220402 D    
C50   C110  1.518713 S    
C26   N26   1.357890 A    
C33   C90   1.460964 S    
C59   H51   1.109363 S    
C6    C38   1.384819 A    
C90   Br14  1.925813 S    
C84   Br20  1.925835 S    
C93   Br9   1.927056 S    
C4    N4    1.325837 A    
C15   N15   1.325443 A    
C31   C35   1.398549 A    
C20   N20   1.329835 A    
C36   C91   1.438319 S    
C4    H4    1.079647 S    
C56   H32   1.110646 S    
C104  O8    1.220129 D    
N1    N29   1.406076 A    
N7    Ni4   1.857730 S    
C30   N30   1.343757 A    
C18   C42   1.381354 A    
C75   H55   1.111093 S    
C50   C56   1.575191 S    
C60   H52   1.114902 S    
C53   C69   1.572892 S    
C43   C72   1.486566 S    
C87   C93   1.450497 S    
N5    N25   1.406076 A    
C6    C102  1.479455 S    
C2    H2    1.079708 S    
N24   Ni2   1.870047 S    
C40   C84   1.471824 S    
C58   C76   1.515013 S    
C83   Br19  1.923382 S    
C102  H66   1.076436 S    
N16   Ni8   1.870066 S    
H33   C57   1.110519 S    
C18   H14   1.072110 S    
C92   Br16  1.924399 S    
N29   Ni5   1.869057 S    
C84   C88   1.344218 D    
C107  O11   1.216190 D    
C79   Br7   1.965293 S    
C20   C44   1.381245 A    
C61   C79   1.529954 S    
C49   C109  1.521069 S    
N4    N32   1.406076 A    
N10   Ni5   1.857948 S    
C1    N1    1.330063 A    
C59   C73   1.529694 S    
N30   Ni5   1.890500 S    
H35   C59   1.110486 S    
C50   C66   1.565042 S    
C5    C101  1.459974 S    
C105  O9    1.216297 D    
N26   Ni7   1.836320 S    
C52   C68   1.568126 S    
C82   Br18  1.926034 S    
C81   C85   1.344695 D    
C100  H64   1.084085 S    
C19   H15   1.073506 S    
C101  H65   1.082910 S    
C9    N9    1.311837 A    
C80   Br4   1.972728 S    
C17   N17   1.336071 A    
C13   H9    1.072782 S    
H38   C74   1.109163 S    
C51   H27   1.113283 S    
C5    C37   1.381600 A    
C49   C65   1.572635 S    
C11   N11   1.311714 A    
C32   C36   1.383865 A    
C15   C47   1.372424 A    
C63   C67   1.556400 S    
C94   Br10  1.926511 S    
C12   N12   1.317545 A    
C53   H29   1.110090 S    
C77   Br1   1.966144 S    
C83   C87   1.344514 D    
C29   C33   1.398632 A    
N10   N18   1.368200 A    
C30   H22   1.079171 S    
C60   C74   1.514958 S    
C63   H47   1.113329 S    
C49   C55   1.562667 S    
C42   C69   1.470748 S    
C16   H12   1.068467 S    
N28   Ni8   1.836320 S    
C45   C65   1.463920 S    
C110  H74   1.085429 S    
C18   N18   1.330085 A    
N3    Ni2   1.880995 S    
C17   H13   1.072537 S    
C54   C70   1.578436 S    
C8    C40   1.384654 A    
C95   Br11  1.926648 S    
C28   N28   1.357887 A    
C62   H46   1.111476 S    
C25   N25   1.357528 A    
N17   Ni3   1.861110 S    
C53   C99   1.521554 S    
C50   H26   1.114709 S    
N19   Ni4   1.861110 S    
C52   C54   1.576239 S    
C78   Br6   1.979396 S    
C49   H25   1.113331 S    
C59   C67   1.552039 S    
N21   Ni1   1.878812 S    
C77   Br5   1.965528 S    
C28   C40   1.395228 A    
C27   N27   1.357489 A    
C108  O12   1.218792 D    
C11   H7    1.075175 S    
C4    C36   1.369220 A    
N13   Ni7   1.849134 S    
C71   C75   1.565994 S    
C23   H19   1.079136 S    
N16   N24   1.368200 A    
C101  O5    1.217964 D    
N15   Ni8   1.849134 S    
N22   Ni1   1.870047 S    
C69   C77   1.580497 S    
C111  H75   1.085156 S    
C88   C94   1.466639 S    
C69   C73   1.566084 S    
C1    H1    1.080362 S    
C10   H6    1.074721 S    
C89   Br13  1.914069 S    
C61   H43   1.113773 S    
C19   N19   1.335809 A    
H40   C76   1.107637 S    
N9    Ni5   1.878974 S    
C61   H45   1.113361 S    
C9    H5    1.074534 S    
N2    N30   1.406076 A    
C1    C33   1.384135 A    
C10   N10   1.317743 A    
H34   C58   1.110214 S    
C14   H10   1.068796 S    
H39   C75   1.111074 S    
C57   H49   1.109402 S    
C55   C97   1.521522 S    
N14   Ni7   1.870066 S    
C28   C108  1.476223 S    
C12   H8    1.074749 S    
C73   H53   1.111190 S    
C21   N21   1.323090 A    
C111  O15   1.221154 D    
H37   C73   1.111146 S    
C81   Br17  1.923423 S    
N13   N21   1.367912 A    
C12   C44   1.376647 A    
C103  O7    1.217800 D    
N23   Ni2   1.878812 S    
C21   H17   1.079133 S    
C112  H76   1.085870 S    
C74   H54   1.113240 S    
C61   C65   1.556508 S    
C23   C47   1.371701 A    
H36   C60   1.110636 S    
C21   C45   1.371674 A    
C35   C92   1.460824 S    
C56   C98   1.518701 S    
C3    H3    1.080392 S    
C5    N5    1.328547 A    
C102  O6    1.219655 D    
C24   H20   1.071095 S    
C24   N24   1.314335 A    
C13   N13   1.325199 A    
C41   C70   1.488525 S    
C80   Br8   1.979260 S    
C13   C45   1.372322 A    
C97   O1    1.221147 D    
C108  H72   1.084541 S    
N32   Ni6   1.890500 S    
C57   C65   1.552050 S    
C51   C111  1.520990 S    
C78   Br2   1.973013 S    
C57   C75   1.529595 S    
N4    Ni2   1.890482 S    
C44   C71   1.470217 S    
C25   C105  1.468326 S    
C16   C48   1.385248 A    
N9    N17   1.367912 A    
C58   C66   1.550356 S    
C22   C46   1.376337 A    
C56   C72   1.580228 S    
N7    N27   1.406076 A    
N11   Ni6   1.878974 S    
C71   C79   1.580491 S    
C54   H30   1.110367 S    
C76   H56   1.112443 S    
C37   C81   1.464285 S    
C62   C80   1.527763 S    
C72   C80   1.587910 S    
C7    C103  1.459592 S    
C97   H61   1.085451 S    
C29   H21   1.080262 S    
C91   C95   1.351333 D    
C55   C71   1.572852 S    
C3    N3    1.330115 A    
C9    C41   1.363147 A    
C90   C94   1.356676 D    
C29   N29   1.344912 A    
H58   C86   1.085341 S    
C70   C78   1.588719 S    
C52   H28   1.115100 S    
C63   H41   1.113774 S    
C112  O16   1.221214 D    
H59   C87   1.086895 S    
C92   C96   1.356310 D    
N15   N23   1.367912 A    
C104  H68   1.076048 S    
C109  O13   1.221310 D    
C64   C78   1.528537 S    
N14   N22   1.368200 A    
N2    Ni1   1.890482 S    
C17   C41   1.384325 A    
C38   C82   1.472049 S    
N11   N19   1.367912 A    
C20   H16   1.072185 S    
C91   Br15  1.914436 S    
N12   N20   1.368200 A    
C98   O2    1.220459 D    
C46   C66   1.485779 S    
C52   C112  1.519247 S    
C107  H71   1.083633 S    
C6    N6    1.336809 A    
N8    Ni4   1.848392 S    
C34   C89   1.437686 S    
C2    N2    1.325488 A    
