data_mof_unit_48223.cif
_audit_creation_date              2012-12-10T17:50:40-0500
_audit_creation_method            fapswitch 2.2
_symmetry_space_group_name_H-M    P1
_symmetry_Int_Tables_number       1
_space_group_crystal_system       triclinic
_cell_length_a                    15.725615
_cell_length_b                    10.676917
_cell_length_c                    9.978826
_cell_angle_alpha                 89.830347
_cell_angle_beta                  90.046874
_cell_angle_gamma                 93.11823
_cell_volume                      1672.96737018

loop_
_atom_site_label
_atom_site_type_symbol
_atom_type_description
_atom_site_fract_x
_atom_site_fract_y
_atom_site_fract_z
_atom_type_partial_charge
C1    C     C_R   0.506818 0.260194 0.500427 0.872268
C2    C     C_R   0.509835 0.047733 0.867632 -0.222817
C3    C     C_R   0.455570 0.940528 0.865090 -0.171472
C4    C     C_R   0.338263 0.498919 0.499988 0.880120
C5    C     C_R   0.432675 0.884743 0.742401 0.236084
C6    C     C_R   0.468906 0.936011 0.621718 0.078189
C7    C     C_R   0.505560 0.058186 0.624155 0.010886
C8    C     C_R   0.512942 0.125126 0.501411 -0.167740
C9    C     C_R   0.508287 0.060232 0.378388 0.200229
C10   C     C_R   0.490314 0.933106 0.379406 -0.296020
C11   C     C_R   0.475333 0.869846 0.500105 -0.157953
C12   C     C_3   0.083640 0.499459 0.501966 0.055870
C13   C     C_R   0.387850 0.333205 0.139126 -0.199861
C14   C     C_R   0.332570 0.247308 0.070418 0.198379
C15   C     C_R   0.334278 0.247334 0.929821 0.156457
C16   C     C_R   0.489795 0.737923 0.500089 0.903152
C17   C     C_R   0.389600 0.331715 0.861135 -0.224105
C18   C     C_R   0.445455 0.417173 0.928263 0.059614
C19   C     C_R   0.445073 0.417509 0.071835 0.062766
C20   C     C_R   0.553238 0.580235 0.071480 0.224963
C21   C     C_R   0.553241 0.580173 0.928072 0.214556
C22   C     C_R   0.661787 0.500261 0.500057 0.888520
C23   C     C_3   0.974993 0.607267 0.556701 -0.188450
C24   C     C_3   0.967979 0.399155 0.575565 -0.284255
C25   C     C_3   0.023943 0.392887 0.448830 0.193000
C26   C     C_1   0.249530 0.498601 0.500270 -0.195323
C27   C     C_1   0.750638 0.499359 0.500233 -0.186487
C28   C     C_3   0.027718 0.508279 0.626232 0.260568
C29   C     C_3   0.990587 0.182352 0.360043 -0.797047
C30   C     C_3   0.362311 0.782995 0.743720 -0.861435
C31   C     C_3   0.614354 0.672742 0.141890 -0.832602
C32   C     C_3   0.273797 0.154786 0.284355 -0.832791
C33   C     C_3   0.196784 0.208603 0.827952 -0.803575
C34   C     C_3   0.916715 0.498246 0.501999 0.068337
C35   C     C_3   0.614876 0.671948 0.857265 -0.811752
C36   C     C_3   0.999353 0.486566 0.135135 -0.789050
C37   C     C_3   0.108048 0.629561 0.796936 -0.786859
C38   C     C_3   0.613107 0.145341 0.221811 -0.745753
C39   C     C_3   0.031857 0.598584 0.429225 -0.250729
C40   C     C_3   0.972399 0.489873 0.376874 0.242631
C41   C     C_1   0.174359 0.498744 0.501086 -0.056869
C42   C     C_1   0.825883 0.498621 0.500822 -0.041680
C43   C     C_R   0.533456 0.107883 0.748637 -0.140992
H1    H     H_    0.431268 0.901062 0.958545 0.142892
H2    H     H_    0.099427 0.295559 0.317442 0.236569
H3    H     H_    0.021897 0.096052 0.329990 0.241641
H4    H     H_    0.950465 0.212485 0.275626 0.235802
H5    H     H_    0.949938 0.159691 0.448721 0.245202
H6    H     H_    0.341520 0.755909 0.641096 0.226841
H7    H     H_    0.383284 0.699468 0.798547 0.266929
H8    H     H_    0.305857 0.817631 0.795916 0.219276
H9    H     H_    0.599639 0.770167 0.114991 0.206138
H10   H     H_    0.613181 0.668172 0.250193 0.293877
H11   H     H_    0.680911 0.655781 0.113404 0.219358
H12   H     H_    0.492775 0.883347 0.285040 0.177696
H13   H     H_    0.260839 0.076708 0.092363 0.250420
H14   H     H_    0.222812 0.085737 0.317932 0.247568
H15   H     H_    0.259881 0.247154 0.327619 0.247318
H16   H     H_    0.335791 0.124057 0.321820 0.246898
H17   H     H_    0.307657 0.128170 0.770930 0.236339
H18   H     H_    0.203224 0.291641 0.760490 0.241915
H19   H     H_    0.164853 0.234614 0.922409 0.255767
H20   H     H_    0.156385 0.134238 0.777669 0.243281
H21   H     H_    0.613473 0.667931 0.748999 0.292699
H22   H     H_    0.601100 0.769579 0.883940 0.220762
H23   H     H_    0.386102 0.332476 0.245231 0.231440
H24   H     H_    0.681285 0.653678 0.885693 0.212405
H25   H     H_    0.890658 0.410687 0.231512 0.224060
H26   H     H_    0.965749 0.493094 0.037684 0.256148
H27   H     H_    0.036107 0.400777 0.134721 0.235369
H28   H     H_    0.043569 0.570663 0.145501 0.245213
H29   H     H_    0.085757 0.435576 0.794754 0.226076
H30   H     H_    0.168968 0.635319 0.740547 0.248853
H31   H     H_    0.122713 0.629259 0.905777 0.238500
H32   H     H_    0.071606 0.713343 0.774602 0.244109
H33   H     H_    0.489451 0.080990 0.174799 0.210611
H34   H     H_    0.386292 0.328871 0.754584 0.222400
H35   H     H_    0.619280 0.203160 0.129331 0.228233
H36   H     H_    0.644127 0.055562 0.205448 0.220287
H37   H     H_    0.646095 0.198141 0.304333 0.246367
H38   H     H_    0.940975 0.319339 0.636338 0.149302
H39   H     H_    0.059333 0.678915 0.369702 0.153955
H40   H     H_    0.952790 0.694237 0.602634 0.145904
H41   H     H_    0.575366 0.191344 0.755311 0.172024
H42   H     H_    0.530863 0.088077 0.961453 0.153511
N1    N     N_R   0.499210 0.498800 0.142780 -0.125215
N2    N     N_R   0.499180 0.498720 0.857170 -0.134629
N3    N     N_2   0.054945 0.279345 0.392122 -0.301398
N4    N     N_2   0.274298 0.161387 0.139351 -0.298764
N5    N     N_2   0.279664 0.162263 0.855917 -0.314519
N6    N     N_2   0.937656 0.480988 0.242579 -0.301260
N7    N     N_2   0.058510 0.516058 0.762902 -0.307310
N8    N     N_2   0.523909 0.120963 0.253006 -0.278041
O1    O     O_R   0.500000 0.316780 0.614690 -0.648122
O2    O     O_R   0.499990 0.316750 0.385360 -0.595371
O3    O     O_R   0.376780 0.500000 0.614650 -0.632565
O4    O     O_R   0.376770 0.499980 0.385310 -0.630797
O5    O     O_R   0.500010 0.683250 0.614640 -0.620322
O6    O     O_R   0.500000 0.683220 0.385310 -0.633663
O7    O     O_R   0.623230 0.500020 0.614690 -0.622517
O8    O     O_R   0.623220 0.500000 0.385350 -0.618422
Zn1   Zn    Zn3+2 0.500010 0.500020 0.653130 0.910994
Zn2   Zn    Zn3+2 0.499990 0.499980 0.346870 0.930987

loop_
_geom_bond_atom_site_label_1
_geom_bond_atom_site_label_2
_ccdc_geom_bond_type
O6    Zn2   S    
C37   H31   S    
C21   N2    A    
O3    Zn1   S    
C1    C8    S    
C34   C42   S    
C32   H15   S    
C31   H9    S    
C30   H8    S    
C19   N1    A    
C7    C8    A    
C22   O8    A    
C23   H40   S    
C29   H4    S    
C34   C40   S    
C33   H19   S    
C25   C40   S    
C5    C6    A    
H29   N7    S    
C38   H36   S    
C35   H22   S    
H25   N6    S    
C2    H42   S    
C18   C19   A    
C29   N3    S    
C4    O3    A    
C36   H27   S    
C8    C9    A    
C20   N1    A    
C35   H21   S    
C7    C43   A    
C9    C10   A    
C36   H28   S    
C33   H20   S    
C30   H7    S    
O8    Zn2   S    
C4    O4    A    
C43   H41   S    
C32   H14   S    
N1    Zn2   S    
C17   H34   S    
O2    Zn2   S    
C13   H23   S    
C3    H1    S    
C22   O7    A    
C13   C19   A    
C29   H5    S    
C31   H11   S    
H2    N3    S    
C24   C25   S    
C6    C11   A    
C1    O1    A    
C38   H35   S    
O5    Zn1   S    
C25   N3    S    
C24   C34   S    
C24   H38   S    
C14   N4    S    
C12   C41   S    
H33   N8    S    
N2    Zn1   S    
C11   C16   S    
C32   N4    S    
C35   H24   S    
C2    C43   A    
C1    O2    A    
C23   C34   S    
O7    Zn1   S    
C17   C18   A    
C28   N7    S    
C23   C28   S    
C31   H10   S    
C10   H12   S    
O4    Zn2   S    
C36   N6    S    
H13   N4    S    
C30   H6    S    
C12   C28   S    
C22   C27   S    
C9    N8    S    
C39   C40   S    
C36   H26   S    
C5    C30   S    
C15   C17   A    
C37   H30   S    
C37   N7    S    
C24   C28   S    
C39   H39   S    
C3    C5    A    
C4    C26   S    
C16   O6    A    
C6    C7    A    
C21   C35   S    
H17   N5    S    
C29   H3    S    
C18   N2    A    
C12   C25   S    
C12   C39   S    
C2    C3    A    
C33   N5    S    
C15   N5    S    
C27   C42   T    
C16   O5    A    
C38   H37   S    
C23   C39   S    
C38   N8    S    
C40   N6    S    
C37   H32   S    
C10   C11   A    
C20   C21   A    
O1    Zn1   S    
C33   H18   S    
C14   C15   A    
C32   H16   S    
C13   C14   A    
C26   C41   T    
C20   C31   S    
