data_mof_unit_53894.cif
_audit_creation_date              2012-12-10T18:51:35-0500
_audit_creation_method            fapswitch 2.2
_symmetry_space_group_name_H-M    P1
_symmetry_Int_Tables_number       1
_space_group_crystal_system       triclinic
_cell_length_a                    10.716275
_cell_length_b                    9.915459
_cell_length_c                    10.585083
_cell_angle_alpha                 87.591588
_cell_angle_beta                  90.019248
_cell_angle_gamma                 90.283809
_cell_volume                      1123.72958496

loop_
_atom_site_label
_atom_site_type_symbol
_atom_type_description
_atom_site_fract_x
_atom_site_fract_y
_atom_site_fract_z
_atom_type_partial_charge
Br1   Br    Br    0.238749 0.626436 0.884628 -0.323085
Br2   Br    Br    0.761252 0.373566 0.115382 -0.323075
Br3   Br    Br    0.152353 0.296647 0.706379 -0.303214
Br4   Br    Br    0.847650 0.703347 0.293619 -0.303276
Br5   Br    Br    0.849056 0.280666 0.695439 -0.238685
Br6   Br    Br    0.150948 0.719326 0.304555 -0.238750
C1    C     C_R   0.872180 0.499089 0.499696 -0.275828
C2    C     C_3   0.402322 0.431627 0.047795 0.324707
C3    C     C_3   0.393675 0.554021 0.953729 0.088599
C4    C     C_3   0.606329 0.445976 0.046269 0.088763
C5    C     C_3   0.499323 0.492736 0.876815 -0.434994
C6    C     C_3   0.500682 0.507262 0.123182 -0.434867
C7    C     C_R   0.582523 0.075494 0.427272 0.014724
C8    C     C_R   0.417480 0.924506 0.572731 0.014483
C9    C     C_R   0.417463 0.067794 0.572545 0.041634
C10   C     C_R   0.582545 0.932206 0.427466 0.041686
C11   C     C_R   0.064526 0.410418 0.583498 0.216937
C12   C     C_R   0.127821 0.500912 0.500308 -0.275802
C13   C     C_R   0.935476 0.589581 0.416504 0.216926
C14   C     C_R   0.935625 0.407840 0.581993 0.259998
C15   C     C_R   0.064377 0.592159 0.418009 0.260016
C16   C     C_R   0.260327 0.500099 0.499649 0.998434
C17   C     C_R   0.739673 0.499901 0.500354 0.998391
C18   C     C_R   0.500547 0.502728 0.257707 1.039289
C19   C     C_R   0.499455 0.497272 0.742292 1.039258
C20   C     C_3   0.492573 0.629218 0.029852 0.260432
C21   C     C_3   0.507431 0.370780 0.970144 0.260646
C22   C     C_3   0.597684 0.568370 0.952202 0.324604
H1    H     H_    0.648745 0.132261 0.368810 0.155094
H2    H     H_    0.351258 0.867738 0.631194 0.155015
H3    H     H_    0.351130 0.118271 0.630480 0.190701
H4    H     H_    0.648893 0.881729 0.369548 0.190721
H5    H     H_    0.389276 0.877976 0.892881 0.376386
H6    H     H_    0.611210 0.121713 0.106709 0.376709
H7    H     H_    0.890441 0.761637 0.956071 0.411767
H8    H     H_    0.109750 0.237989 0.044033 0.411729
N1    N     N_R   0.500000 0.857200 0.500000 -0.102396
N2    N     N_R   0.500000 0.142800 0.500000 -0.102414
O1    O     O_R   0.316770 0.614620 0.499990 -0.612990
O2    O     O_2   0.603627 0.843027 0.127186 -0.212339
O3    O     O_3   0.476919 0.888585 0.920366 -0.413096
O4    O     O_2   0.396268 0.156896 0.873040 -0.212179
O5    O     O_2   0.624490 0.166381 0.859521 -0.197383
O6    O     O_3   0.523412 0.111433 0.079608 -0.413294
O7    O     O_2   0.806351 0.562843 0.810979 -0.274878
O8    O     O_2   0.685956 0.772152 0.798331 -0.219509
O9    O     O_3   0.817424 0.719879 0.000039 -0.412130
O10   O     O_2   0.314122 0.227686 0.201497 -0.219499
O11   O     O_2   0.193795 0.437050 0.189248 -0.274924
O12   O     O_R   0.683230 0.385380 0.500010 -0.612989
O13   O     O_3   0.182455 0.280316 0.999984 -0.412090
O14   O     O_R   0.683230 0.614620 0.500010 -0.593853
O15   O     O_R   0.316770 0.385380 0.499990 -0.593866
O16   O     O_R   0.499970 0.614650 0.313950 -0.576884
O17   O     O_R   0.500030 0.385350 0.686050 -0.576890
O18   O     O_R   0.500030 0.614650 0.686050 -0.597404
O19   O     O_R   0.499970 0.385350 0.313950 -0.597303
O20   O     O_2   0.375373 0.833681 0.140234 -0.197125
S1    S     S_3+6 0.486491 0.803099 0.060275 0.176879
S2    S     S_3+6 0.513520 0.196900 0.939711 0.176823
S3    S     S_3+6 0.729318 0.657811 0.884811 0.149107
S4    S     S_3+6 0.270711 0.342164 0.115206 0.149160
Zn1   Zn    Zn3+2 0.500000 0.653120 0.500000 1.083673
Zn2   Zn    Zn3+2 0.500000 0.346880 0.500000 1.083719

loop_
_geom_bond_atom_site_label_1
_geom_bond_atom_site_label_2
_ccdc_geom_bond_type
C4    C21   S    
O9    S3    S    
C9    N2    A    
C9    H3    S    
C4    C22   S    
C10   H4    S    
C12   C15   A    
O12   Zn2   S    
C20   S1    S    
C6    C18   S    
O10   S4    D    
C19   O18   A    
C5    C21   S    
C10   N1    A    
C2    C6    S    
H5    O3    S    
C22   S3    S    
C11   C12   A    
C17   O14   A    
O18   Zn1   S    
H6    O6    S    
O2    S1    D    
Br6   C15   S    
O17   Zn2   S    
C8    N1    A    
C3    C5    S    
C7    N2    A    
H8    O13   S    
C4    C6    S    
O5    S2    D    
O6    S2    S    
C1    C17   S    
C16   O1    A    
C5    C22   S    
O7    S3    D    
N1    Zn1   S    
C8    H2    S    
C3    C20   S    
Br3   C11   S    
C16   O15   A    
N2    Zn2   S    
C21   S2    S    
O15   Zn2   S    
O16   Zn1   S    
C5    C19   S    
O8    S3    D    
C18   O16   A    
O1    Zn1   S    
Br2   C4    S    
O4    S2    D    
C11   C14   A    
Br1   C3    S    
O3    S1    S    
O19   Zn2   S    
C1    C14   A    
C7    C10   A    
C7    H1    S    
Br5   C14   S    
C2    C21   S    
C8    C9    A    
C2    C3    S    
C1    C13   A    
O11   S4    D    
O13   S4    S    
C13   C15   A    
O20   S1    D    
C12   C16   S    
Br4   C13   S    
C20   C22   S    
H7    O9    S    
C19   O17   A    
C2    S4    S    
C6    C20   S    
C18   O19   A    
C17   O12   A    
O14   Zn1   S    
