data_mof_unit_26563.cif
_audit_creation_date              2012-12-11T16:19:18-0500
_audit_creation_method            fapswitch 2.2
_symmetry_space_group_name_H-M    P1
_symmetry_Int_Tables_number       1
_space_group_crystal_system       triclinic
_cell_length_a                    6.907747
_cell_length_b                    31.466012
_cell_length_c                    34.948507
_cell_angle_alpha                 89.976668
_cell_angle_beta                  89.999175
_cell_angle_gamma                 89.999576
_cell_volume                      7596.38063912

loop_
_atom_site_label
_atom_site_type_symbol
_atom_type_description
_atom_site_fract_x
_atom_site_fract_y
_atom_site_fract_z
_atom_type_partial_charge
O1    O     O_R   0.417270 0.211480 0.210950 -0.533402
O2    O     O_R   0.582730 0.788520 0.789050 -0.533402
O3    O     O_R   0.582730 0.788520 0.710950 -0.545012
O4    O     O_R   0.417270 0.211480 0.289050 -0.545012
O5    O     O_R   0.917270 0.288520 0.289050 -0.533398
O6    O     O_R   0.082730 0.711480 0.710950 -0.533398
O7    O     O_R   0.082730 0.711480 0.789050 -0.545012
O8    O     O_R   0.917270 0.288520 0.210950 -0.545011
O9    O     O_R   0.746940 0.206370 0.288750 -0.531483
O10   O     O_R   0.253060 0.793630 0.711250 -0.531483
O11   O     O_R   0.253060 0.793630 0.788750 -0.548524
O12   O     O_R   0.746940 0.206370 0.211250 -0.548523
O13   O     O_R   0.246940 0.293630 0.211250 -0.531484
O14   O     O_R   0.753060 0.706370 0.788750 -0.531484
O15   O     O_R   0.753060 0.706370 0.711250 -0.548503
O16   O     O_R   0.246940 0.293630 0.288750 -0.548503
C1    C     C_R   0.577500 0.194911 0.301049 0.680072
C2    C     C_R   0.422500 0.805089 0.698951 0.680072
C3    C     C_R   0.422130 0.805142 0.801094 0.678020
C4    C     C_R   0.577870 0.194858 0.198906 0.678019
C5    C     C_R   0.077501 0.305089 0.198951 0.680049
C6    C     C_R   0.922499 0.694910 0.801049 0.680051
C7    C     C_R   0.922133 0.694859 0.698905 0.677995
C8    C     C_R   0.077867 0.305141 0.301095 0.677994
O17   O     O_3   0.583760 0.276950 0.250000 -0.366326
O18   O     O_3   0.416240 0.723050 0.750000 -0.366326
O19   O     O_3   0.083760 0.223050 0.250000 -0.366338
O20   O     O_3   0.916240 0.776950 0.750000 -0.366339
V1    V     V_3+5 0.858600 0.245000 0.250000 1.434953
V2    V     V_3+5 0.141400 0.755000 0.750000 1.434951
V3    V     V_3+5 0.358600 0.255000 0.250000 1.434975
V4    V     V_3+5 0.641400 0.745000 0.750000 1.434976
C9    C     C_R   0.952235 0.587573 0.538526 0.553114
C10   C     C_R   0.047765 0.412427 0.461474 0.553112
C11   C     C_R   0.873138 0.425444 0.051599 0.576594
C12   C     C_R   0.126862 0.574557 0.948401 0.576594
C13   C     C_R   0.452674 0.912415 0.961477 0.553052
C14   C     C_R   0.547328 0.087584 0.038523 0.553053
C15   C     C_R   0.373136 0.074557 0.448402 0.576589
C16   C     C_R   0.626865 0.925443 0.551598 0.576588
N1    N     N_R   0.975388 0.573533 0.575379 -0.548087
N2    N     N_R   0.024612 0.426467 0.424621 -0.548086
N3    N     N_R   0.032861 0.425934 0.074960 -0.546975
N4    N     N_R   0.967138 0.574066 0.925040 -0.546974
N5    N     N_R   0.475401 0.926471 0.924619 -0.548073
N6    N     N_R   0.524601 0.073529 0.075381 -0.548072
N7    N     N_R   0.532860 0.074066 0.425040 -0.546975
N8    N     N_R   0.467140 0.925934 0.574960 -0.546975
C17   C     C_R   0.008330 0.531525 0.583047 0.606264
C18   C     C_R   0.991670 0.468475 0.416953 0.606265
C19   C     C_R   0.178679 0.454682 0.069282 0.622615
C20   C     C_R   0.821321 0.545318 0.930718 0.622615
C21   C     C_R   0.507920 0.968494 0.916946 0.606252
C22   C     C_R   0.492081 0.031506 0.083054 0.606251
C23   C     C_R   0.678679 0.045319 0.430718 0.622612
C24   C     C_R   0.321321 0.954681 0.569282 0.622613
C25   C     C_R   0.015792 0.501559 0.553211 -0.068122
C26   C     C_R   0.984207 0.498441 0.446789 -0.068122
C27   C     C_R   0.166696 0.484847 0.039646 -0.032082
C28   C     C_R   0.833304 0.515153 0.960354 -0.032081
C29   C     C_R   0.515359 0.998457 0.946784 -0.068129
C30   C     C_R   0.484643 0.001542 0.053216 -0.068129
C31   C     C_R   0.666698 0.015154 0.460354 -0.032079
C32   C     C_R   0.333303 0.984846 0.539646 -0.032079
C33   C     C_R   0.996766 0.515204 0.515043 -0.002501
C34   C     C_R   0.003233 0.484796 0.484957 -0.002501
C35   C     C_R   0.006093 0.484609 0.014865 0.029337
C36   C     C_R   0.993907 0.515391 0.985136 0.029338
C37   C     C_R   0.496776 0.984798 0.984956 -0.002523
C38   C     C_R   0.503226 0.015202 0.015044 -0.002523
C39   C     C_R   0.506093 0.015392 0.485136 0.029338
C40   C     C_R   0.493907 0.984609 0.514864 0.029338
C41   C     C_R   0.971487 0.559137 0.507034 -0.100428
C42   C     C_R   0.028513 0.440863 0.492966 -0.100429
C43   C     C_R   0.858607 0.453579 0.019761 -0.087807
C44   C     C_R   0.141392 0.546421 0.980240 -0.087807
C45   C     C_R   0.471956 0.940853 0.992967 -0.100444
C46   C     C_R   0.528046 0.059147 0.007033 -0.100444
C47   C     C_R   0.358605 0.046421 0.480241 -0.087806
C48   C     C_R   0.641396 0.953579 0.519760 -0.087807
C49   C     C_R   0.037987 0.458181 0.561143 -0.105724
C50   C     C_R   0.962012 0.541819 0.438857 -0.105724
C51   C     C_R   0.310950 0.515738 0.035110 -0.107390
C52   C     C_R   0.689050 0.484262 0.964890 -0.107390
C53   C     C_R   0.537089 0.041846 0.938851 -0.105732
C54   C     C_R   0.462913 0.958154 0.061149 -0.105731
C55   C     C_R   0.810954 0.984263 0.464889 -0.107392
C56   C     C_R   0.189046 0.015738 0.535111 -0.107392
C57   C     C_R   0.039511 0.427597 0.531931 -0.048846
C58   C     C_R   0.960488 0.572403 0.468069 -0.048846
C59   C     C_R   0.298614 0.547185 0.006739 -0.029306
C60   C     C_R   0.701385 0.452815 0.993261 -0.029306
C61   C     C_R   0.538581 0.072425 0.968067 -0.048878
C62   C     C_R   0.461422 0.927575 0.031933 -0.048878
C63   C     C_R   0.798620 0.952815 0.493260 -0.029299
C64   C     C_R   0.201381 0.047185 0.506740 -0.029300
O21   O     O_2   0.903328 0.628527 0.532783 -0.535782
O22   O     O_2   0.096673 0.371473 0.467217 -0.535782
O23   O     O_2   0.727965 0.398371 0.059853 -0.537317
O24   O     O_2   0.272034 0.601630 0.940148 -0.537319
O25   O     O_2   0.404140 0.871442 0.967231 -0.535779
O26   O     O_2   0.595862 0.128558 0.032769 -0.535780
O27   O     O_2   0.227963 0.101630 0.440150 -0.537321
O28   O     O_2   0.772038 0.898370 0.559850 -0.537320
O29   O     O_2   0.033197 0.518702 0.619576 -0.497430
O30   O     O_2   0.966803 0.481298 0.380423 -0.497430
O31   O     O_2   0.333462 0.454747 0.092860 -0.503458
O32   O     O_2   0.666539 0.545253 0.907140 -0.503459
O33   O     O_2   0.532398 0.981334 0.880411 -0.497454
O34   O     O_2   0.467603 0.018666 0.119589 -0.497454
O35   O     O_2   0.833463 0.045254 0.407139 -0.503461
O36   O     O_2   0.166538 0.954746 0.592861 -0.503460
H1    H     H_    0.046721 0.447682 0.590640 0.208584
H2    H     H_    0.953278 0.552318 0.409360 0.208583
H3    H     H_    0.431805 0.516453 0.054888 0.197038
H4    H     H_    0.568195 0.483547 0.945112 0.197038
H5    H     H_    0.545472 0.052355 0.909353 0.208594
H6    H     H_    0.454530 0.947645 0.090647 0.208594
H7    H     H_    0.931810 0.983548 0.445110 0.197035
H8    H     H_    0.068191 0.016452 0.554890 0.197035
C65   C     C_R   0.191625 0.399545 0.366916 -0.056824
C66   C     C_R   0.808375 0.600455 0.633084 -0.056826
C67   C     C_R   0.092248 0.602314 0.863728 -0.040551
C68   C     C_R   0.907755 0.397687 0.136273 -0.040549
C69   C     C_R   0.691740 0.100479 0.133061 -0.056904
C70   C     C_R   0.308257 0.899520 0.866940 -0.056907
C71   C     C_R   0.592247 0.897686 0.636272 -0.040555
C72   C     C_R   0.407751 0.102314 0.363729 -0.040557
H9    H     H_    0.296855 0.424781 0.370441 0.169156
H10   H     H_    0.703144 0.575220 0.629559 0.169156
H11   H     H_    0.204671 0.578329 0.864842 0.189077
H12   H     H_    0.795335 0.421673 0.135160 0.189076
H13   H     H_    0.797062 0.075265 0.129517 0.169154
H14   H     H_    0.202933 0.924733 0.870485 0.169152
H15   H     H_    0.704666 0.921672 0.635158 0.189076
H16   H     H_    0.295331 0.078329 0.364843 0.189077
C73   C     C_R   0.206466 0.371148 0.335813 -0.080712
C74   C     C_R   0.793533 0.628853 0.664186 -0.080710
C75   C     C_R   0.083304 0.630817 0.832626 -0.087209
C76   C     C_R   0.916699 0.369183 0.167375 -0.087210
C77   C     C_R   0.706584 0.128875 0.164164 -0.080664
C78   C     C_R   0.293412 0.871124 0.835836 -0.080663
C79   C     C_R   0.583303 0.869183 0.667374 -0.087186
C80   C     C_R   0.416695 0.130818 0.332627 -0.087187
C81   C     C_R   0.066968 0.338087 0.331758 -0.138569
C82   C     C_R   0.933032 0.661913 0.668242 -0.138569
C83   C     C_R   0.933411 0.661818 0.831450 -0.132525
C84   C     C_R   0.066589 0.338182 0.168550 -0.132524
C85   C     C_R   0.566977 0.161911 0.168244 -0.138641
C86   C     C_R   0.433023 0.838089 0.831756 -0.138644
C87   C     C_R   0.433414 0.838182 0.668550 -0.132524
C88   C     C_R   0.566586 0.161818 0.331450 -0.132524
C89   C     C_R   0.913865 0.335814 0.358330 -0.147603
C90   C     C_R   0.086136 0.664186 0.641670 -0.147602
C91   C     C_R   0.793750 0.662096 0.860771 -0.150848
C92   C     C_R   0.206247 0.337903 0.139228 -0.150855
C93   C     C_R   0.413761 0.164157 0.141696 -0.147447
C94   C     C_R   0.586243 0.835844 0.858304 -0.147439
C95   C     C_R   0.293758 0.837902 0.639228 -0.150864
C96   C     C_R   0.706245 0.162097 0.360771 -0.150857
H17   H     H_    0.805077 0.311152 0.355995 0.131757
H18   H     H_    0.194924 0.688848 0.644005 0.131758
H19   H     H_    0.677807 0.685283 0.860506 0.135514
H20   H     H_    0.322187 0.314716 0.139493 0.135512
H21   H     H_    0.304884 0.188798 0.144049 0.131789
H22   H     H_    0.695122 0.811203 0.855950 0.131790
H23   H     H_    0.177818 0.814715 0.639493 0.135507
H24   H     H_    0.822186 0.185284 0.360506 0.135507
C97   C     C_R   0.900218 0.364639 0.388638 -0.056739
C98   C     C_R   0.099783 0.635361 0.611363 -0.056738
C99   C     C_R   0.804682 0.633475 0.891338 -0.060120
C100  C     C_R   0.195315 0.366524 0.108661 -0.060121
C101  C     C_R   0.400102 0.135331 0.111390 -0.056552
C102  C     C_R   0.599902 0.864670 0.888609 -0.056548
C103  C     C_R   0.304690 0.866524 0.608662 -0.060125
C104  C     C_R   0.695313 0.133476 0.391338 -0.060125
H25   H     H_    0.781004 0.362103 0.408630 0.130437
H26   H     H_    0.218997 0.637896 0.591370 0.130437
H27   H     H_    0.697025 0.634856 0.913830 0.159827
H28   H     H_    0.302970 0.365143 0.086169 0.159826
H29   H     H_    0.280793 0.137844 0.091419 0.130424
H30   H     H_    0.719214 0.862157 0.908580 0.130423
H31   H     H_    0.197035 0.865143 0.586170 0.159823
H32   H     H_    0.802969 0.134857 0.413829 0.159824
C105  C     C_R   0.039234 0.396578 0.393277 0.333350
C106  C     C_R   0.960766 0.603422 0.606723 0.333350
C107  C     C_R   0.954841 0.603583 0.893269 0.311034
C108  C     C_R   0.045159 0.396417 0.106732 0.311035
C109  C     C_R   0.539230 0.103419 0.106725 0.333278
C110  C     C_R   0.460771 0.896581 0.893275 0.333279
C111  C     C_R   0.454843 0.896417 0.606731 0.311034
C112  C     C_R   0.545157 0.103583 0.393269 0.311033
C113  C     C_2   0.038370 0.382302 0.543899 0.490196
H33   H     H_    0.957938 0.358781 0.527791 0.101852
O37   O     O_2   0.122811 0.370945 0.572858 -0.500306
C114  C     C_2   0.961629 0.617698 0.456101 0.490198
H34   H     H_    0.042061 0.641219 0.472208 0.101852
O38   O     O_2   0.877185 0.629055 0.427142 -0.500307
C115  C     C_2   0.445120 0.581766 0.008148 0.438426
H35   H     H_    0.407355 0.614044 0.000420 0.110996
O39   O     O_2   0.609171 0.574861 0.019610 -0.534235
C116  C     C_2   0.554880 0.418235 0.991852 0.438426
H36   H     H_    0.592645 0.385956 0.999580 0.110995
O40   O     O_2   0.390828 0.425139 0.980390 -0.534235
C117  C     C_2   0.536899 0.117722 0.956107 0.490250
H37   H     H_    0.456413 0.141204 0.972252 0.101816
O41   O     O_2   0.620946 0.129122 0.927118 -0.500263
C118  C     C_2   0.463104 0.882278 0.043893 0.490250
H38   H     H_    0.543590 0.858796 0.027748 0.101816
O42   O     O_2   0.379058 0.870877 0.072882 -0.500263
C119  C     C_2   0.945130 0.918236 0.491851 0.438412
H39   H     H_    0.907368 0.885957 0.499578 0.110987
O43   O     O_2   0.109184 0.925141 0.480389 -0.534238
C120  C     C_2   0.054870 0.081765 0.508150 0.438412
H40   H     H_    0.092633 0.114044 0.500423 0.110987
O44   O     O_2   0.890817 0.074859 0.519611 -0.534239
C121  C     C_2   0.361704 0.378382 0.307105 0.430988
H41   H     H_    0.348921 0.365977 0.278298 0.068611
O45   O     O_2   0.505437 0.399152 0.315143 -0.509069
C122  C     C_2   0.638294 0.621618 0.692894 0.430985
H42   H     H_    0.651077 0.634023 0.721701 0.068612
O46   O     O_2   0.494561 0.600849 0.684856 -0.509070
C123  C     C_2   0.225569 0.626102 0.800999 0.434103
H43   H     H_    0.198350 0.640054 0.773155 0.056925
O47   O     O_2   0.374865 0.605914 0.805520 -0.507433
C124  C     C_2   0.774439 0.373900 0.199002 0.434106
H44   H     H_    0.801656 0.359947 0.226846 0.056924
O48   O     O_2   0.625147 0.394090 0.194482 -0.507430
C125  C     C_2   0.861947 0.121660 0.192849 0.430861
H45   H     H_    0.849192 0.134044 0.221664 0.068697
O49   O     O_2   0.005755 0.100928 0.184783 -0.509193
C126  C     C_2   0.138045 0.878338 0.807153 0.430860
H46   H     H_    0.150800 0.865956 0.778337 0.068698
O50   O     O_2   0.994233 0.899069 0.815220 -0.509196
C127  C     C_2   0.725561 0.873899 0.699000 0.434059
H47   H     H_    0.698345 0.859946 0.726844 0.056934
O51   O     O_2   0.874851 0.894089 0.694479 -0.507450
C128  C     C_2   0.274432 0.126102 0.301001 0.434060
H48   H     H_    0.301651 0.140054 0.273156 0.056934
O52   O     O_2   0.125138 0.105914 0.305523 -0.507451

loop_
_geom_bond_atom_site_label_1
_geom_bond_atom_site_label_2
_ccdc_geom_bond_type
O17   V3    S    
C56   C64   A    
O18   V4    S    
C13   N5    A    
O12   V1    S    
O19   V1    S    
C96   C104  A    
C40   C48   A    
C37   C45   A    
C123  H43   S    
C10   N2    A    
C78   C86   A    
C10   O22   S    
C61   C117  S    
C11   N3    A    
C76   C84   A    
C122  O46   D    
C64   C120  S    
O15   V4    S    
O14   V4    S    
C117  H37   S    
O16   V3    S    
C93   C101  A    
C30   C54   A    
O11   C3    A    
C52   H4    S    
C116  O40   D    
O12   C4    A    
C98   H26   S    
O8    V1    S    
C42   C57   A    
C15   N7    A    
C54   C62   A    
C41   C58   A    
C8    C81   S    
C26   C50   A    
C103  C111  A    
C120  O44   D    
C88   C96   A    
C104  C112  A    
C58   C114  S    
C38   C46   A    
C46   C61   A    
C29   C37   A    
C98   C106  A    
C34   C42   A    
C67   C75   A    
C45   C62   A    
O1    V3    S    
C3    C86   S    
C33   C41   A    
C4    C85   S    
C22   O34   S    
O3    C2    A    
O2    V4    S    
C79   C127  S    
N7    C112  S    
C70   C110  A    
C16   N8    A    
N8    C111  S    
C20   C28   A    
C27   C35   A    
C21   C29   A    
C26   C34   A    
O11   V2    S    
C69   C77   A    
C118  H38   S    
C113  O37   D    
C23   C31   A    
C127  H47   S    
C16   C48   A    
C18   O30   S    
C56   H8    S    
C83   C91   A    
C97   C105  A    
C121  O45   D    
C9    O21   S    
C73   C121  S    
C113  H33   S    
O9    V1    S    
C49   C57   A    
C100  H28   S    
O15   C7    A    
N7    C23   A    
N5    C21   A    
C115  H35   S    
O16   C8    A    
O7    V2    S    
C95   C103  A    
C12   C44   A    
C75   C123  S    
C127  O51   D    
C30   C38   A    
C102  H30   S    
C24   O36   S    
C53   C61   A    
C19   O31   S    
C11   O23   S    
N1    C17   A    
C122  H42   S    
C68   H12   S    
C94   C102  A    
O5    V1    S    
C117  O41   D    
O17   V1    S    
O10   C2    A    
C7    C82   S    
C128  O52   D    
C67   H11   S    
C116  H36   S    
O13   C5    A    
C35   C36   A    
C18   C26   A    
C5    C84   S    
C51   H3    S    
O20   V4    S    
C62   C118  S    
C66   C74   A    
C114  O38   D    
C93   H21   S    
C68   C108  A    
C104  H32   S    
C120  H40   S    
C17   O29   S    
C14   C46   A    
C91   H19   S    
C121  H41   S    
C65   C73   A    
C70   C78   A    
C71   C111  A    
C39   C47   A    
C68   C76   A    
C21   O33   S    
C55   C63   A    
C72   C112  A    
C65   C105  A    
C87   C95   A    
C44   C59   A    
C55   H7    S    
C125  H45   S    
C27   C51   A    
C16   O28   S    
C49   H1    S    
O10   V2    S    
C52   C60   A    
C78   C126  S    
C119  H39   S    
C82   C90   A    
C11   C43   A    
N6    C22   A    
C24   C32   A    
O8    C5    A    
C80   C128  S    
O3    V4    S    
C12   O24   S    
C71   C79   A    
O9    C1    A    
C48   C63   A    
C53   H5    S    
C72   C80   A    
C50   H2    S    
C31   C39   A    
C29   C53   A    
C43   C60   A    
C102  C110  A    
O4    C1    A    
C75   C83   A    
N2    C105  S    
C9    C41   A    
O6    V2    S    
N2    C18   A    
O18   V2    S    
C124  O48   D    
C54   H6    S    
O19   V3    S    
C125  O49   D    
C119  O43   D    
C12   N4    A    
C1    C88   S    
C35   C43   A    
N6    C109  S    
C92   C100  A    
C2    C87   S    
C90   H18   S    
C60   C116  S    
C94   H22   S    
C103  H31   S    
C23   O35   S    
C69   H13   S    
C81   C89   A    
N8    C24   A    
C128  H48   S    
C65   H9    S    
O1    C4    A    
C32   C56   A    
C86   C94   A    
C31   C55   A    
O2    C3    A    
O13   V3    S    
C124  H44   S    
C99   H27   S    
C71   H15   S    
C114  H34   S    
C101  C109  A    
C126  O50   D    
N4    C20   A    
C17   C25   A    
C69   C109  A    
C123  O47   D    
O20   V2    S    
C15   O27   S    
C63   C119  S    
C36   C44   A    
O7    C6    A    
C51   C59   A    
C77   C85   A    
C76   C124  S    
C50   C58   A    
C99   C107  A    
C73   C81   A    
C9    N1    A    
O14   C6    A    
C72   H16   S    
C59   C115  S    
C39   C40   A    
C14   O26   S    
C118  O42   D    
C57   C113  S    
C92   H20   S    
C13   O25   S    
C28   C52   A    
C90   C98   A    
N3    C19   A    
O5    C8    A    
C13   C45   A    
N3    C108  S    
C74   C82   A    
C89   H17   S    
O6    C7    A    
C79   C87   A    
C126  H46   S    
C74   C122  S    
C95   H23   S    
N1    C106  S    
C97   H25   S    
C25   C49   A    
C32   C40   A    
C67   C107  A    
C37   C38   A    
C96   H24   S    
C14   N6    A    
O4    V3    S    
C66   C106  A    
C28   C36   A    
N4    C107  S    
C101  H29   S    
C91   C99   A    
N5    C110  S    
C47   C64   A    
C19   C27   A    
C6    C83   S    
C70   H14   S    
C80   C88   A    
C33   C34   A    
C89   C97   A    
C115  O39   D    
C22   C30   A    
C20   O32   S    
C10   C42   A    
C84   C92   A    
C85   C93   A    
C77   C125  S    
C66   H10   S    
C100  C108  A    
C15   C47   A    
C25   C33   A    
