data_mof_unit_39711.cif
_audit_creation_date              2013-03-05T15:46:53-0500
_audit_creation_method            fapswitch 2.2
_symmetry_space_group_name_H-M    P1
_symmetry_Int_Tables_number       1
_space_group_crystal_system       triclinic
_cell_length_a                    14.802772
_cell_length_b                    14.920332
_cell_length_c                    15.039093
_cell_angle_alpha                 109.28831
_cell_angle_beta                  110.075431
_cell_angle_gamma                 109.101597
_cell_volume                      2555.1561977

loop_
_atom_site_label
_atom_site_type_symbol
_atom_site_description
_atom_site_fract_x
_atom_site_fract_y
_atom_site_fract_z
_atom_type_partial_charge
C1    C     C_R   0.193631 0.994156 0.902622 -0.138942
C2    C     C_R   0.747391 0.932449 0.025478 -0.102316
H1    H     H_    0.165348 0.018044 0.842612 0.106599
H2    H     H_    0.756937 0.879077 0.057342 0.102104
N1    N     N_R   0.293810 0.002730 0.945950 -0.048602
N2    N     N_R   0.706190 0.997270 0.054050 -0.045438
C3    C     C_R   0.804150 0.209342 0.300892 -0.122741
C4    C     C_R   0.251766 0.777325 0.686316 -0.114960
H3    H     H_    0.831983 0.176737 0.352335 0.105564
H4    H     H_    0.241308 0.798979 0.623309 0.104352
N3    N     N_R   0.706160 0.152130 0.208910 -0.045796
N4    N     N_R   0.293840 0.847870 0.791090 -0.042512
C5    C     C_R   0.408802 0.961125 0.224427 0.355777
C6    C     C_R   0.590632 0.098177 0.793570 0.300643
N5    N     N_R   0.443140 0.945920 0.152090 -0.075119
N6    N     N_R   0.556860 0.054080 0.847910 -0.081218
C7    C     C_R   0.589752 0.314794 0.060150 -0.070564
C8    C     C_R   0.411551 0.703741 0.010079 -0.112426
H5    H     H_    0.675418 0.378619 0.111078 0.099186
H6    H     H_    0.326662 0.652964 0.985601 0.107194
N7    N     N_R   0.556830 0.208940 0.002760 -0.038672
N8    N     N_R   0.443170 0.791060 0.997240 -0.045100
C9    C     C_R   0.594313 0.058774 0.314945 -0.139994
C10   C     C_R   0.407116 0.003092 0.700181 -0.185378
H7    H     H_    0.680259 0.105662 0.379091 0.145620
H8    H     H_    0.321428 0.972089 0.642606 0.156678
N9    N     N_R   0.556790 0.002750 0.208910 -0.058569
N10   N     N_R   0.443210 0.997250 0.791090 -0.064801
C11   C     C_R   0.404718 0.219977 0.969817 -0.104906
C12   C     C_R   0.594555 0.796915 0.101609 -0.132932
H9    H     H_    0.318429 0.192444 0.939737 0.124580
H10   H     H_    0.679320 0.836857 0.164861 0.129390
N11   N     N_R   0.443180 0.152110 0.945950 -0.044950
N12   N     N_R   0.556820 0.847890 0.054050 -0.047401
C13   C     C_R   0.804148 0.300538 0.209967 -0.124687
C14   C     C_R   0.252142 0.685827 0.778333 -0.117030
H11   H     H_    0.831832 0.352056 0.177885 0.115301
H12   H     H_    0.242829 0.623295 0.800975 0.099819
N13   N     N_R   0.706170 0.208950 0.152090 -0.043039
N14   N     N_R   0.293830 0.791050 0.847910 -0.045188
C15   C     C_R   0.192801 0.899800 0.989116 -0.061032
C16   C     C_R   0.746294 0.022824 0.932839 -0.105570
H13   H     H_    0.161197 0.830593 0.999721 0.143094
H14   H     H_    0.754179 0.051659 0.877784 0.148901
N15   N     N_R   0.293800 0.945910 0.002760 -0.051569
N16   N     N_R   0.706200 0.054090 0.997240 -0.036378
C17   C     C_R   0.128245 0.929238 0.928173 0.028726
C18   C     C_R   0.771738 0.945277 0.947581 0.022069
C19   C     C_R   0.868173 0.302715 0.303573 0.043815
C20   C     C_R   0.226296 0.674617 0.675821 0.040278
C21   C     C_R   0.502423 0.034914 0.325919 -0.025530
C22   C     C_R   0.498299 0.067980 0.701985 0.043336
C23   C     C_R   0.494686 0.324467 0.042152 0.042986
C24   C     C_R   0.505545 0.705783 0.077544 0.082843
Ni1   Ni    Ni4+2 0.369690 0.999990 0.869700 0.223148
Ni2   Ni    Ni4+2 0.630310 0.000010 0.130300 0.223897
Ni3   Ni    Ni4+2 0.369670 0.869670 0.000000 0.238368
Ni4   Ni    Ni4+2 0.630330 0.130330 0.000000 0.263283
C25   C     C_R   0.138058 0.231822 0.771474 -0.164036
C26   C     C_R   0.875358 0.882150 0.393597 -0.184601
H15   H     H_    0.112904 0.207179 0.686762 0.174503
H16   H     H_    0.911460 0.944223 0.477284 0.189279
C27   C     C_R   0.248258 0.308708 0.852747 -0.200701
C28   C     C_R   0.766488 0.796089 0.337961 -0.154801
H17   H     H_    0.307272 0.343511 0.830064 0.164482
H18   H     H_    0.720101 0.791538 0.379864 0.183592
C29   C     C_R   0.281631 0.342787 0.963183 0.082951
C30   C     C_R   0.718787 0.715476 0.229354 0.092446
C31   C     C_R   0.203386 0.298963 0.991274 -0.188567
C32   C     C_R   0.782572 0.719719 0.178262 -0.245495
H19   H     H_    0.227396 0.326184 0.076167 0.151578
H20   H     H_    0.747450 0.657056 0.095006 0.156400
C33   C     C_R   0.092915 0.222015 0.909569 -0.169646
C34   C     C_R   0.891286 0.806067 0.233963 -0.174635
H21   H     H_    0.032562 0.189630 0.931771 0.162543
H22   H     H_    0.939380 0.809526 0.193557 0.168033
C35   C     C_R   0.059989 0.189406 0.799768 0.375494
C36   C     C_R   0.937680 0.887482 0.341569 0.394294
C37   C     C_R   0.404707 0.537302 0.074308 -0.189107
C38   C     C_R   0.594078 0.523925 0.160288 -0.218114
H23   H     H_    0.329364 0.541134 0.043249 0.141751
H24   H     H_    0.668949 0.521864 0.200472 0.131976
C39   C     C_R   0.507399 0.626970 0.116218 0.080042
C40   C     C_R   0.491932 0.427043 0.086352 0.060671
C41   C     C_R   0.604591 0.623424 0.170763 0.052733
C42   C     C_R   0.394215 0.434880 0.048244 0.033703
C43   C     C_R   0.036947 0.477746 0.380508 -0.150391
C44   C     C_R   0.128428 0.472092 0.573154 -0.141819
H25   H     H_    0.002569 0.483201 0.307733 0.125579
H26   H     H_    0.160876 0.467777 0.646944 0.118600
C45   C     C_R   0.128876 0.570877 0.473822 -0.146432
C46   C     C_R   0.036525 0.378895 0.479878 -0.132361
H27   H     H_    0.161752 0.644417 0.469314 0.126838
H28   H     H_    0.001811 0.306423 0.485509 0.127236
C47   C     C_R   0.166865 0.571405 0.573265 0.124426
C48   C     C_R   0.983817 0.384693 0.386313 0.123667
C49   C     C_R   0.517886 0.984040 0.551103 -0.211263
C50   C     C_R   0.487087 0.128922 0.480834 -0.204579
H29   H     H_    0.528781 0.927592 0.578523 0.159591
H30   H     H_    0.474040 0.183540 0.451649 0.164371
C51   C     C_R   0.520258 0.974560 0.458479 0.285706
C52   C     C_R   0.483211 0.137301 0.573698 0.283351
C53   C     C_R   0.505997 0.048202 0.424678 0.044203
C54   C     C_R   0.499380 0.064462 0.607631 0.026726
C55   C     C_R   0.962268 0.837801 0.938819 -0.135944
C56   C     C_R   0.863148 0.932474 0.836665 -0.146504
H31   H     H_    0.999994 0.802837 0.981749 0.138542
H32   H     H_    0.827154 0.970885 0.797573 0.165510
C57   C     C_R   0.870990 0.840367 0.942408 -0.132502
C58   C     C_R   0.954740 0.930043 0.833130 -0.144482
H33   H     H_    0.842186 0.807035 0.987390 0.112559
H34   H     H_    0.986664 0.966799 0.791851 0.146910
C59   C     C_R   0.829391 0.899107 0.902242 0.120015
C60   C     C_R   0.011467 0.893093 0.894073 0.113138
I1    I     I_    0.537164 0.842740 0.370507 -0.411609
I2    I     I_    0.452706 0.258313 0.658707 -0.339757
Br1   Br    Br    0.268812 0.866759 0.201353 -0.564590
Br2   Br    Br    0.733448 0.220814 0.856149 -0.542067
Br3   Br    Br    0.907789 0.091410 0.688496 -0.598566
Br4   Br    Br    0.086543 0.004949 0.418036 -0.535061

loop_
_geom_bond_atom_site_label_1
_geom_bond_atom_site_label_2
_geom_bond_distance
_ccdc_geom_bond_type
C10   C22   1.364617 A    
C17   C60   1.463077 S    
C12   H10   1.072903 S    
C27   H17   1.083436 S    
N12   Ni2   1.859573 S    
C43   C45   1.383891 A    
C33   H21   1.082566 S    
C2    H2    1.078427 S    
C38   C40   1.401995 A    
C25   C35   1.397832 A    
N8    Ni3   1.842598 S    
C3    N3    1.333515 A    
C12   C24   1.375086 A    
C26   C36   1.399387 A    
C34   H22   1.082784 S    
C23   C40   1.474172 S    
C1    N1    1.340680 A    
C28   C30   1.402710 A    
C13   H11   1.079893 S    
C40   C42   1.421376 A    
C57   H33   1.080859 S    
C13   N13   1.333755 A    
N3    N13   1.388354 A    
C20   C47   1.461833 S    
N7    N11   1.371205 A    
C21   C53   1.411641 S    
C50   C53   1.397520 A    
C11   N11   1.325081 A    
C46   C48   1.402535 A    
C26   H16   1.082410 S    
C16   N16   1.336140 A    
C31   H19   1.082927 S    
C5    C21   1.378938 A    
C9    C21   1.371209 A    
C6    C22   1.364837 A    
C44   C46   1.383925 A    
C6    Br2   1.915154 S    
C13   C19   1.383732 A    
C31   C33   1.400677 A    
C9    N9    1.325754 A    
C58   C60   1.399114 A    
N6    N10   1.371204 A    
C57   C59   1.399922 A    
C56   H32   1.079542 S    
C44   C47   1.401901 A    
C51   C53   1.399066 A    
N16   Ni4   1.842268 S    
C30   C41   1.476037 S    
N5    Ni3   1.863367 S    
C2    N2    1.335440 A    
C16   H14   1.073822 S    
C24   C39   1.477764 S    
C49   H29   1.085393 S    
N10   Ni1   1.861234 S    
N8    N12   1.371206 A    
C27   C29   1.405514 A    
C25   H15   1.082655 S    
C12   N12   1.328600 A    
C56   C59   1.403583 A    
N4    Ni1   1.859549 S    
C55   C60   1.404927 A    
C14   N14   1.333357 A    
C3    C19   1.383184 A    
C38   H24   1.081326 S    
C37   H23   1.080299 S    
N9    Ni2   1.861231 S    
C1    C17   1.382136 A    
C16   C18   1.388186 A    
C2    C18   1.389892 A    
C50   C52   1.383380 A    
N13   Ni4   1.862998 S    
N1    N15   1.388233 A    
C7    N7    1.335582 A    
C1    H1    1.080559 S    
C28   H18   1.080775 S    
N4    N14   1.388354 A    
C36   Br4   1.910786 S    
C32   C34   1.398539 A    
C38   C41   1.389391 A    
C45   H27   1.080592 S    
C55   H31   1.080038 S    
N5    N9    1.371204 A    
C4    N4    1.334220 A    
N15   Ni3   1.842269 S    
C43   C48   1.402253 A    
C46   H28   1.080365 S    
C15   C17   1.373129 A    
N11   Ni1   1.859573 S    
N6    Ni4   1.863370 S    
C52   C54   1.396995 A    
C4    H4    1.077283 S    
C39   C41   1.419100 A    
C44   H26   1.080677 S    
C50   H30   1.084055 S    
C5    N5    1.336184 A    
C51   I1    2.124063 S    
C6    N6    1.330828 A    
C7    C23   1.404155 A    
C14   C20   1.390686 A    
C56   C58   1.386633 A    
C3    H3    1.079784 S    
C55   C57   1.382980 A    
C22   C54   1.408363 S    
C29   C42   1.475910 S    
C15   N15   1.331756 A    
N14   Ni3   1.863000 S    
N2    N16   1.388233 A    
C8    N8    1.335234 A    
N1    Ni1   1.860553 S    
C15   H13   1.074438 S    
C10   N10   1.330414 A    
N2    Ni2   1.860555 S    
C35   Br3   1.911378 S    
C5    Br1   1.915972 S    
C25   C27   1.396805 A    
C26   C28   1.398637 A    
C14   H12   1.078591 S    
N7    Ni4   1.842599 S    
C11   H9    1.068668 S    
C37   C39   1.397163 A    
C10   H8    1.081658 S    
C11   C23   1.383360 A    
C7    H5    1.078217 S    
C4    C20   1.391618 A    
C8    H6    1.078708 S    
C9    H7    1.080603 S    
C19   C48   1.461730 S    
C58   H34   1.079896 S    
C49   C54   1.392366 A    
C52   I2    2.122090 S    
C8    C24   1.396052 A    
C45   C47   1.401740 A    
C30   C32   1.406045 A    
C34   C36   1.399448 A    
C43   H25   1.080298 S    
C33   C35   1.400916 A    
C32   H20   1.083412 S    
C29   C31   1.403662 A    
C37   C42   1.385719 A    
C49   C51   1.366862 A    
N3    Ni2   1.859549 S    
C18   C59   1.463470 S    
