data_mof_unit_5319.cif
_audit_creation_date              2012-12-10T20:52:48-0500
_audit_creation_method            fapswitch 2.2
_symmetry_space_group_name_H-M    P1
_symmetry_Int_Tables_number       1
_space_group_crystal_system       triclinic
_cell_length_a                    8.647831
_cell_length_b                    15.859362
_cell_length_c                    15.095182
_cell_angle_alpha                 90.550219
_cell_angle_beta                  97.95686
_cell_angle_gamma                 89.767922
_cell_volume                      2050.25651519

loop_
_atom_site_label
_atom_site_type_symbol
_atom_type_description
_atom_site_fract_x
_atom_site_fract_y
_atom_site_fract_z
_atom_type_partial_charge
C1    C     C_R   0.499859 0.339032 0.499558 0.936113
C2    C     C_R   0.798838 0.499314 0.522561 0.943779
C3    C     C_2   0.039993 0.516434 0.468743 -0.226962
C4    C     C_2   0.959989 0.483400 0.531196 -0.224692
C5    C     C_R   0.423332 0.956815 0.565420 0.103432
C6    C     C_R   0.563449 0.043327 0.432200 0.108919
C7    C     C_R   0.501470 0.913200 0.502437 0.004516
C8    C     C_R   0.485042 0.086956 0.494822 0.015060
C9    C     C_R   0.573116 0.954842 0.436602 0.106425
C10   C     C_R   0.409323 0.045350 0.559136 0.108523
C11   C     C_1   0.501833 0.823811 0.502352 -0.028479
C12   C     C_R   0.500203 0.660968 0.500441 0.937989
C13   C     C_1   0.490010 0.176298 0.496393 -0.028869
C14   C     C_1   0.495087 0.250956 0.498052 -0.179677
C15   C     C_1   0.501190 0.749094 0.501544 -0.175981
C16   C     C_R   0.378265 0.458898 0.942728 0.111436
C17   C     C_R   0.620880 0.541720 0.057213 0.111164
C18   C     C_2   0.982045 0.583829 0.403406 0.382291
C19   C     C_2   0.017882 0.415888 0.596405 0.378688
C20   C     C_3   0.314451 0.097028 0.619127 -0.394593
C21   C     C_3   0.162748 0.130280 0.566658 -0.796917
C22   C     C_3   0.661167 0.903953 0.372891 -0.377925
C23   C     C_R   0.497407 0.501516 0.904946 -0.053000
C24   C     C_3   0.551001 0.872559 0.291516 -0.855105
C25   C     C_3   0.359141 0.907944 0.639203 -0.392514
C26   C     C_3   0.186055 0.887798 0.614054 -0.836377
C27   C     C_3   0.633535 0.092103 0.360581 -0.392702
C28   C     C_3   0.800291 0.120074 0.394228 -0.867193
C29   C     C_3   0.261647 0.406424 0.080571 -0.383689
C30   C     C_3   0.136419 0.464723 0.109552 -0.898854
C31   C     C_3   0.737157 0.594431 0.919372 -0.383322
C32   C     C_3   0.863168 0.536419 0.890837 -0.899489
C33   C     C_3   0.244440 0.419163 0.879957 -0.407781
C34   C     C_R   0.501946 0.498933 0.095008 -0.052653
C35   C     C_3   0.285226 0.329749 0.852589 -0.843084
C36   C     C_3   0.754335 0.581800 0.119969 -0.404383
C37   C     C_3   0.712496 0.671021 0.147442 -0.849206
C38   C     C_R   0.616623 0.544554 0.961957 0.116382
C39   C     C_R   0.382510 0.456060 0.037987 0.116450
C40   C     C_1   0.498393 0.500670 0.806804 0.085363
C41   C     C_1   0.501329 0.499511 0.193175 0.086133
C42   C     C_R   0.201163 0.500616 0.477430 0.945067
H1    H     H_    0.027479 0.587358 0.340002 0.071378
H2    H     H_    0.618806 0.837543 0.245708 0.252968
H3    H     H_    0.757146 0.940403 0.350308 0.206446
H4    H     H_    0.721670 0.849131 0.407649 0.227766
H5    H     H_    0.114998 0.946233 0.607857 0.258710
H6    H     H_    0.166747 0.852287 0.549697 0.266140
H7    H     H_    0.146072 0.848383 0.666843 0.244883
H8    H     H_    0.422725 0.847610 0.653462 0.210399
H9    H     H_    0.380842 0.941437 0.704449 0.182729
H10   H     H_    0.802753 0.161756 0.453928 0.270197
H11   H     H_    0.876322 0.064590 0.412087 0.248405
H12   H     H_    0.972259 0.412167 0.659737 0.071221
H13   H     H_    0.847697 0.155522 0.340956 0.252946
H14   H     H_    0.631611 0.054975 0.297897 0.206991
H15   H     H_    0.561577 0.148499 0.339621 0.210082
H16   H     H_    0.181338 0.498938 0.172236 0.265904
H17   H     H_    0.099697 0.511853 0.057037 0.257419
H18   H     H_    0.033349 0.427252 0.121726 0.248439
H19   H     H_    0.205451 0.356459 0.035722 0.207730
H20   H     H_    0.319106 0.371247 0.139522 0.202447
H21   H     H_    0.900464 0.489729 0.943712 0.257322
H22   H     H_    0.818718 0.501692 0.828400 0.265794
H23   H     H_    0.185952 0.175007 0.514098 0.278553
H24   H     H_    0.965744 0.574176 0.878414 0.248917
H25   H     H_    0.679595 0.629268 0.860206 0.202592
H26   H     H_    0.792562 0.644702 0.964102 0.207929
H27   H     H_    0.388109 0.330369 0.815999 0.268489
H28   H     H_    0.311626 0.289219 0.912363 0.243464
H29   H     H_    0.184884 0.302293 0.807883 0.255257
H30   H     H_    0.134588 0.418632 0.909803 0.211906
H31   H     H_    0.215083 0.457754 0.818863 0.208054
H32   H     H_    0.685572 0.711577 0.087723 0.244168
H33   H     H_    0.609646 0.669977 0.184048 0.270356
H34   H     H_    0.092026 0.077290 0.534588 0.241496
H35   H     H_    0.812511 0.698769 0.192161 0.257104
H36   H     H_    0.784205 0.543195 0.181011 0.207707
H37   H     H_    0.864146 0.582788 0.090093 0.211855
H38   H     H_    0.093673 0.163893 0.612875 0.256353
H39   H     H_    0.281618 0.061520 0.676110 0.204938
H40   H     H_    0.385184 0.150748 0.649978 0.212515
H41   H     H_    0.461991 0.829494 0.312280 0.269675
H42   H     H_    0.490809 0.926361 0.254771 0.246652
N1    N     N_1   0.499960 0.500020 0.270540 -0.098829
N2    N     N_1   0.500040 0.499980 0.729460 -0.099049
O1    O     O_R   0.500000 0.378020 0.573650 -0.595260
O2    O     O_2   0.108475 0.361281 0.577865 -0.577532
O3    O     O_R   0.500000 0.621980 0.426350 -0.594009
O4    O     O_R   0.500070 0.378020 0.426320 -0.623142
O5    O     O_R   0.499930 0.621980 0.573680 -0.624381
O6    O     O_R   0.271720 0.500000 0.556430 -0.578495
O7    O     O_R   0.728280 0.500000 0.443570 -0.579232
O8    O     O_R   0.271790 0.500000 0.409110 -0.651829
O9    O     O_R   0.728210 0.500000 0.590890 -0.651441
O10   O     O_2   0.891623 0.638545 0.421899 -0.574061
Zn1   Zn    Zn3+2 0.499950 0.500000 0.598370 0.984013
Zn2   Zn    Zn3+2 0.500050 0.500000 0.401630 0.984669

loop_
_geom_bond_atom_site_label_1
_geom_bond_atom_site_label_2
_ccdc_geom_bond_type
C1    O1    A    
C37   H32   S    
C3    C42   S    
C1    O4    A    
C20   H40   S    
C18   O10   D    
C12   O5    A    
C6    C9    A    
C7    C11   S    
C21   H34   S    
C8    C13   S    
C2    O9    A    
C24   H41   S    
C9    C22   S    
O8    Zn2   S    
C23   C40   S    
C3    C18   S    
C40   N2    T    
N2    Zn1   S    
C25   H8    S    
N1    Zn2   S    
C33   H30   S    
C4    C19   S    
C11   C15   T    
C6    C27   S    
C35   H28   S    
C10   C20   S    
C30   H18   S    
C17   C36   S    
C26   H6    S    
C37   H33   S    
C35   H29   S    
C13   C14   T    
C34   C41   S    
C28   H13   S    
O6    Zn1   S    
C31   H26   S    
C29   H19   S    
C34   C39   A    
C12   O3    A    
C32   H22   S    
C19   O2    D    
C27   H15   S    
C26   H7    S    
C5    C7    A    
C27   H14   S    
C6    C8    A    
C25   C26   S    
C37   H35   S    
C2    C4    S    
C25   H9    S    
C29   C30   S    
C16   C33   S    
C31   C32   S    
C12   C15   S    
C30   H17   S    
C29   C39   S    
O5    Zn1   S    
C26   H5    S    
C5    C25   S    
C19   H12   S    
C33   H31   S    
C22   H4    S    
C16   C23   A    
C24   H2    S    
C22   C24   S    
C17   C34   A    
C3    C4    D    
C32   H24   S    
C7    C9    A    
C29   H20   S    
C36   C37   S    
C21   H23   S    
C42   O8    A    
C2    O7    A    
C32   H21   S    
C36   H37   S    
C28   H11   S    
O9    Zn1   S    
C23   C38   A    
C41   N1    T    
C31   C38   S    
O3    Zn2   S    
C24   H42   S    
C5    C10   A    
C36   H36   S    
C18   H1    S    
C28   H10   S    
C30   H16   S    
C21   H38   S    
C33   C35   S    
C42   O6    A    
C17   C38   A    
C31   H25   S    
C16   C39   A    
C22   H3    S    
C20   C21   S    
C35   H27   S    
C8    C10   A    
C27   C28   S    
C1    C14   S    
C20   H39   S    
O7    Zn2   S    
O4    Zn2   S    
O1    Zn1   S    
