data_mof_unit_47928.cif
_audit_creation_date              2012-12-11T15:52:37-0500
_audit_creation_method            fapswitch 2.2
_symmetry_space_group_name_H-M    P1
_symmetry_Int_Tables_number       1
_space_group_crystal_system       triclinic
_cell_length_a                    6.948127
_cell_length_b                    14.618813
_cell_length_c                    16.039219
_cell_angle_alpha                 90.212968
_cell_angle_beta                  90.105939
_cell_angle_gamma                 90.213143
_cell_volume                      1629.1321614

loop_
_atom_site_label
_atom_site_type_symbol
_atom_type_description
_atom_site_fract_x
_atom_site_fract_y
_atom_site_fract_z
_atom_type_partial_charge
O1    O     O_R   0.494400 0.415640 0.412830 -0.540806
O2    O     O_R   0.823920 0.405510 0.586560 -0.547558
O3    O     O_R   0.994250 0.584360 0.587170 -0.545914
C1    C     C_R   0.653862 0.383468 0.615503 0.733877
O4    O     O_R   0.824110 0.404610 0.413450 -0.534582
O5    O     O_R   0.994440 0.583460 0.412820 -0.537448
C2    C     C_R   0.654414 0.383582 0.383198 0.677412
O6    O     O_R   0.494210 0.416540 0.587180 -0.530614
O7    O     O_3   0.660810 0.558680 0.500000 -0.367309
V1    V     V_3+5 0.935650 0.489110 0.500000 1.465182
O8    O     O_R   0.324150 0.594490 0.413440 -0.547742
C3    C     C_R   0.155012 0.616701 0.384680 0.734904
O9    O     O_R   0.323970 0.595390 0.586550 -0.530889
C4    C     C_R   0.155726 0.615464 0.616694 0.728934
V2    V     V_3+5 0.435660 0.510890 0.500000 1.482894
O10   O     O_3   0.160630 0.441320 0.500000 -0.374308
C5    C     C_3   0.989691 0.659216 0.751297 -0.309349
H1    H     H_    0.846736 0.651346 0.720808 0.137007
H2    H     H_    0.024177 0.591803 0.779497 0.187795
C6    C     C_3   0.975846 0.732632 0.820571 -0.362843
H3    H     H_    0.996440 0.699530 0.882316 0.134735
H4    H     H_    0.829705 0.760263 0.820850 0.179145
C7    C     C_3   0.096623 0.782179 0.650060 -0.276506
C8    C     C_3   0.342267 0.692202 0.733983 0.183773
C9    C     C_3   0.145825 0.685779 0.686419 0.035403
H5    H     H_    0.453082 0.715935 0.688370 0.102366
C10   C     C_3   0.127181 0.810333 0.809253 -0.005909
C11   C     C_3   0.106674 0.856512 0.720810 -0.208981
C12   C     C_3   0.327787 0.760538 0.808847 -0.215888
H6    H     H_    0.344984 0.723012 0.868680 0.130553
H7    H     H_    0.207450 0.799530 0.602538 0.098295
H8    H     H_    0.240410 0.896236 0.709122 0.115103
C13   C     C_R   0.960099 0.765496 0.209391 -0.194972
H9    H     H_    0.822934 0.777755 0.180016 0.169806
C14   C     C_R   0.968527 0.703333 0.275592 -0.124667
H10   H     H_    0.836908 0.669850 0.295119 0.135356
C15   C     C_R   0.144240 0.684198 0.315498 -0.114406
C16   C     C_R   0.310816 0.728697 0.287366 -0.164283
H11   H     H_    0.448595 0.715086 0.316447 0.141060
C17   C     C_R   0.304556 0.789641 0.220271 0.350100
C18   C     C_R   0.126288 0.810569 0.180792 -0.134668
C19   C     C_R   0.803138 0.263714 0.705251 -0.280285
H12   H     H_    0.935309 0.273677 0.670927 0.142626
C20   C     C_R   0.798818 0.199122 0.770184 0.419861
C21   C     C_R   0.625722 0.184201 0.814871 -0.149155
C22   C     C_R   0.463651 0.236398 0.794530 -0.267316
H13   H     H_    0.331301 0.227950 0.829225 0.178127
C23   C     C_R   0.467377 0.299505 0.729319 0.365497
C24   C     C_R   0.639808 0.314587 0.683749 -0.164196
C25   C     C_R   0.798042 0.258919 0.294617 -0.134040
H14   H     H_    0.928418 0.263150 0.331541 0.136208
C26   C     C_R   0.789271 0.194526 0.229657 -0.142371
H15   H     H_    0.913272 0.151589 0.218320 0.122377
C27   C     C_R   0.621823 0.184460 0.181028 -0.052113
C28   C     C_R   0.464754 0.241601 0.197935 -0.190489
H16   H     H_    0.335515 0.236078 0.160183 0.125267
C29   C     C_R   0.473179 0.307606 0.261703 -0.030546
C30   C     C_R   0.640765 0.316240 0.312464 -0.087733
O11   O     O_R   0.771300 0.080930 0.910090 -0.499139
O12   O     O_R   0.441270 0.092800 0.083770 -0.546038
O13   O     O_R   0.271080 0.913920 0.084380 -0.533383
C31   C     C_R   0.610637 0.115146 0.112715 0.692697
O14   O     O_R   0.441580 0.091910 0.910670 -0.548574
O15   O     O_R   0.271390 0.913020 0.910040 -0.538397
C32   C     C_R   0.611593 0.114583 0.882333 0.781205
O16   O     O_R   0.770990 0.081830 0.084440 -0.545998
O17   O     O_3   0.604750 0.938760 0.997250 -0.373200
V3    V     V_3+5 0.329850 0.008280 0.997210 1.471985
O18   O     O_R   0.941680 0.901940 0.910610 -0.526725
C33   C     C_R   0.111381 0.879973 0.881169 0.687424
O19   O     O_R   0.941370 0.902830 0.083720 -0.545958
C34   C     C_R   0.111414 0.879810 0.112222 0.687322
V4    V     V_3+5 0.829860 0.986420 0.997150 1.500512
O20   O     O_3   0.104830 0.056030 0.997180 -0.365595
C35   C     C_1   0.486448 0.827013 0.804441 0.232158
N1    N     N_1   0.603451 0.883037 0.802354 -0.316674
O21   O     O_3   0.475619 0.827870 0.195426 -0.648508
H17   H     H_    0.494884 0.807930 0.136889 0.280801
O22   O     O_3   0.962141 0.150199 0.790235 -0.628949
H18   H     H_    0.065387 0.164570 0.749716 0.282280
O23   O     O_3   0.300904 0.346651 0.713208 -0.629222
H19   H     H_    0.260068 0.327859 0.656435 0.284284
C36   C     C_1   0.309327 0.367439 0.270429 0.285378
N2    N     N_1   0.177997 0.415383 0.276986 -0.363448
C37   C     C_1   0.909643 0.781109 0.605027 0.336076
N3    N     N_1   0.763929 0.780235 0.569932 -0.360030
C38   C     C_1   0.958890 0.928279 0.713741 0.370148
N4    N     N_1   0.846419 0.985702 0.705499 -0.312984
O24   O     O_3   0.395758 0.605250 0.763165 -0.635102
H20   H     H_    0.532742 0.609818 0.780376 0.279880

loop_
_geom_bond_atom_site_label_1
_geom_bond_atom_site_label_2
_ccdc_geom_bond_type
C38   N4    T    
O14   C32   A    
C10   C12   S    
V4    O20   S    
C14   H10   S    
C1    O6    A    
C8    O24   S    
O23   H19   S    
O21   H17   S    
C20   C21   A    
C15   C16   A    
O15   V3    S    
C14   C15   A    
C8    H5    S    
O5    C3    A    
C16   H11   S    
V3    O20   S    
V2    O10   S    
C5    C6    S    
C23   O23   S    
O12   C31   A    
C3    C15   S    
C8    C12   S    
C5    H2    S    
C27   C28   A    
O8    V2    S    
C25   C26   A    
C29   C36   S    
O18   V4    S    
O17   V4    S    
O15   C33   A    
O7    V1    S    
O11   V4    S    
C2    C30   S    
O9    C4    A    
C19   C20   A    
C11   C38   S    
C26   C27   A    
C25   H14   S    
C22   C23   A    
C31   O16   A    
O17   V3    S    
C25   C30   A    
C11   H8    S    
C8    C9    S    
O4    C2    A    
C27   C31   S    
C37   N3    T    
O16   V4    S    
C7    H7    S    
O2    C1    A    
C35   N1    T    
C12   H6    S    
C36   N2    T    
C28   H16   S    
C5    H1    S    
C7    C11   S    
O3    C4    A    
C10   C33   S    
C18   C34   S    
O1    V2    S    
O13   C34   A    
C17   C18   A    
C6    H4    S    
O6    V2    S    
O9    V2    S    
C21   C32   S    
C19   H12   S    
O2    V1    S    
C26   H15   S    
O19   V4    S    
C22   H13   S    
C23   C24   A    
O1    C2    A    
C20   O22   S    
O5    V1    S    
O8    C3    A    
C12   C35   S    
C6    C10   S    
O14   V3    S    
C1    C24   S    
C5    C9    S    
C28   C29   A    
O7    V2    S    
C13   C18   A    
O4    V1    S    
O3    V1    S    
V1    O10   S    
O11   C32   A    
C16   C17   A    
O13   V3    S    
C29   C30   A    
C13   C14   A    
C13   H9    S    
C7    C9    S    
C4    C9    S    
O18   C33   A    
C19   C24   A    
O22   H18   S    
C21   C22   A    
O19   C34   A    
C6    H3    S    
O12   V3    S    
C7    C37   S    
C10   C11   S    
C17   O21   S    
O24   H20   S    
