data_mof_unit_27262.cif
_audit_creation_date              2012-12-10T17:55:07-0500
_audit_creation_method            fapswitch 2.2
_symmetry_space_group_name_H-M    P1
_symmetry_Int_Tables_number       1
_space_group_crystal_system       triclinic
_cell_length_a                    8.725083
_cell_length_b                    10.808255
_cell_length_c                    9.523845
_cell_angle_alpha                 89.802693
_cell_angle_beta                  97.936618
_cell_angle_gamma                 90.618205
_cell_volume                      889.470126916

loop_
_atom_site_label
_atom_site_type_symbol
_atom_type_description
_atom_site_fract_x
_atom_site_fract_y
_atom_site_fract_z
_atom_type_partial_charge
C1    C     C_R   0.499481 0.262493 0.500268 0.861511
C2    C     C_R   0.500519 0.737507 0.499732 0.861511
C3    C     C_R   0.203762 0.500818 0.463729 0.909901
C4    C     C_R   0.796238 0.499182 0.536271 0.909899
C5    C     C_2   0.037903 0.501401 0.443756 -0.340747
C6    C     C_2   0.962097 0.498599 0.556244 -0.340747
C7    C     C_R   0.385217 0.063692 0.408556 -0.058569
C8    C     C_R   0.614783 0.936308 0.591444 -0.058569
C9    C     C_R   0.387926 0.934253 0.406392 0.170766
C10   C     C_R   0.612074 0.065747 0.593607 0.170766
C11   C     C_R   0.501785 0.871486 0.498766 -0.216488
C12   C     C_R   0.498215 0.128514 0.501234 -0.216488
C13   C     C_R   0.399336 0.426149 0.061925 -0.016455
C14   C     C_R   0.600664 0.573851 0.938074 -0.016454
C15   C     C_R   0.399420 0.426138 0.913142 -0.030156
C16   C     C_R   0.600580 0.573862 0.086858 -0.030156
Cu1   Cu    Cu3+1 0.500000 0.500020 0.640660 0.955212
Cu2   Cu    Cu3+1 0.500000 0.499980 0.359340 0.955212
H1    H     H_    0.977966 0.503698 0.335832 0.164785
H2    H     H_    0.022033 0.496302 0.664168 0.164785
H3    H     H_    0.318773 0.366916 0.107993 0.152391
H4    H     H_    0.681227 0.633084 0.892007 0.152391
H5    H     H_    0.319004 0.366792 0.847133 0.140868
H6    H     H_    0.680996 0.633208 0.152867 0.140868
N1    N     N_R   0.500040 0.500030 0.852080 -0.175100
N2    N     N_R   0.499960 0.499970 0.147920 -0.175100
O1    O     O_R   0.499990 0.319660 0.618740 -0.575089
O2    O     O_R   0.500010 0.680340 0.381260 -0.575089
O3    O     O_R   0.499990 0.319630 0.381170 -0.585838
O4    O     O_R   0.500010 0.680370 0.618830 -0.585838
O5    O     O_R   0.274840 0.500010 0.591370 -0.578509
O6    O     O_R   0.725160 0.499990 0.408630 -0.578509
O7    O     O_R   0.274830 0.499980 0.353800 -0.597542
O8    O     O_R   0.725170 0.500020 0.646200 -0.597542
C17   C     C_2   0.256676 0.130514 0.322527 0.893438
O9    O     O_2   0.228807 0.113383 0.194728 -0.606976
O10   O     O_R   0.167708 0.213335 0.388491 -0.779527
H7    H     H_    0.082991 0.252306 0.319343 0.321533
C18   C     C_2   0.743323 0.869486 0.677473 0.893439
O11   O     O_2   0.771192 0.886617 0.805272 -0.606976
O12   O     O_R   0.832292 0.786665 0.611509 -0.779527
H8    H     H_    0.917009 0.747694 0.680657 0.321533
N3    N     N_2   0.267308 0.867582 0.320746 -0.415250
H9    H     H_    0.219729 0.793835 0.369229 0.242372
C19   C     C_3   0.290746 0.844301 0.175356 -0.525972
H10   H     H_    0.185804 0.872154 0.103292 0.245643
H11   H     H_    0.309208 0.744095 0.159503 0.213916
H12   H     H_    0.391894 0.896896 0.145784 0.229881
N4    N     N_2   0.732691 0.132417 0.679254 -0.415250
H13   H     H_    0.780270 0.206165 0.630771 0.242372
C20   C     C_3   0.709253 0.155699 0.824644 -0.525971
H14   H     H_    0.814196 0.127846 0.896708 0.245643
H15   H     H_    0.608106 0.103103 0.854216 0.229881
H16   H     H_    0.690792 0.255905 0.840497 0.213916

loop_
_geom_bond_atom_site_label_1
_geom_bond_atom_site_label_2
_ccdc_geom_bond_type
N3    H9    S    
O10   H7    S    
C5    H1    S    
C8    C18   S    
C6    H2    S    
O12   H8    S    
C17   O9    D    
Cu2   N2    S    
C2    O4    A    
C20   H16   S    
Cu1   N1    S    
C14   H4    S    
C15   H5    S    
Cu1   Cu2   S    
Cu2   O6    S    
C13   H3    S    
C16   H6    S    
Cu2   O3    S    
C19   H10   S    
C3    O5    A    
Cu1   O4    S    
C9    C11   A    
C4    O6    A    
C1    C12   S    
C10   C12   A    
C8    C11   A    
C2    C11   S    
C1    O3    A    
C17   O10   S    
C4    O8    A    
C13   C15   A    
C14   N1    A    
C16   N2    A    
C5    C6    D    
Cu1   O5    S    
Cu2   O7    S    
C14   C16   A    
C7    C12   A    
C9    N3    S    
C4    C6    S    
C15   N1    A    
Cu1   O8    S    
C13   N2    A    
C20   H14   S    
Cu1   O1    S    
C7    C9    A    
Cu2   O2    S    
C18   O12   S    
N4    H13   S    
C19   H11   S    
C18   O11   D    
C1    O1    A    
C3    C5    S    
C3    O7    A    
C2    O2    A    
C19   H12   S    
C20   H15   S    
C10   N4    S    
C7    C17   S    
N3    C19   S    
C8    C10   A    
N4    C20   S    
