data_mof_unit_37805.cif
_audit_creation_date              2013-03-05T15:52:27-0500
_audit_creation_method            fapswitch 2.2
_symmetry_space_group_name_H-M    P1
_symmetry_Int_Tables_number       1
_space_group_crystal_system       triclinic
_cell_length_a                    27.791706
_cell_length_b                    10.859759
_cell_length_c                    9.583589
_cell_angle_alpha                 92.049322
_cell_angle_beta                  90.079021
_cell_angle_gamma                 93.121203
_cell_volume                      2886.28085854

loop_
_atom_site_label
_atom_site_type_symbol
_atom_site_description
_atom_site_fract_x
_atom_site_fract_y
_atom_site_fract_z
_atom_type_partial_charge
O1    O     O_R   0.500000 0.319640 0.618810 -0.576537
O2    O     O_R   0.500000 0.319660 0.381240 -0.579825
C1    C     C_R   0.503249 0.263298 0.497892 0.802943
O3    O     O_R   0.430260 0.500010 0.618770 -0.581031
O4    O     O_R   0.430270 0.500030 0.381200 -0.581159
C2    C     C_R   0.407482 0.499730 0.499883 0.810956
Cu1   Cu    Cu3+1 0.500000 0.499990 0.640660 0.927642
Cu2   Cu    Cu3+1 0.500000 0.500010 0.359340 0.931919
O5    O     O_R   0.500000 0.680340 0.618760 -0.608112
O6    O     O_R   0.500000 0.680360 0.381190 -0.598393
O7    O     O_R   0.569730 0.499970 0.618800 -0.605137
O8    O     O_R   0.569740 0.499990 0.381230 -0.597754
C3    C     C_R   0.498823 0.738241 0.503501 0.785537
C4    C     C_R   0.592511 0.500567 0.500177 0.769064
C5    C     C_R   0.175261 0.400926 0.447774 0.536589
O9    O     O_2   0.197699 0.302074 0.396187 -0.536639
N1    N     N_R   0.201824 0.502072 0.499992 -0.468579
C6    C     C_R   0.180100 0.603751 0.552817 0.534468
C7    C     C_R   0.278667 0.501544 0.373329 -0.099172
C8    C     C_R   0.328840 0.500874 0.373167 -0.216567
C9    C     C_R   0.328921 0.499839 0.626314 -0.213670
C10   C     C_R   0.278766 0.500511 0.626158 -0.101795
C11   C     C_R   0.253449 0.501403 0.499769 0.354521
C12   C     C_R   0.101620 0.501797 0.504921 -0.046376
C13   C     C_R   0.124715 0.398954 0.449103 -0.019249
C14   C     C_R   0.096932 0.297758 0.393393 -0.167149
C15   C     C_R   0.129640 0.605734 0.555748 -0.020519
C16   C     C_R   0.354459 0.500073 0.499752 -0.042927
H1    H     H_    0.347626 0.499090 0.725471 0.157494
H2    H     H_    0.259489 0.499974 0.724281 0.142002
H3    H     H_    0.113719 0.219916 0.343726 0.189584
C17   C     C_R   0.645524 0.501706 0.500846 -0.035679
C18   C     C_R   0.971944 0.387597 0.484458 0.000426
C19   C     C_R   0.976831 0.611070 0.545092 0.060520
C20   C     C_R   0.949108 0.499709 0.513312 0.022134
C21   C     C_R   0.942753 0.275119 0.477332 0.234088
C22   C     C_R   0.892545 0.278591 0.473013 -0.209647
C23   C     C_R   0.869994 0.390155 0.487108 -0.059998
C24   C     C_R   0.898078 0.500581 0.511097 -0.049479
C25   C     C_R   0.874998 0.612002 0.533094 -0.006173
C26   C     C_R   0.824482 0.610914 0.528905 0.529995
N2    N     N_R   0.797977 0.502574 0.504222 -0.469826
C27   C     C_R   0.819543 0.393243 0.483691 0.551278
C28   C     C_R   0.721159 0.508208 0.628864 -0.107540
C29   C     C_R   0.670989 0.507250 0.628072 -0.227966
C30   C     C_R   0.671223 0.497329 0.374562 -0.221971
C31   C     C_R   0.721426 0.497737 0.375742 -0.108889
C32   C     C_R   0.746462 0.503155 0.502840 0.365417
O10   O     O_2   0.792201 0.287843 0.461040 -0.535546
C33   C     C_R   0.022819 0.392737 0.465833 0.038788
C34   C     C_R   0.050544 0.500956 0.509062 0.060680
C35   C     C_R   0.027721 0.608751 0.554710 0.043739
C36   C     C_R   0.046917 0.295589 0.399449 -0.169879
H4    H     H_    0.652233 0.510775 0.727005 0.165375
H5    H     H_    0.740436 0.512232 0.727366 0.135808
H6    H     H_    0.871079 0.192290 0.464283 0.189179
H7    H     H_    0.027739 0.218723 0.346102 0.183857
O11   O     O_2   0.207270 0.702978 0.601264 -0.535260
C37   C     C_R   0.106778 0.708998 0.608435 -0.141298
H8    H     H_    0.347499 0.501132 0.274031 0.157628
H9    H     H_    0.259334 0.502579 0.275228 0.142811
H10   H     H_    0.127472 0.789484 0.650083 0.188610
C38   C     C_R   0.952612 0.721533 0.564666 -0.206954
C39   C     C_R   0.902682 0.721805 0.558426 -0.151363
O12   O     O_2   0.801987 0.717120 0.549129 -0.538879
C40   C     C_R   0.056791 0.710956 0.607387 -0.208885
H11   H     H_    0.971422 0.810317 0.580854 0.135596
H12   H     H_    0.652612 0.493172 0.274980 0.165124
H13   H     H_    0.885853 0.808940 0.573688 0.183991
H14   H     H_    0.740921 0.493924 0.278040 0.136019
H15   H     H_    0.041849 0.792945 0.652094 0.138136
H16   H     H_    0.475360 0.101209 0.291067 0.173938
C41   C     C_R   0.553357 0.140121 0.717295 -0.212788
H17   H     H_    0.570095 0.230346 0.698619 0.169082
C42   C     C_R   0.558149 0.094273 0.849279 -0.153305
H18   H     H_    0.576644 0.152649 0.928301 0.146622
C43   C     C_R   0.536485 0.979022 0.879863 0.319968
C44   C     C_R   0.515522 0.904649 0.769988 -0.263154
H19   H     H_    0.497777 0.818671 0.798114 0.172358
C45   C     C_R   0.513453 0.947399 0.631805 0.066648
C46   C     C_R   0.525752 0.073226 0.613611 0.097071
C47   C     C_R   0.508247 0.130325 0.495187 -0.108450
C48   C     C_R   0.488596 0.058804 0.383227 -0.203396
H20   H     H_    0.472094 0.878409 0.298050 0.177333
C49   C     C_R   0.485430 0.931598 0.389229 -0.201876
C50   C     C_R   0.497924 0.873616 0.511632 -0.101690
H21   H     H_    0.441459 0.370101 0.123810 0.137280
C51   C     C_R   0.569591 0.650521 0.149468 -0.164040
H22   H     H_    0.569978 0.668138 0.259211 0.200314
C52   C     C_R   0.606430 0.713682 0.079374 -0.210539
H23   H     H_    0.634051 0.767893 0.137528 0.159608
C53   C     C_R   0.605618 0.715743 0.935571 -0.187542
H24   H     H_    0.632450 0.771920 0.881344 0.162670
C54   C     C_R   0.568616 0.651983 0.861559 -0.180014
H25   H     H_    0.567887 0.669756 0.753245 0.203981
C55   C     C_R   0.533930 0.574316 0.928051 0.185787
C56   C     C_R   0.534122 0.573970 0.077616 0.205644
N3    N     N_R   0.500460 0.501210 0.147910 -0.197180
C57   C     C_R   0.467798 0.428639 0.070933 -0.070348
H26   H     H_    0.441530 0.369959 0.865098 0.143049
C58   C     C_R   0.467845 0.428577 0.922913 -0.053787
N4    N     N_R   0.500480 0.501290 0.852040 -0.200629
N5    N     N_2   0.533326 0.938843 0.020162 -0.434423
H27   H     H_    0.520336 0.849365 0.033569 0.256336
C59   C     C_3   0.568703 0.988055 0.121688 -0.675913
H28   H     H_    0.566239 0.933959 0.217686 0.233398
H29   H     H_    0.561731 0.085274 0.150959 0.234330
H30   H     H_    0.605707 0.982530 0.079080 0.227187
N6    N     N_2   0.962744 0.157762 0.488660 -0.451200
H31   H     H_    0.942234 0.085033 0.443085 0.251068
C60   C     C_3   0.978678 0.131596 0.627778 -0.671574
H32   H     H_    0.996327 0.042263 0.625166 0.216866
H33   H     H_    0.947387 0.125318 0.699755 0.228915
H34   H     H_    0.005264 0.204529 0.667746 0.246300

loop_
_geom_bond_atom_site_label_1
_geom_bond_atom_site_label_2
_geom_bond_distance
_ccdc_geom_bond_type
Cu2   N3    2.026820 S    
C26   N2    1.366769 A    
C58   N4    1.367308 A    
C55   N4    1.378528 A    
C17   C29   1.406725 A    
C20   C24   1.418884 A    
C7    C8    1.394811 A    
C12   C15   1.407698 A    
C56   N3    1.382993 A    
Cu1   Cu2   2.696063 S    
C43   C44   1.409537 A    
Cu1   O7    1.949505 S    
C59   H29   1.110022 S    
N1    C11   1.435173 S    
C21   C22   1.398535 A    
N6    C60   1.446914 S    
C37   C40   1.390586 A    
C23   C24   1.406407 A    
O7    C4    1.302054 A    
C44   C45   1.421005 A    
C5    C13   1.403830 A    
C5    O9    1.349623 S    
C18   C21   1.428574 A    
Cu1   O5    1.977219 S    
C19   C20   1.421432 A    
C41   H17   1.082410 S    
O5    C3    1.291668 A    
C53   H24   1.082834 S    
C45   C50   1.431654 A    
C22   H6    1.083789 S    
C6    O11   1.349653 S    
C2    C16   1.473806 S    
C40   H15   1.078071 S    
Cu1   N4    2.025345 S    
C3    C50   1.470984 S    
C8    H8    1.083033 S    
C51   C56   1.415958 A    
C12   C34   1.419629 A    
C14   H3    1.083327 S    
C9    C10   1.394325 A    
C41   C42   1.384688 A    
O3    Cu1   1.949241 S    
C41   C46   1.410416 A    
C46   C47   1.410989 A    
H21   C57   1.081735 S    
C59   H30   1.110893 S    
C38   H11   1.077571 S    
C33   C36   1.412947 A    
C34   C35   1.417429 A    
H20   C49   1.083640 S    
O3    C2    1.302481 A    
C4    C17   1.472708 S    
C24   C25   1.409481 A    
C36   H7    1.078211 S    
C44   H19   1.075126 S    
C27   O10   1.349707 S    
C26   O12   1.349660 S    
C8    C16   1.406326 A    
C33   C34   1.418525 A    
C18   C33   1.423694 A    
C49   C50   1.403084 A    
C9    H1    1.083045 S    
O1    C1    1.296531 A    
C7    C11   1.400671 A    
C42   H18   1.081087 S    
C31   H14   1.083079 S    
C30   H12   1.083236 S    
C22   C23   1.396458 A    
C52   C53   1.379301 A    
C31   C32   1.399758 A    
Cu2   O8    1.949236 S    
C55   C56   1.433521 A    
C1    C47   1.457548 S    
C53   C54   1.387580 A    
N1    C6    1.368763 A    
C60   H33   1.111440 S    
N2    C32   1.432100 S    
C39   H13   1.083541 S    
C12   C13   1.407754 A    
C54   C55   1.413622 A    
C42   C43   1.399845 A    
C25   C26   1.403836 A    
C48   C49   1.382702 A    
C9    C16   1.406154 A    
O8    C4    1.302711 A    
C29   H4    1.083091 S    
C47   C48   1.394774 A    
N5    C59   1.449797 S    
C43   N5    1.429709 S    
N2    C27   1.367018 A    
C14   C36   1.390252 A    
N5    H27   1.030483 S    
C35   C40   1.414437 A    
C28   C29   1.393788 A    
C5    N1    1.368684 A    
C30   C31   1.395013 A    
C37   H10   1.083383 S    
C10   H2    1.082951 S    
C60   H32   1.110179 S    
C57   C58   1.418547 A    
O1    Cu1   1.962260 S    
C17   C30   1.406781 A    
O2    Cu2   1.977220 S    
C6    C15   1.404028 A    
C51   C52   1.388630 A    
C45   C46   1.407401 A    
O6    C3    1.311420 A    
O4    Cu2   1.949508 S    
C59   H28   1.109356 S    
C19   C35   1.418852 A    
C25   C39   1.397019 A    
O2    C1    1.298951 A    
C13   C14   1.397665 A    
C23   C27   1.404737 A    
C15   C37   1.397927 A    
N6    H31   1.032034 S    
C28   H5    1.083129 S    
C52   H23   1.082867 S    
O4    C2    1.302629 A    
C7    H9    1.082930 S    
C19   C38   1.414010 A    
C18   C20   1.422018 A    
C60   H34   1.110749 S    
C54   H25   1.062956 S    
H16   C48   1.083567 S    
C38   C39   1.389022 A    
C51   H22   1.062177 S    
Cu2   O6    1.962260 S    
N3    C57   1.366734 A    
C21   N6    1.425329 S    
C10   C11   1.400545 A    
H26   C58   1.081690 S    
C28   C32   1.399284 A    
