data_mof_unit_32223.cif
_audit_creation_date              2012-12-10T17:24:09-0500
_audit_creation_method            fapswitch 2.2
_symmetry_space_group_name_H-M    P1
_symmetry_Int_Tables_number       1
_space_group_crystal_system       triclinic
_cell_length_a                    10.107323
_cell_length_b                    10.826278
_cell_length_c                    17.043591
_cell_angle_alpha                 91.299355
_cell_angle_beta                  77.027649
_cell_angle_gamma                 96.086237
_cell_volume                      1807.14725898

loop_
_atom_site_label
_atom_site_type_symbol
_atom_type_description
_atom_site_fract_x
_atom_site_fract_y
_atom_site_fract_z
_atom_type_partial_charge
Br1   Br    Br    0.256189 0.500084 0.013753 -0.297437
Br2   Br    Br    0.726739 0.467670 0.988828 -0.298044
Br3   Br    Br    0.586849 0.755840 0.912408 -0.257078
Br4   Br    Br    0.400061 0.217199 0.100573 -0.245191
C1    C     C_R   0.558215 0.733106 0.493807 0.916655
C2    C     C_R   0.516157 0.493593 0.346364 1.021564
C3    C     C_R   0.476419 0.503007 0.738873 -0.324418
C4    C     C_R   0.521269 0.488800 0.261006 -0.309149
C5    C     C_R   0.473337 0.386517 0.775140 0.343014
C6    C     C_R   0.515622 0.600808 0.221887 0.357861
C7    C     C_R   0.501300 0.382453 0.850679 -0.195628
C8    C     C_R   0.481771 0.596199 0.147683 -0.194993
C9    C     C_R   0.533511 0.491752 0.889552 -0.083058
C10   C     C_R   0.451148 0.482517 0.113106 -0.084707
C11   C     C_R   0.534500 0.608499 0.855453 0.264844
C12   C     C_R   0.442050 0.266800 0.503856 0.917994
C13   C     C_R   0.457695 0.369968 0.150235 0.253675
C14   C     C_R   0.500355 0.615337 0.780318 0.305719
C15   C     C_R   0.500791 0.372309 0.223265 0.305376
C16   C     C_2   0.547011 0.482048 0.971452 0.237967
C17   C     C_2   0.435495 0.484203 0.031192 0.243058
C18   C     C_2   0.594181 0.866220 0.485689 0.291030
C19   C     C_2   0.407568 0.133391 0.500494 0.318573
C20   C     C_2   0.496850 0.932738 0.472111 -0.136821
C21   C     C_2   0.511745 0.065972 0.471082 -0.155518
C22   C     C_2   0.926240 0.509537 0.506986 -0.054768
C23   C     C_2   0.073255 0.488832 0.494032 -0.057017
C24   C     C_R   0.483560 0.505109 0.653595 1.029795
H1    H     H_    0.479238 0.681279 0.116021 0.216991
H2    H     H_    0.493249 0.882039 0.187832 0.398235
H3    H     H_    0.701744 0.181137 0.308490 0.403207
H4    H     H_    0.639074 0.921610 0.701550 0.413963
H5    H     H_    0.039486 0.129695 0.587210 0.402824
H6    H     H_    0.926377 0.875221 0.540161 0.410143
H7    H     H_    0.497743 0.294086 0.880074 0.216237
H8    H     H_    0.614357 0.110198 0.448927 0.217526
H9    H     H_    0.399134 0.887542 0.465298 0.237844
H10   H     H_    0.114166 0.419455 0.450980 0.183707
H11   H     H_    0.884928 0.577591 0.550903 0.197398
H12   H     H_    0.111849 0.617095 0.573142 0.210338
H13   H     H_    0.888557 0.384191 0.425978 0.206909
H14   H     H_    0.494138 0.101505 0.796016 0.380003
N1    N     N_2   0.846390 0.448330 0.467170 -0.173218
N2    N     N_2   0.153610 0.551670 0.532830 -0.172368
O1    O     O_R   0.430310 0.692580 0.506610 -0.608356
O2    O     O_2   0.554633 0.220209 0.660451 -0.303417
O3    O     O_3   0.403288 0.125496 0.793470 -0.430778
O4    O     O_2   0.422545 0.774934 0.326828 -0.311269
O5    O     O_2   0.666064 0.749291 0.304312 -0.255474
O6    O     O_3   0.583136 0.859710 0.193619 -0.430594
O7    O     O_2   0.395509 0.182632 0.323828 -0.277268
O8    O     O_2   0.566795 0.135526 0.204008 -0.190331
O9    O     O_3   0.651099 0.255491 0.318488 -0.566863
O10   O     O_2   0.417257 0.755474 0.672262 -0.282963
O11   O     O_2   0.414581 0.842454 0.805140 -0.185664
O12   O     O_R   0.569690 0.307420 0.493390 -0.602104
O13   O     O_3   0.649803 0.832427 0.706441 -0.498043
O14   O     O_2   0.186816 0.005425 0.465325 -0.254188
O15   O     O_2   0.231294 0.970110 0.598130 -0.226339
O16   O     O_3   0.132437 0.174495 0.574866 -0.485179
O17   O     O_2   0.838793 0.980831 0.415982 -0.224156
O18   O     O_2   0.741562 0.039909 0.554889 -0.287953
O19   O     O_3   0.842036 0.827915 0.530651 -0.515385
O20   O     O_R   0.652740 0.659410 0.485540 -0.558450
O21   O     O_R   0.347260 0.340590 0.514460 -0.563226
O22   O     O_R   0.375640 0.518570 0.627580 -0.552330
O23   O     O_R   0.624360 0.481430 0.372420 -0.543275
O24   O     O_R   0.598070 0.485390 0.606510 -0.608514
O25   O     O_R   0.401930 0.514610 0.393490 -0.621453
O26   O     O_2   0.312088 0.251465 0.693214 -0.209344
S1    S     S_3+6 0.435512 0.244088 0.727520 0.088419
S2    S     S_3+6 0.547287 0.748358 0.264736 0.078844
S3    S     S_3+6 0.526317 0.231501 0.267479 0.076934
S4    S     S_3+6 0.490397 0.763858 0.739930 0.098317
S5    S     S_3+6 0.236069 0.066446 0.535122 0.096613
S6    S     S_3+6 0.757653 0.933404 0.496542 0.080791
Zn1   Zn    Zn3+2 0.351480 0.522150 0.514070 1.104860
Zn2   Zn    Zn3+2 0.648520 0.477850 0.485930 1.105103

loop_
_geom_bond_atom_site_label_1
_geom_bond_atom_site_label_2
_ccdc_geom_bond_type
O13   S4    S    
O14   S5    D    
C2    O25   A    
C24   O22   A    
C20   C21   S    
C12   O12   A    
O20   Zn2   S    
Br1   C17   S    
O26   S1    D    
C8    H1    S    
H5    O16   S    
O21   Zn1   S    
H13   N1    S    
C15   S3    S    
O16   S5    S    
O25   Zn1   S    
C18   S6    S    
C3    C14   A    
O3    S1    S    
C7    H7    S    
C20   H9    S    
H2    O6    S    
O12   Zn2   S    
C14   S4    S    
C2    O23   A    
H3    O9    S    
N1    Zn2   S    
C5    C7    A    
C10   C13   A    
O18   S6    D    
C22   C23   S    
O23   Zn2   S    
C6    C8    A    
H4    O13   S    
O4    S2    D    
Br4   C13   S    
C10   C17   S    
N2    Zn1   S    
C13   C15   A    
C8    C10   A    
C22   N1    D    
C12   C19   S    
H14   O3    S    
C9    C11   A    
O17   S6    D    
O24   Zn2   S    
C11   C14   A    
C18   C20   D    
C22   H11   S    
C5    S1    S    
C7    C9    A    
O2    S1    D    
O19   S6    S    
C1    C18   S    
C21   H8    S    
Br2   C16   S    
C4    C15   A    
O15   S5    D    
H12   N2    S    
C19   C21   D    
Br3   C11   S    
C16   C17   D    
C4    C6    A    
O8    S3    D    
C3    C5    A    
O22   Zn1   S    
O6    S2    S    
H6    O19   S    
C2    C4    S    
C12   O21   A    
C23   H10   S    
C9    C16   S    
O1    Zn1   S    
O10   S4    D    
O11   S4    D    
C1    O1    A    
C23   N2    D    
O9    S3    S    
C3    C24   S    
O7    S3    D    
C1    O20   A    
C19   S5    S    
C24   O24   A    
O5    S2    D    
C6    S2    S    
