data_mof_unit_12129.cif
_audit_creation_date              2012-10-26T21:17:40-0400
_audit_creation_method            fapswitch 2.2
_symmetry_space_group_name_H-M    P1
_symmetry_Int_Tables_number       1
_space_group_crystal_system       triclinic
_cell_length_a                    10.89357
_cell_length_b                    9.094374
_cell_length_c                    7.795005
_cell_angle_alpha                 90.003175
_cell_angle_beta                  90.000251
_cell_angle_gamma                 90.000017
_cell_volume                      772.252701405

loop_
_atom_site_label
_atom_site_type_symbol
_atom_type_description
_atom_site_fract_x
_atom_site_fract_y
_atom_site_fract_z
_atom_type_partial_charge
Br1   Br    Br    0.229809 0.662203 0.919963 -0.464052
Br2   Br    Br    0.770189 0.662205 0.919965 -0.464052
C1    C     C_R   0.500000 0.220065 0.499984 0.549162
C2    C     C_R   0.064842 0.524896 0.674564 0.027299
C3    C     C_R   0.128908 0.540033 0.515773 0.002031
C4    C     C_R   0.871092 0.540035 0.515775 0.002031
C5    C     C_R   0.063702 0.579161 0.368640 -0.156263
C6    C     C_R   0.936297 0.579162 0.368641 -0.156261
C7    C     C_1   0.500000 0.065370 0.500014 -0.020339
C8    C     C_1   0.500000 0.934610 0.500028 -0.007412
C9    C     C_R   0.500000 0.779942 0.499993 0.563198
C10   C     C_R   0.261981 0.513288 0.502539 0.548348
C11   C     C_R   0.738019 0.513289 0.502539 0.548347
C12   C     C_R   0.124124 0.507942 0.835836 0.184732
C13   C     C_R   0.875877 0.507946 0.835839 0.184734
C14   C     C_R   0.063668 0.431284 0.965311 -0.127407
C15   C     C_R   0.936332 0.431285 0.965312 -0.127408
C16   C     C_R   0.935158 0.524898 0.674565 0.027299
Cu1   Cu    Cu3+1 0.500000 0.500000 0.669080 1.117270
Cu2   Cu    Cu3+1 0.500000 0.500000 0.330920 1.086880
H1    H     H_    0.112103 0.399859 0.080695 0.144866
H2    H     H_    0.887898 0.399858 0.080694 0.144866
H3    H     H_    0.111728 0.607297 0.252183 0.182498
H4    H     H_    0.888269 0.607298 0.252184 0.182498
N1    N     N_1   0.500000 0.500000 0.076820 -0.036083
N2    N     N_1   0.500000 0.500000 0.923180 -0.020834
O1    O     O_R   0.500000 0.288390 0.642760 -0.500303
O2    O     O_R   0.500000 0.711610 0.642760 -0.458865
O3    O     O_R   0.500000 0.288370 0.357190 -0.501583
O4    O     O_R   0.500000 0.711630 0.357190 -0.485447
O5    O     O_R   0.319650 0.500000 0.642810 -0.479514
O6    O     O_R   0.680350 0.500000 0.642810 -0.479514
O7    O     O_R   0.319630 0.500000 0.357240 -0.505362
O8    O     O_R   0.680370 0.500000 0.357240 -0.505361

loop_
_geom_bond_atom_site_label_1
_geom_bond_atom_site_label_2
_ccdc_geom_bond_type
C13   C16   A    
C14   H1    S    
Cu1   O2    S    
Cu1   O1    S    
C7    C8    T    
C11   O6    A    
Cu1   Cu2   S    
Cu1   O5    S    
C1    O1    A    
N1    N2    T    
Cu2   O8    S    
C5    C6    A    
Cu2   O4    S    
C4    C11   S    
Br2   C13   S    
C9    O2    A    
C5    H3    S    
Cu2   O7    S    
C6    H4    S    
C3    C5    A    
Cu2   O3    S    
C10   O5    A    
C2    C12   A    
C4    C16   A    
C12   C14   A    
C1    C7    S    
Cu2   N1    S    
Cu1   O6    S    
C11   O8    A    
C3    C10   S    
C1    O3    A    
C8    C9    S    
C13   C15   A    
Cu1   N2    S    
C2    C3    A    
C4    C6    A    
Br1   C12   S    
C10   O7    A    
C2    C16   A    
C15   H2    S    
C9    O4    A    
C14   C15   A    
