data_mof_unit_41120.cif
_audit_creation_date              2012-12-10T17:38:59-0500
_audit_creation_method            fapswitch 2.2
_symmetry_space_group_name_H-M    P1
_symmetry_Int_Tables_number       1
_space_group_crystal_system       triclinic
_cell_length_a                    12.209464
_cell_length_b                    12.899211
_cell_length_c                    23.268483
_cell_angle_alpha                 92.111723
_cell_angle_beta                  84.001191
_cell_angle_gamma                 94.246438
_cell_volume                      3632.97241954

loop_
_atom_site_label
_atom_site_type_symbol
_atom_type_description
_atom_site_fract_x
_atom_site_fract_y
_atom_site_fract_z
_atom_type_partial_charge
C1    C     C_R   0.522905 0.700096 0.497569 0.977560
C2    C     C_R   0.534428 0.393537 0.298544 0.328776
C3    C     C_R   0.498401 0.573057 0.771448 0.255672
C4    C     C_R   0.572241 0.392691 0.239306 0.360636
C5    C     C_R   0.527745 0.476330 0.789681 0.061501
C6    C     C_R   0.553121 0.478037 0.206656 0.036352
C7    C     C_R   0.460220 0.187667 0.500752 -0.118748
C8    C     C_R   0.537889 0.812140 0.494647 -0.118703
C9    C     C_R   0.641778 0.971308 0.464838 0.165222
C10   C     C_R   0.353576 0.027540 0.526260 0.150709
C11   C     C_R   0.637363 0.863845 0.471470 0.113112
C12   C     C_R   0.476876 0.299810 0.501150 0.977452
C13   C     C_R   0.358666 0.135494 0.521157 0.143264
C14   C     C_R   0.445829 0.866952 0.512623 -0.208390
C15   C     C_R   0.551518 0.132794 0.481284 -0.240025
C16   C     C_R   0.498874 0.503511 0.610690 1.058314
C17   C     C_R   0.501573 0.498200 0.389421 1.027617
C18   C     C_R   0.448404 0.973201 0.507760 0.028333
C19   C     C_R   0.547741 0.026135 0.484249 0.038551
C20   C     C_R   0.963252 0.437757 0.430755 0.141047
C21   C     C_R   0.039038 0.487161 0.575622 0.168246
C22   C     C_R   0.851368 0.462290 0.435606 0.423687
C23   C     C_R   0.537417 0.390404 0.751463 0.187462
C24   C     C_R   0.152417 0.520971 0.565796 0.383166
C25   C     C_R   0.856104 0.498872 0.535956 0.439610
C26   C     C_R   0.144910 0.503995 0.464531 0.360365
C27   C     C_R   0.973263 0.483660 0.529312 -0.194045
C28   C     C_R   0.028504 0.472873 0.474389 -0.251231
C29   C     C_R   0.471687 0.413923 0.122065 0.662904
C30   C     C_R   0.636246 0.501555 0.870508 0.669802
C31   C     C_R   0.646871 0.509782 0.111674 0.701048
C32   C     C_R   0.458426 0.410410 0.882299 0.663436
C33   C     C_R   0.653027 0.497808 0.051120 -0.185021
C34   C     C_R   0.509588 0.567693 0.233389 0.132471
C35   C     C_R   0.466310 0.398668 0.941290 -0.164604
C36   C     C_R   0.558778 0.453027 0.026406 -0.095933
C37   C     C_R   0.556957 0.451127 0.966025 -0.078996
C38   C     C_R   0.465547 0.411505 0.062078 -0.188345
C39   C     C_R   0.644518 0.503091 0.930601 -0.153897
C40   C     C_R   0.747747 0.533174 0.014773 0.332608
C41   C     C_R   0.381875 0.343936 0.976784 0.355849
C42   C     C_R   0.736854 0.551882 0.956397 0.325691
C43   C     C_R   0.372045 0.365702 0.036565 0.325610
C44   C     C_3   0.943986 0.291336 0.360351 -0.577506
C45   C     C_R   0.515904 0.399233 0.694066 0.094941
C46   C     C_3   0.950375 0.345119 0.632872 -0.723618
C47   C     C_3   0.680011 0.279163 0.770077 -0.667792
C48   C     C_3   0.560994 0.734564 0.188123 -0.635096
C49   C     C_3   0.408608 0.255646 0.654484 -0.786900
C50   C     C_3   0.540175 0.738970 0.343449 -0.719796
C51   C     C_3   0.185099 0.197650 0.499589 -0.723770
C52   C     C_3   0.822683 0.822031 0.487345 -0.528927
C53   C     C_3   0.744138 0.033942 0.376772 -0.676172
C54   C     C_3   0.245092 0.955564 0.610649 -0.664399
C55   C     C_R   0.492134 0.575780 0.294024 0.124397
C56   C     C_R   0.497056 0.496974 0.673488 -0.191401
C57   C     C_R   0.506521 0.488627 0.326436 -0.240865
C58   C     C_R   0.491480 0.586068 0.711552 0.247534
H1    H     H_    0.627083 0.174760 0.464520 0.205584
H2    H     H_    0.927652 0.304717 0.315292 0.309801
H3    H     H_    0.864001 0.276697 0.387282 0.214121
H4    H     H_    0.989451 0.219793 0.360380 0.194573
H5    H     H_    0.038022 0.472417 0.665420 0.303465
H6    H     H_    0.913294 0.326863 0.677283 0.257743
H7    H     H_    0.018669 0.293639 0.620701 0.214272
H8    H     H_    0.885325 0.329294 0.603116 0.234575
H9    H     H_    0.968033 0.648653 0.854874 0.398573
H10   H     H_    0.070092 0.330526 0.052625 0.419706
H11   H     H_    0.518482 0.229180 0.757724 0.260072
H12   H     H_    0.370988 0.825433 0.530550 0.224671
H13   H     H_    0.692050 0.204087 0.789572 0.260054
H14   H     H_    0.722700 0.342249 0.794723 0.275887
H15   H     H_    0.717744 0.277969 0.724541 0.222387
H16   H     H_    0.399792 0.667032 0.205507 0.258453
H17   H     H_    0.572559 0.750000 0.141204 0.266707
H18   H     H_    0.642324 0.719173 0.202278 0.269977
H19   H     H_    0.531067 0.805015 0.211843 0.229928
H20   H     H_    0.577475 0.261175 0.660189 0.243998
H21   H     H_    0.372424 0.234505 0.698664 0.261888
H22   H     H_    0.416814 0.182831 0.628158 0.233231
H23   H     H_    0.989189 0.639107 0.084679 0.401433
H24   H     H_    0.352155 0.305067 0.635224 0.267638
H25   H     H_    0.400257 0.706375 0.300979 0.274579
H26   H     H_    0.601050 0.765816 0.307355 0.239485
H27   H     H_    0.583189 0.700355 0.375305 0.247973
H28   H     H_    0.502609 0.807722 0.365276 0.240674
H29   H     H_    0.645407 0.767727 0.708694 0.359871
H30   H     H_    0.368330 0.209090 0.389342 0.373427
H31   H     H_    0.353610 0.606269 0.889303 0.382350
H32   H     H_    0.598141 0.143800 0.160650 0.390116
H33   H     H_    0.227615 0.170758 0.581056 0.240426
H34   H     H_    0.335034 0.119719 0.879465 0.400305
H35   H     H_    0.116662 0.244165 0.518738 0.214414
H36   H     H_    0.150365 0.118622 0.487770 0.243937
H37   H     H_    0.223547 0.236953 0.460231 0.258014
H38   H     H_    0.755487 0.812148 0.408778 0.258706
H39   H     H_    0.867612 0.749982 0.484797 0.261983
H40   H     H_    0.793798 0.839162 0.533344 0.231939
H41   H     H_    0.880792 0.887199 0.470993 0.211273
H42   H     H_    0.771883 0.086614 0.460571 0.215030
H43   H     H_    0.826433 0.068617 0.359635 0.245440
H44   H     H_    0.680051 0.085291 0.367012 0.297938
H45   H     H_    0.259589 0.442302 0.359893 0.355376
H46   H     H_    0.729555 0.957322 0.354506 0.237068
H47   H     H_    0.224322 0.912977 0.524732 0.248681
H48   H     H_    0.161239 0.921030 0.625223 0.262472
H49   H     H_    0.259945 0.028976 0.635956 0.227920
H50   H     H_    0.306540 0.900586 0.619627 0.286980
H51   H     H_    0.726449 0.719489 0.610783 0.374026
H52   H     H_    0.138963 0.712194 0.685943 0.402838
H53   H     H_    0.906518 0.567568 0.290154 0.398468
H54   H     H_    0.090727 0.363123 0.383242 0.231157
N1    N     N_R   0.558311 0.466619 0.145125 -0.327418
N2    N     N_2   0.454696 0.668584 0.322313 -0.233816
N3    N     N_2   0.264835 0.191795 0.540987 -0.288460
N4    N     N_2   0.731043 0.807384 0.452390 -0.265020
N5    N     N_2   0.741243 0.021955 0.438497 -0.336029
N6    N     N_2   0.252300 0.975427 0.549460 -0.330505
N7    N     N_R   0.541700 0.462067 0.849035 -0.324899
N8    N     N_R   0.207800 0.519350 0.510590 -0.197514
N9    N     N_R   0.792200 0.480650 0.489410 -0.230916
N10   N     N_2   0.010170 0.380141 0.381559 -0.220583
N11   N     N_2   0.992350 0.453080 0.631385 -0.199976
N12   N     N_2   0.563235 0.293635 0.772621 -0.283308
N13   N     N_2   0.480463 0.647312 0.198229 -0.303911
N14   N     N_2   0.516075 0.310183 0.655955 -0.315141
O1    O     O_R   0.421690 0.658830 0.502820 -0.564787
O2    O     O_2   0.721378 0.536612 0.833103 -0.460742
O3    O     O_2   0.726733 0.565684 0.137391 -0.467451
O4    O     O_2   0.365453 0.377398 0.858521 -0.473911
O5    O     O_2   0.884850 0.446136 0.079680 -0.222639
O6    O     O_2   0.967037 0.515237 0.987683 -0.195833
O7    O     O_3   0.915472 0.646617 0.071771 -0.444979
O8    O     O_2   0.271683 0.156409 0.995660 -0.208428
O9    O     O_2   0.203651 0.266318 0.925340 -0.171430
O10   O     O_3   0.384588 0.175064 0.895635 -0.517565
O11   O     O_2   0.091351 0.634336 0.387032 -0.206595
O12   O     O_R   0.578310 0.341170 0.497180 -0.637198
O13   O     O_2   0.276871 0.659054 0.415237 -0.266802
O14   O     O_3   0.231554 0.504345 0.344286 -0.492943
O15   O     O_2   0.760003 0.510219 0.645907 -0.289191
O16   O     O_2   0.905532 0.643801 0.618079 -0.256202
O17   O     O_3   0.719860 0.661536 0.581976 -0.516992
O18   O     O_2   0.245054 0.535078 0.666012 -0.318772
O19   O     O_2   0.293570 0.676778 0.597423 -0.248346
O20   O     O_3   0.103394 0.669713 0.655797 -0.505943
O21   O     O_2   0.749054 0.434240 0.338877 -0.289544
O22   O     O_2   0.760954 0.612258 0.382331 -0.332898
O23   O     O_R   0.609320 0.646410 0.496030 -0.540494
O24   O     O_3   0.933166 0.542755 0.325649 -0.445484
O25   O     O_2   0.765452 0.716882 0.886850 -0.193236
O26   O     O_2   0.886962 0.717764 0.963099 -0.200738
O27   O     O_3   0.923731 0.590986 0.875138 -0.451564
O28   O     O_2   0.222159 0.254862 0.107254 -0.177773
O29   O     O_2   0.224078 0.444968 0.117802 -0.232502
O30   O     O_3   0.139069 0.357038 0.030039 -0.447767
O31   O     O_2   0.511591 0.717480 0.620695 -0.333133
O32   O     O_2   0.369722 0.748187 0.699181 -0.180383
O33   O     O_3   0.573231 0.798835 0.715380 -0.459253
O34   O     O_R   0.390680 0.353590 0.503970 -0.611872
O35   O     O_2   0.496484 0.182563 0.298043 -0.220193
O36   O     O_2   0.605819 0.265173 0.371865 -0.309248
O37   O     O_3   0.394106 0.282584 0.382381 -0.629036
O38   O     O_2   0.578916 0.742544 0.828046 -0.154713
O39   O     O_2   0.386474 0.743216 0.809015 -0.186455
O40   O     O_3   0.432016 0.631265 0.890702 -0.543475
O41   O     O_2   0.725437 0.325913 0.156273 -0.252671
O42   O     O_2   0.706965 0.237632 0.247774 -0.220428
O43   O     O_3   0.553064 0.199247 0.178849 -0.472262
O44   O     O_R   0.406170 0.506240 0.587240 -0.566097
O45   O     O_R   0.593830 0.493760 0.412760 -0.542287
O46   O     O_R   0.593790 0.493820 0.580450 -0.551531
O47   O     O_R   0.406210 0.506180 0.419550 -0.582022
O48   O     O_2   0.394126 0.361808 0.157628 -0.426326
S1    S     S_3+6 0.882580 0.532474 0.038275 0.152680
S2    S     S_3+6 0.510423 0.276468 0.337468 0.059374
S3    S     S_3+6 0.473577 0.675949 0.824437 0.136003
S4    S     S_3+6 0.644386 0.287793 0.205239 0.126172
S5    S     S_3+6 0.305245 0.233341 0.948984 0.143776
S6    S     S_3+6 0.187380 0.578136 0.402094 0.092376
S7    S     S_3+6 0.810018 0.577986 0.597436 0.060159
S8    S     S_3+6 0.203896 0.600903 0.621948 0.065107
S9    S     S_3+6 0.818295 0.513736 0.370215 0.075360
S10   S     S_3+6 0.828971 0.649110 0.920510 0.157130
S11   S     S_3+6 0.237462 0.354977 0.075312 0.155962
S12   S     S_3+6 0.484309 0.713510 0.684777 0.113483
Zn1   Zn    Zn3+2 0.374720 0.508290 0.504530 1.077036
Zn2   Zn    Zn3+2 0.625280 0.491710 0.495470 1.092648

loop_
_geom_bond_atom_site_label_1
_geom_bond_atom_site_label_2
_ccdc_geom_bond_type
C48   H19   S    
H53   O24   S    
C23   C45   A    
C58   S12   S    
C1    C8    S    
C9    N5    S    
C48   H18   S    
O12   Zn2   S    
C48   H17   S    
C29   O48   S    
C32   O4    S    
C2    C57   A    
C50   H26   S    
O25   S10   D    
O30   S11   S    
C15   C19   A    
C49   N14   S    
O10   S5    S    
O45   Zn2   S    
C5    N7    S    
O17   S7    S    
O33   S12   S    
C36   C37   A    
C35   C37   A    
C26   N8    A    
C46   H8    S    
C34   N13   S    
C53   N5    S    
H16   N13   S    
O36   S2    D    
C30   N7    A    
C43   S11   S    
C53   H46   S    
C52   H39   S    
C33   C36   A    
O39   S3    D    
C18   C19   A    
O5    S1    D    
C14   C18   A    
O13   S6    D    
C17   O47   A    
C50   H27   S    
C2    S2    S    
C48   N13   S    
C9    C19   A    
C45   C56   A    
C53   H43   S    
C52   H40   S    
C51   H37   S    
C29   C38   A    
O1    Zn1   S    
C31   C33   A    
C1    O23   A    
O8    S5    D    
O26   S10   D    
C41   C43   A    
C20   N10   S    
C40   C42   A    
C21   C27   A    
C34   C55   A    
C14   H12   S    
H25   N2    S    
H34   O10   S    
C35   C41   A    
O37   S2    S    
O32   S12   D    
C25   S7    S    
C39   C42   A    
C30   O2    S    
C52   N4    S    
C7    C12   S    
C10   C18   A    
O28   S11   D    
O18   S8    D    
C24   N8    A    
C33   C40   A    
O20   S8    S    
C24   S8    S    
C32   C35   A    
O31   S12   D    
C47   H15   S    
C46   H7    S    
C4    C6    A    
O29   S11   D    
O35   S2    D    
C54   H48   S    
C7    C15   A    
C20   C28   A    
H11   N12   S    
C44   H4    S    
C56   C58   A    
O19   S8    D    
C51   N3    S    
C6    C34   A    
C46   H6    S    
C50   N2    S    
O6    S1    D    
C49   H24   S    
C21   N11   S    
C2    C4    A    
C16   C56   S    
C6    N1    S    
H54   N10   S    
C22   S9    S    
C10   N6    S    
C16   O44   A    
C9    C11   A    
C16   O46   A    
C5    C23   A    
O27   S10   S    
C8    C11   A    
C53   H44   S    
O41   S4    D    
H51   O17   S    
O40   S3    S    
C12   O34   A    
C11   N4    S    
O7    S1    S    
C47   H13   S    
C13   N3    S    
C51   H35   S    
C54   H49   S    
C20   C22   A    
C55   C57   A    
C12   O12   A    
H47   N6    S    
C32   N7    A    
H29   O33   S    
H20   N14   S    
N8    Zn1   S    
C3    C5    A    
O43   S4    S    
C22   N9    A    
O21   S9    D    
C29   N1    A    
O47   Zn1   S    
C8    C14   A    
C15   H1    S    
C41   S5    S    
C1    O1    A    
C4    S4    S    
H10   O30   S    
C10   C13   A    
C40   S1    S    
H5    N11   S    
C17   O45   A    
H23   O7    S    
O24   S9    S    
C55   N2    S    
C26   S6    S    
C44   H3    S    
C25   C27   A    
H30   O37   S    
C52   H41   S    
C26   C28   A    
C49   H22   S    
C54   H50   S    
H9    O27   S    
C42   S10   S    
C54   N6    S    
C36   C38   A    
C3    S3    S    
O9    S5    D    
C38   C43   A    
C31   O3    S    
H45   O14   S    
N9    Zn2   S    
C47   N12   S    
O11   S6    D    
C44   H2    S    
O22   S9    D    
O42   S4    D    
H32   O43   S    
C44   N10   S    
O14   S6    S    
H33   N3    S    
C30   C39   A    
O15   S7    D    
C46   N11   S    
O44   Zn1   S    
H31   O40   S    
C50   H28   S    
C51   H36   S    
C3    C58   A    
C49   H21   S    
C7    C13   A    
O16   S7    D    
C47   H14   S    
O23   Zn2   S    
C37   C39   A    
C21   C24   A    
C45   N14   S    
C27   C28   A    
H38   N4    S    
H42   N5    S    
O34   Zn1   S    
H52   O20   S    
C23   N12   S    
C25   N9    A    
C31   N1    A    
O38   S3    D    
O46   Zn2   S    
C17   C57   S    
