data_mof_unit_42938.cif
_audit_creation_date              2013-03-05T16:31:07-0500
_audit_creation_method            fapswitch 2.2
_symmetry_space_group_name_H-M    P1
_symmetry_Int_Tables_number       1
_space_group_crystal_system       triclinic
_cell_length_a                    10.776519
_cell_length_b                    10.820488
_cell_length_c                    9.558914
_cell_angle_alpha                 90.191553
_cell_angle_beta                  90.109779
_cell_angle_gamma                 90.070256
_cell_volume                      1114.62902226

loop_
_atom_site_label
_atom_site_type_symbol
_atom_site_description
_atom_site_fract_x
_atom_site_fract_y
_atom_site_fract_z
_atom_type_partial_charge
O1    O     O_R   0.500000 0.319640 0.618810 -0.594195
O2    O     O_R   0.500010 0.319680 0.381230 -0.574906
C1    C     C_R   0.497167 0.262392 0.499783 0.761721
O3    O     O_R   0.319640 0.499980 0.618820 -0.587739
O4    O     O_R   0.319650 0.500020 0.381230 -0.592319
C2    C     C_R   0.262801 0.496973 0.499897 0.801868
Cu1   Cu    Cu3+1 0.499990 0.499980 0.640670 0.977277
Cu2   Cu    Cu3+1 0.500010 0.500020 0.359330 0.975384
O5    O     O_R   0.499990 0.680320 0.618770 -0.581786
O6    O     O_R   0.500000 0.680360 0.381190 -0.578735
O7    O     O_R   0.680350 0.499980 0.618770 -0.550813
O8    O     O_R   0.680360 0.500020 0.381180 -0.574823
C3    C     C_R   0.497120 0.737659 0.500031 0.873465
C4    C     C_R   0.737378 0.498973 0.500182 0.880372
H1    H     H_    0.118435 0.665766 0.394331 0.181160
C5    C     C_R   0.128129 0.288298 0.616759 -0.166305
H2    H     H_    0.228304 0.282561 0.616986 0.134858
C6    C     C_R   0.062398 0.189115 0.672579 -0.102905
H3    H     H_    0.111834 0.110842 0.715516 0.151473
C7    C     C_R   0.933355 0.189842 0.671538 -0.092546
H4    H     H_    0.882663 0.112009 0.713644 0.145077
C8    C     C_R   0.869332 0.290000 0.615172 -0.117940
H5    H     H_    0.769180 0.285183 0.614418 0.120344
C9    C     C_R   0.934034 0.392698 0.559647 0.078712
C10   C     C_R   0.065041 0.391216 0.559966 0.107649
C11   C     C_R   0.129300 0.491215 0.499626 -0.150644
C12   C     C_R   0.066357 0.589584 0.438725 -0.235820
C13   C     C_R   0.937792 0.594706 0.441282 0.350731
C14   C     C_R   0.871437 0.495639 0.501245 -0.186339
C15   C     C_R   0.475582 0.064285 0.624602 0.072489
C16   C     C_R   0.483670 0.129388 0.499082 -0.110965
C17   C     C_R   0.473554 0.064068 0.372150 -0.174784
H6    H     H_    0.471922 0.111757 0.272743 0.188884
C18   C     C_R   0.473891 0.935248 0.372253 -0.176036
H7    H     H_    0.472256 0.886909 0.272846 0.166269
C19   C     C_R   0.484565 0.870837 0.499296 -0.067930
C20   C     C_R   0.476837 0.936943 0.624496 0.093844
C21   C     C_3   0.556384 0.931444 0.752526 -0.485568
C22   C     C_3   0.554473 0.072042 0.753135 -0.207529
H8    H     H_    0.506929 0.887615 0.841653 0.190883
H9    H     H_    0.649997 0.893014 0.730259 0.226235
H10   H     H_    0.646455 0.115597 0.735230 0.147029
C23   C     C_R   0.607450 0.518252 0.074082 0.196761
N1    N     N_R   0.500790 0.500930 0.147930 -0.193497
C24   C     C_R   0.396284 0.469976 0.073854 -0.035619
H11   H     H_    0.311709 0.446577 0.128189 0.159191
C25   C     C_R   0.396210 0.470181 0.925404 -0.041994
H12   H     H_    0.311588 0.446844 0.870573 0.165726
N2    N     N_R   0.500790 0.500890 0.852020 -0.223732
C26   C     C_R   0.607854 0.517410 0.926632 0.208908
C27   C     C_3   0.690392 0.628685 0.923530 0.101947
C28   C     C_3   0.689971 0.628528 0.082624 -0.468233
H13   H     H_    0.645532 0.710969 0.876730 0.112832
H14   H     H_    0.780963 0.605765 0.130850 0.254451
H15   H     H_    0.642647 0.710309 0.128727 0.197906
C29   C     C_1   0.486171 0.124520 0.872408 0.315076
N3    N     N_1   0.432411 0.165569 0.966343 -0.312678
N4    N     N_R   0.812899 0.602055 0.864931 0.166322
O9    O     O_R   0.873052 0.502230 0.899186 -0.361071
O10   O     O_R   0.863684 0.680285 0.779263 -0.336363
N5    N     N_R   0.876739 0.703163 0.387786 0.113105
O11   O     O_R   0.926557 0.765446 0.286008 -0.362003
O12   O     O_R   0.782734 0.750858 0.453777 -0.372134

loop_
_geom_bond_atom_site_label_1
_geom_bond_atom_site_label_2
_geom_bond_distance
_ccdc_geom_bond_type
O4    Cu2   1.955293 S    
C1    C16   1.446308 S    
C23   N1    1.363117 A    
C23   C26   1.409474 A    
C20   C21   1.494244 S    
C6    C7    1.390683 A    
C16   C17   1.406125 A    
C28   H15   1.112084 S    
Cu2   O8    1.954339 S    
C17   H6    1.082935 S    
N5    O11   1.301697 A    
N5    O12   1.300800 A    
C26   C27   1.496497 S    
N4    O9    1.302859 A    
Cu1   Cu2   2.689307 S    
C25   N2    1.369779 A    
C27   N4    1.463686 S    
C24   H11   1.080135 S    
C13   N5    1.440909 S    
C21   H8    1.112926 S    
C13   C14   1.411648 A    
C11   C12   1.391523 A    
C2    C11   1.439942 S    
C21   H9    1.112302 S    
O3    Cu1   1.954337 S    
O4    C2    1.290729 A    
C5    C6    1.393427 A    
C19   C20   1.394870 A    
C28   H14   1.111009 S    
C15   C22   1.494830 S    
C18   H7    1.083240 S    
C22   H10   1.110862 S    
C18   C19   1.406793 A    
C24   C25   1.419025 A    
C15   C16   1.396194 A    
O7    C4    1.290503 A    
C8    C9    1.416397 A    
C23   C28   1.489221 S    
O3    C2    1.290555 A    
C29   N3    1.157214 T    
C7    C8    1.394695 A    
C4    C14   1.445203 S    
N4    O10   1.300724 A    
C27   C28   1.520784 S    
C22   C29   1.471056 S    
C7    H4    1.082444 S    
Cu2   N1    2.020844 S    
C5    C10   1.414777 A    
C21   C22   1.521494 S    
C9    C10   1.411904 A    
Cu1   N2    2.020270 S    
C3    C19   1.447595 S    
Cu2   O6    1.961828 S    
N2    C26   1.366497 A    
C12   C13   1.386917 A    
Cu1   O5    1.963259 S    
O5    C3    1.295675 A    
C9    C14   1.418445 A    
C6    H3    1.082684 S    
Cu1   O7    1.955293 S    
O2    C1    1.293914 A    
C27   H13   1.108803 S    
C10   C11   1.409573 A    
O1    Cu1   1.961828 S    
H1    C12   1.084748 S    
C8    H5    1.080494 S    
O2    Cu2   1.963260 S    
N1    C24   1.369801 A    
C25   H12   1.080190 S    
C15   C20   1.377986 A    
O8    C4    1.291929 A    
C5    H2    1.081399 S    
O1    C1    1.293940 A    
O6    C3    1.292792 A    
C17   C18   1.393910 A    
