data_mof_unit_33926.cif
_audit_creation_date              2012-12-10T21:07:48-0500
_audit_creation_method            fapswitch 2.2
_symmetry_space_group_name_H-M    P1
_symmetry_Int_Tables_number       1
_space_group_crystal_system       triclinic
_cell_length_a                    8.586919
_cell_length_b                    17.544071
_cell_length_c                    16.787204
_cell_angle_alpha                 90.264704
_cell_angle_beta                  98.715797
_cell_angle_gamma                 89.780837
_cell_volume                      2499.74065491

loop_
_atom_site_label
_atom_site_type_symbol
_atom_type_description
_atom_site_fract_x
_atom_site_fract_y
_atom_site_fract_z
_atom_type_partial_charge
C1    C     C_R   0.505594 0.353329 0.500172 0.928419
C2    C     C_R   0.383397 0.463046 0.243657 -0.004890
C3    C     C_R   0.536281 0.566229 0.835429 0.319552
C4    C     C_R   0.379065 0.461645 0.159282 0.359241
C5    C     C_R   0.497977 0.499432 0.875440 -0.173790
C6    C     C_R   0.499040 0.498523 0.124538 -0.183458
C7    C     C_1   0.497367 0.498934 0.963404 0.277318
C8    C     C_1   0.497568 0.498604 0.036422 0.226514
C9    C     C_R   0.200670 0.499478 0.478989 1.005361
C10   C     C_R   0.799337 0.500304 0.520999 0.993716
C11   C     C_2   0.035750 0.499365 0.467519 -0.272609
C12   C     C_R   0.496375 0.646440 0.499986 0.952549
C13   C     C_2   0.964243 0.500239 0.532418 -0.294697
C14   C     C_R   0.405088 0.850048 0.542616 -0.216809
C15   C     C_R   0.617006 0.150947 0.457437 -0.198719
C16   C     C_R   0.388634 0.771238 0.537700 0.411166
C17   C     C_R   0.610520 0.230101 0.451998 0.445025
C18   C     C_R   0.499246 0.728603 0.501445 -0.169804
C19   C     C_R   0.517725 0.270763 0.501215 -0.188260
C20   C     C_R   0.620661 0.764883 0.469360 -0.193306
C21   C     C_R   0.437857 0.231666 0.555460 -0.210791
C22   C     C_R   0.635114 0.843409 0.474492 -0.082514
C23   C     C_1   0.537137 0.965434 0.513499 0.008157
C24   C     C_R   0.446857 0.153042 0.560392 -0.102249
C25   C     C_R   0.527832 0.885308 0.511480 0.062674
C26   C     C_R   0.536025 0.113312 0.511298 0.048281
C27   C     C_1   0.539155 0.033075 0.513552 0.008201
C28   C     C_R   0.460697 0.432997 0.828213 0.340007
C29   C     C_R   0.620578 0.535401 0.177246 0.239003
C30   C     C_R   0.460663 0.435431 0.744146 -0.094447
C31   C     C_R   0.616778 0.535760 0.261071 -0.039369
C32   C     C_R   0.538431 0.564369 0.751485 -0.017202
H1    H     H_    0.973670 0.498759 0.405983 0.193622
H2    H     H_    0.707909 0.564729 0.301464 0.176934
H3    H     H_    0.570774 0.614812 0.721230 0.211735
H4    H     H_    0.293475 0.434192 0.270640 0.195242
H5    H     H_    0.131279 0.814766 0.645612 0.372875
H6    H     H_    0.911651 0.241327 0.319700 0.399752
H7    H     H_    0.511262 0.278224 0.974012 0.413600
H8    H     H_    0.844500 0.478777 0.084558 0.366438
H9    H     H_    0.610193 0.770733 0.856413 0.401354
H10   H     H_    0.010828 0.355214 0.120134 0.394172
H11   H     H_    0.026350 0.500907 0.593937 0.192462
H12   H     H_    0.321512 0.884340 0.569541 0.173922
H13   H     H_    0.685306 0.118247 0.419995 0.204441
H14   H     H_    0.705815 0.732192 0.441760 0.189516
H15   H     H_    0.367134 0.262042 0.593601 0.187500
H16   H     H_    0.729232 0.871387 0.449667 0.173266
H17   H     H_    0.383325 0.123228 0.601802 0.169238
H18   H     H_    0.429062 0.385205 0.707929 0.188523
N1    N     N_R   0.500040 0.500030 0.707230 -0.147523
N2    N     N_R   0.499960 0.499970 0.292770 -0.141091
O1    O     O_R   0.500000 0.389130 0.566570 -0.642759
O2    O     O_2   0.278156 0.685306 0.648536 -0.273304
O3    O     O_3   0.092695 0.795637 0.590572 -0.535003
O4    O     O_2   0.620580 0.306938 0.315277 -0.269314
O5    O     O_2   0.820876 0.338011 0.431160 -0.330583
O6    O     O_3   0.850740 0.211535 0.354311 -0.546633
O7    O     O_2   0.249451 0.353779 0.894186 -0.200639
O8    O     O_2   0.414122 0.281641 0.813137 -0.294948
O9    O     O_3   0.541989 0.328585 0.955084 -0.528791
O10   O     O_2   0.720662 0.659136 0.109535 -0.164659
O11   O     O_2   0.914086 0.593067 0.207569 -0.269018
O12   O     O_R   0.500000 0.610870 0.433430 -0.620263
O13   O     O_3   0.838915 0.532260 0.065786 -0.445788
O14   O     O_2   0.472405 0.667125 0.946925 -0.238762
O15   O     O_2   0.749513 0.646459 0.932618 -0.182641
O16   O     O_3   0.574851 0.725644 0.822790 -0.535224
O17   O     O_2   0.155217 0.458842 0.029229 -0.220917
O18   O     O_2   0.291768 0.339028 0.070188 -0.235464
O19   O     O_3   0.083942 0.389064 0.155220 -0.564347
O20   O     O_R   0.499990 0.389100 0.433480 -0.554972
O21   O     O_R   0.500010 0.610900 0.566520 -0.587034
O22   O     O_R   0.271750 0.500010 0.550980 -0.597504
O23   O     O_R   0.728250 0.499990 0.449020 -0.604586
O24   O     O_R   0.271740 0.499980 0.417890 -0.625042
O25   O     O_R   0.728260 0.500020 0.582110 -0.618129
O26   O     O_2   0.145306 0.674846 0.509448 -0.302896
S1    S     S_3+6 0.224339 0.728907 0.572407 0.041718
S2    S     S_3+6 0.726507 0.274804 0.386841 0.036430
S3    S     S_3+6 0.411783 0.346473 0.871851 0.070979
S4    S     S_3+6 0.777740 0.582351 0.140933 0.106544
S5    S     S_3+6 0.584621 0.652582 0.887927 0.093219
S6    S     S_3+6 0.225207 0.411220 0.099985 0.081046
Zn1   Zn    Zn3+2 0.500010 0.500020 0.588860 1.020488
Zn2   Zn    Zn3+2 0.499990 0.499980 0.411140 1.040551

loop_
_geom_bond_atom_site_label_1
_geom_bond_atom_site_label_2
_ccdc_geom_bond_type
C22   H16   S    
C30   N1    A    
O15   S5    D    
C31   N2    A    
N1    Zn1   S    
C7    C8    T    
C26   C27   S    
C19   C21   A    
C24   C26   A    
O2    S1    D    
C12   O12   A    
C10   O23   A    
C1    O1    A    
O14   S5    D    
H6    O6    S    
C22   C25   A    
C9    O24   A    
C23   C27   T    
O18   S6    D    
O6    S2    S    
C30   H18   S    
O25   Zn1   S    
O22   Zn1   S    
C12   O21   A    
O5    S2    D    
O12   Zn2   S    
C10   O25   A    
H9    O16   S    
H7    O9    S    
C1    C19   S    
C1    O20   A    
O11   S4    D    
C32   H3    S    
C11   H1    S    
C4    C6    A    
C5    C7    S    
O26   S1    D    
C15   C26   A    
C6    C8    S    
C17   S2    S    
C2    C4    A    
C32   N1    A    
C5    C28   A    
O3    S1    S    
O8    S3    D    
O23   Zn2   S    
C4    S6    S    
C31   H2    S    
C9    C11   S    
O21   Zn1   S    
C2    N2    A    
C20   C22   A    
H8    O13   S    
C3    S5    S    
C14   C16   A    
C9    O22   A    
C15   H13   S    
O24   Zn2   S    
C13   H11   S    
C14   H12   S    
O19   S6    S    
C2    H4    S    
C24   H17   S    
C15   C17   A    
C28   S3    S    
O16   S5    S    
O7    S3    D    
C3    C5    A    
C10   C13   S    
O20   Zn2   S    
O4    S2    D    
C16   S1    S    
C28   C30   A    
C29   S4    S    
C29   C31   A    
O17   S6    D    
O9    S3    S    
C11   C13   D    
O13   S4    S    
N2    Zn2   S    
H10   O19   S    
C17   C19   A    
C18   C20   A    
C23   C25   S    
C14   C25   A    
O10   S4    D    
C3    C32   A    
H5    O3    S    
C6    C29   A    
C16   C18   A    
C21   C24   A    
C12   C18   S    
O1    Zn1   S    
C20   H14   S    
C21   H15   S    
