data_mof_unit_59872.cif
_audit_creation_date              2013-03-05T15:50:31-0500
_audit_creation_method            fapswitch 2.2
_symmetry_space_group_name_H-M    P1
_symmetry_Int_Tables_number       1
_space_group_crystal_system       triclinic
_cell_length_a                    19.155628
_cell_length_b                    7.14413
_cell_length_c                    17.710374
_cell_angle_alpha                 90.000617
_cell_angle_beta                  109.097352
_cell_angle_gamma                 90.000321
_cell_volume                      2290.28091939

loop_
_atom_site_label
_atom_site_type_symbol
_atom_site_description
_atom_site_fract_x
_atom_site_fract_y
_atom_site_fract_z
_atom_type_partial_charge
O1    O     O_R   0.562310 0.505770 0.439670 -0.591078
O2    O     O_R   0.437690 0.005770 0.560330 -0.591070
O3    O     O_R   0.411650 0.169150 0.405330 -0.585489
O4    O     O_R   0.588350 0.669150 0.594670 -0.585489
C1    C     C_R   0.384540 0.345903 0.382740 0.811446
C2    C     C_R   0.615459 0.845904 0.617260 0.811447
O5    O     O_R   0.560140 0.175610 0.430010 -0.593639
O6    O     O_R   0.439860 0.675610 0.569990 -0.593633
O7    O     O_R   0.587240 0.012100 0.585200 -0.588794
O8    O     O_R   0.412760 0.512100 0.414800 -0.588795
C3    C     C_R   0.581258 0.344633 0.415151 0.934048
C4    C     C_R   0.418740 0.844633 0.584846 0.934041
O9    O     O_3   0.508720 0.341420 0.550890 -0.278619
O10   O     O_3   0.491280 0.841420 0.449110 -0.278626
V1    V     V_3+5 0.498380 0.063930 0.490560 1.135115
V2    V     V_3+5 0.501620 0.563930 0.509440 1.135116
C5    C     C_R   0.175276 0.762796 0.869412 -0.200118
C6    C     C_R   0.824702 0.262790 0.130562 -0.200012
C7    C     C_R   0.127676 0.916895 0.861778 -0.310777
C8    C     C_R   0.872291 0.416907 0.138186 -0.310916
C9    C     C_R   0.127363 0.060359 0.806120 0.299793
C10   C     C_R   0.872575 0.560405 0.193815 0.299866
C11   C     C_R   0.176937 0.051433 0.761740 -0.031369
C12   C     C_R   0.823003 0.551482 0.238192 -0.031298
C13   C     C_R   0.223868 0.894242 0.770102 -0.010070
C14   C     C_R   0.776096 0.394259 0.229857 -0.010093
C15   C     C_R   0.222151 0.748811 0.823271 0.155098
C16   C     C_R   0.777828 0.248804 0.176706 0.155046
C17   C     C_R   0.179751 0.194050 0.707752 -0.120409
C18   C     C_R   0.820165 0.694148 0.292147 -0.120360
C19   C     C_R   0.228707 0.182860 0.664251 -0.236118
C20   C     C_R   0.771217 0.682953 0.335657 -0.236213
C21   C     C_R   0.274932 0.027121 0.671985 0.152201
C22   C     C_R   0.725020 0.527171 0.327958 0.152190
C23   C     C_R   0.272129 0.881102 0.724434 0.064368
C24   C     C_R   0.727841 0.381118 0.275531 0.064414
C25   C     C_R   0.317299 0.721504 0.730958 0.151072
C26   C     C_R   0.682695 0.221490 0.269036 0.151082
C27   C     C_R   0.314383 0.577226 0.783573 -0.235612
C28   C     C_R   0.685623 0.077190 0.216436 -0.235673
C29   C     C_R   0.267568 0.591211 0.829606 -0.175234
C30   C     C_R   0.732430 0.091180 0.170393 -0.175310
C31   C     C_R   0.323440 0.014585 0.627570 -0.246637
C32   C     C_R   0.676521 0.514628 0.372383 -0.246654
C33   C     C_R   0.368465 0.855811 0.633289 -0.144106
C34   C     C_R   0.631525 0.355815 0.366699 -0.144107
C35   C     C_R   0.364552 0.708984 0.684808 -0.262610
C36   C     C_R   0.635454 0.208960 0.315200 -0.262642
H1    H     H_    0.176221 0.653012 0.912003 0.165987
H2    H     H_    0.823767 0.152993 0.087981 0.166084
H3    H     H_    0.144494 0.315929 0.698798 0.184416
H4    H     H_    0.855396 0.816071 0.301061 0.184418
H5    H     H_    0.229996 0.296036 0.623976 0.142701
H6    H     H_    0.769908 0.796163 0.375908 0.142724
H7    H     H_    0.325152 0.127695 0.587388 0.140679
H8    H     H_    0.674794 0.627767 0.412544 0.140699
H9    H     H_    0.398998 0.586117 0.689874 0.142573
H10   H     H_    0.601030 0.086063 0.310160 0.142587
H11   H     H_    0.348425 0.453463 0.789243 0.140651
H12   H     H_    0.651599 0.953406 0.210786 0.140682
H13   H     H_    0.266492 0.477781 0.869839 0.138124
H14   H     H_    0.733517 0.977730 0.130173 0.138180
C37   C     C_3   0.751986 0.813338 0.837809 -0.348119
C38   C     C_3   0.248015 0.313342 0.162188 -0.348081
H15   H     H_    0.772096 0.674050 0.864125 0.152537
H16   H     H_    0.227904 0.174050 0.135870 0.152522
H17   H     H_    0.740209 0.897293 0.885179 0.130860
H18   H     H_    0.259792 0.397302 0.114819 0.130844
C39   C     C_3   0.679359 0.786148 0.766204 -0.366444
C40   C     C_3   0.320641 0.286151 0.233793 -0.366461
H19   H     H_    0.632949 0.857074 0.779417 0.133802
H20   H     H_    0.367051 0.357083 0.220581 0.133805
H21   H     H_    0.665658 0.634472 0.758411 0.154326
H22   H     H_    0.334342 0.134474 0.241583 0.154323
H23   H     H_    0.847867 0.652528 0.767310 0.169952
H24   H     H_    0.152132 0.152518 0.232686 0.169950
H25   H     H_    0.740445 0.613211 0.662843 0.158966
H26   H     H_    0.259554 0.113201 0.337152 0.158960
C41   C     C_3   0.825663 0.792405 0.743664 -0.314356
C42   C     C_3   0.174335 0.292398 0.256335 -0.314370
C43   C     C_3   0.781907 0.104273 0.775294 -0.375142
C44   C     C_3   0.218093 0.604279 0.224710 -0.375175
C45   C     C_3   0.812720 0.912490 0.811361 0.108775
C46   C     C_3   0.187279 0.412492 0.188639 0.108829
H27   H     H_    0.823372 0.178487 0.754489 0.183558
H28   H     H_    0.176627 0.678492 0.245517 0.183506
H29   H     H_    0.770921 0.193602 0.821671 0.145549
H30   H     H_    0.229081 0.693613 0.178333 0.145557
C47   C     C_3   0.687420 0.866800 0.688275 0.122482
C48   C     C_3   0.312579 0.366798 0.311725 0.122463
C49   C     C_3   0.752778 0.765294 0.672350 -0.374839
C50   C     C_3   0.247221 0.265286 0.327648 -0.374808
C51   C     C_3   0.709670 0.078319 0.704354 -0.306291
C52   C     C_3   0.290330 0.578321 0.295650 -0.306244
H31   H     H_    0.664699 0.156940 0.717320 0.155356
H32   H     H_    0.335301 0.656948 0.282685 0.155351
H33   H     H_    0.717088 0.141981 0.650096 0.155249
H34   H     H_    0.282911 0.641980 0.349910 0.155247
H35   H     H_    0.867761 0.861064 0.722101 0.168646
H36   H     H_    0.132236 0.361053 0.277900 0.168614
H37   H     H_    0.760123 0.820905 0.616747 0.144136
H38   H     H_    0.239875 0.320893 0.383253 0.144137
O11   O     O_R   0.087220 0.271820 0.085230 -0.605176
O12   O     O_R   0.912780 0.771820 0.914770 -0.605180
O13   O     O_R   0.939860 0.595540 0.069990 -0.556773
O14   O     O_R   0.060140 0.095540 0.930010 -0.556672
C53   C     C_R   0.920095 0.426592 0.086495 0.978586
C54   C     C_R   0.079896 0.926589 0.913495 0.978812
O15   O     O_R   0.088340 0.601930 0.094680 -0.583147
O16   O     O_R   0.911660 0.101930 0.905320 -0.583050
O17   O     O_R   0.062310 0.765410 0.939660 -0.584953
O18   O     O_R   0.937690 0.265410 0.060340 -0.584876
C55   C     C_R   0.115849 0.431853 0.117902 0.855421
C56   C     C_R   0.884151 0.931852 0.882098 0.855592
O19   O     O_3   0.991270 0.429630 0.949130 -0.257613
O20   O     O_3   0.008730 0.929630 0.050870 -0.257650
V3    V     V_3+5 0.001620 0.707150 0.009440 1.218135
V4    V     V_3+5 0.998380 0.207150 0.990560 1.218207
N1    N     N_R   0.074097 0.208665 0.791396 0.236687
O21   O     O_R   0.095197 0.379040 0.813013 -0.426549
O22   O     O_R   0.003935 0.171263 0.760908 -0.421619
N2    N     N_R   0.925822 0.708747 0.208520 0.236703
O23   O     O_R   0.904717 0.879051 0.186746 -0.426569
O24   O     O_R   0.995973 0.671503 0.239411 -0.421564

loop_
_geom_bond_atom_site_label_1
_geom_bond_atom_site_label_2
_geom_bond_distance
_ccdc_geom_bond_type
O18   V4    1.998037 S    
C37   H15   1.112813 S    
O4    V2    1.990647 S    
C46   C55   1.529436 S    
C28   H12   1.083589 S    
C53   O18   1.325246 A    
O1    C3    1.322369 A    
C29   H13   1.083721 S    
C42   C46   1.558691 S    
O2    C4    1.322373 A    
O16   V4    1.990620 S    
C2    O7    1.350378 A    
O15   V3    1.990639 S    
C27   C29   1.399015 A    
O5    C3    1.326901 A    
O13   C53   1.325907 A    
C44   C52   1.545977 S    
C11   C17   1.410315 A    
C41   H35   1.112774 S    
C23   C25   1.413022 A    
C12   C14   1.415618 A    
C3    C34   1.486788 S    
C38   H18   1.112810 S    
C52   H34   1.113477 S    
O20   V3    1.737176 S    
C6    C8    1.407464 A    
O6    V2    2.004065 S    
C39   H19   1.112640 S    
C32   H8    1.084296 S    
C38   C46   1.559294 S    
C18   H4    1.081360 S    
C5    C7    1.407480 A    
C37   C39   1.557871 S    
C41   C45   1.558652 S    
C40   H22   1.112842 S    
C19   C21   1.400499 A    
C39   H21   1.112826 S    
C38   C40   1.557873 S    
C25   C35   1.406934 A    
C30   H14   1.083700 S    
C41   C49   1.558233 S    
C1    C48   1.539423 S    
C50   H38   1.112689 S    
C8    C53   1.493293 S    
C7    C54   1.493306 S    
C28   C30   1.399026 A    
C51   H31   1.113435 S    
C26   C28   1.402808 A    
C42   H36   1.112803 S    
C17   C19   1.397177 A    
C45   C56   1.529433 S    
O13   V3    2.003871 S    
C40   C48   1.549257 S    
C49   H37   1.112676 S    
C39   C47   1.549236 S    
C20   H6    1.083805 S    
C43   C45   1.544980 S    
C32   C34   1.408393 A    
C43   H27   1.113230 S    
C48   C52   1.570635 S    
C34   C36   1.408244 A    
C33   C35   1.408265 A    
C37   H17   1.112782 S    
C5    C15   1.401491 A    
C6    C16   1.401510 A    
O4    C2    1.374159 A    
C5    H1    1.084207 S    
O5    V1    2.004075 S    
H26   C50   1.112945 S    
C44   H28   1.113261 S    
C37   C45   1.559258 S    
C38   H16   1.112838 S    
C42   C50   1.558236 S    
C35   H9    1.084066 S    
C43   C51   1.545975 S    
C15   C29   1.404740 A    
C48   C50   1.550468 S    
O6    C4    1.326900 A    
O19   V4    1.737192 S    
C27   H11   1.083618 S    
C22   C32   1.403008 A    
O1    V2    1.997749 S    
C19   H5    1.083833 S    
C52   H32   1.113449 S    
O2    V1    1.997746 S    
C31   C33   1.408423 A    
C43   H29   1.113234 S    
N1    O22   1.301701 A    
C13   C23   1.416642 A    
O12   C56   1.317213 A    
C14   C24   1.416628 A    
C8    C10   1.420603 A    
C44   C46   1.545004 S    
C9    C11   1.418447 A    
C10   C12   1.418394 A    
O11   V4    2.013353 S    
C47   C49   1.550447 S    
N2    O24   1.301841 A    
C51   H33   1.113461 S    
O3    V1    1.990664 S    
C6    H2    1.084183 S    
O12   V3    2.013365 S    
C17   H3    1.081369 S    
C31   H7    1.084320 S    
O16   C56   1.334679 A    
H25   C49   1.112929 S    
O11   C55   1.317206 A    
C26   C36   1.406935 A    
H24   C42   1.112832 S    
C4    C33   1.486780 S    
O3    C1    1.374165 A    
N1    O21   1.300077 A    
C36   H10   1.084039 S    
O15   C55   1.334683 A    
C13   C15   1.409795 A    
C2    C47   1.539416 S    
C14   C16   1.409774 A    
C54   O17   1.325247 A    
O17   V3    1.998042 S    
C24   C26   1.412982 A    
O7    V1    1.994237 S    
C1    O8    1.350372 A    
C25   C27   1.402829 A    
O8    V2    1.994226 S    
C18   C20   1.397181 A    
O14   C54   1.325910 A    
C44   H30   1.113263 S    
C16   C30   1.404704 A    
C21   C23   1.409472 A    
C22   C24   1.409448 A    
C11   C13   1.415668 A    
C47   C51   1.570604 S    
C12   C18   1.410264 A    
C9    N1    1.434435 S    
O9    V2    1.737540 S    
O10   V1    1.737524 S    
C10   N2    1.434387 S    
C40   H20   1.112655 S    
N2    O23   1.300171 A    
C21   C31   1.403013 A    
H23   C41   1.112805 S    
O14   V4    2.003872 S    
C20   C22   1.400474 A    
C7    C9    1.420683 A    
