data_mof_unit_50765.cif
_audit_creation_date              2012-12-11T14:06:43-0500
_audit_creation_method            fapswitch 2.2
_symmetry_space_group_name_H-M    P1
_symmetry_Int_Tables_number       1
_space_group_crystal_system       triclinic
_cell_length_a                    6.943856
_cell_length_b                    17.322401
_cell_length_c                    24.059632
_cell_angle_alpha                 104.103675
_cell_angle_beta                  90.048491
_cell_angle_gamma                 89.971274
_cell_volume                      2806.75838747

loop_
_atom_site_label
_atom_site_type_symbol
_atom_type_description
_atom_site_fract_x
_atom_site_fract_y
_atom_site_fract_z
_atom_type_partial_charge
O1    O     O_R   0.494290 0.391990 0.999150 -0.539285
O2    O     O_R   0.827170 0.534410 0.082350 -0.536131
O3    O     O_R   0.994360 0.608010 0.000850 -0.516999
C1    C     C_R   0.657551 0.549032 0.106185 0.711728
O4    O     O_R   0.824210 0.388010 0.004470 -0.556891
O5    O     O_R   0.991370 0.460560 0.922410 -0.535763
C2    C     C_R   0.654509 0.354957 0.001568 0.743701
O6    O     O_R   0.497270 0.539440 0.077590 -0.504659
O7    O     O_3   0.659770 0.523970 0.973170 -0.361963
V1    V     V_3+5 0.935840 0.495550 0.004980 1.509052
O8    O     O_R   0.320910 0.465590 0.917650 -0.551697
C3    C     C_R   0.152101 0.453090 0.893716 0.671535
O9    O     O_R   0.323870 0.611990 0.995530 -0.525362
C4    C     C_R   0.154470 0.644971 0.998920 0.756714
V2    V     V_3+5 0.435470 0.504450 0.995020 1.532109
O10   O     O_3   0.161670 0.476030 0.026830 -0.363797
C5    C     C_2   0.144368 0.730305 0.999180 0.126138
C6    C     C_2   0.975442 0.772303 0.008698 0.172215
C7    C     C_R   0.115653 0.257677 0.624270 0.539453
N1    N     N_R   0.094940 0.337462 0.647378 -0.569812
C8    C     C_R   0.057257 0.388573 0.613498 0.596839
C9    C     C_R   0.041547 0.360016 0.553210 -0.138762
C10   C     C_R   0.051003 0.276971 0.529112 -0.052434
C11   C     C_R   0.075519 0.224320 0.565412 -0.146217
C12   C     C_R   0.018770 0.412314 0.516639 0.409343
C13   C     C_R   0.032502 0.383141 0.456584 -0.140087
C14   C     C_R   0.028475 0.299444 0.432004 -0.145690
C15   C     C_R   0.033037 0.246700 0.468921 -0.072129
C16   C     C_R   0.019845 0.163617 0.445635 -0.156034
C17   C     C_R   0.038354 0.110750 0.482143 0.441494
C18   C     C_R   0.061195 0.140791 0.541923 -0.178478
C19   C     C_R   0.015075 0.266079 0.371818 0.588615
N2    N     N_R   0.995709 0.185643 0.350363 -0.519757
C20   C     C_R   0.984549 0.135519 0.386213 0.663623
O11   O     O_2   0.179621 0.211645 0.658253 -0.525139
O12   O     O_2   0.039882 0.466928 0.638339 -0.475091
O13   O     O_2   0.017985 0.313160 0.334763 -0.519182
O14   O     O_2   0.935648 0.058823 0.364134 -0.501364
C21   C     C_R   0.125173 0.094499 0.262119 0.411848
C22   C     C_R   0.111832 0.058541 0.202868 0.292600
C23   C     C_R   0.971939 0.084716 0.168862 -0.284790
C24   C     C_R   0.841945 0.145284 0.195405 0.360564
C25   C     C_R   0.849760 0.177322 0.254944 -0.278243
H1    H     H_    0.744662 0.221592 0.274955 0.183714
C26   C     C_R   0.989937 0.152446 0.288789 0.167281
C27   C     C_R   0.272921 0.415017 0.732718 0.022375
C28   C     C_R   0.286746 0.445836 0.793254 -0.075285
C29   C     C_R   0.142103 0.426797 0.829681 -0.180764
C30   C     C_R   0.984192 0.380517 0.804941 -0.090575
H2    H     H_    0.873252 0.366443 0.832560 0.174469
C31   C     C_R   0.965580 0.352132 0.745421 0.036754
C32   C     C_R   0.112172 0.367929 0.708994 0.199265
C33   C     C_R   0.567327 0.871153 0.615917 0.648821
N3    N     N_R   0.493531 0.823018 0.648273 -0.560953
C34   C     C_R   0.438349 0.746417 0.623508 0.595122
C35   C     C_R   0.460034 0.714745 0.564079 -0.021023
C36   C     C_R   0.538517 0.762889 0.530182 -0.073065
C37   C     C_R   0.591235 0.842390 0.555895 -0.134487
C38   C     C_R   0.407994 0.635751 0.537981 -0.141586
C39   C     C_R   0.437063 0.604319 0.479342 -0.135988
C40   C     C_R   0.517200 0.651212 0.445118 -0.015940
C41   C     C_R   0.566041 0.730986 0.470527 -0.008633
C42   C     C_R   0.644456 0.778505 0.436444 -0.104495
C43   C     C_R   0.695578 0.857487 0.462086 -0.230501
C44   C     C_R   0.666986 0.890228 0.520949 0.498064
C45   C     C_R   0.548746 0.620471 0.385911 0.629240
N4    N     N_R   0.621591 0.668104 0.352958 -0.537668
C46   C     C_R   0.670243 0.745803 0.377261 0.580523
O15   O     O_2   0.617630 0.946477 0.641980 -0.475232
O16   O     O_2   0.365231 0.700617 0.656393 -0.495253
H3    H     H_    0.347292 0.597461 0.562947 0.204661
H4    H     H_    0.397708 0.542927 0.461029 0.153036
O17   O     O_2   0.505171 0.543829 0.361484 -0.513776
O18   O     O_2   0.744120 0.791325 0.344274 -0.529247
H5    H     H_    0.760592 0.894220 0.436668 0.212863
C47   C     C_R   0.514438 0.668583 0.255985 -0.256968
H6    H     H_    0.413990 0.715307 0.275501 0.143054
C48   C     C_R   0.515457 0.639030 0.196496 -0.000660
C49   C     C_R   0.645302 0.577087 0.170299 -0.216911
C50   C     C_R   0.767040 0.543875 0.206373 -0.166776
C51   C     C_R   0.766871 0.576889 0.266696 0.506546
C52   C     C_R   0.636236 0.637914 0.291389 0.239193
C53   C     C_R   0.649410 0.855623 0.743090 -0.166695
H7    H     H_    0.784856 0.835181 0.722334 0.133039
C54   C     C_R   0.643364 0.884845 0.802995 0.427167
C55   C     C_R   0.468292 0.915174 0.830373 -0.157641
C56   C     C_R   0.301747 0.911651 0.796235 -0.259022
H8    H     H_    0.165744 0.934053 0.815461 0.204278
C57   C     C_R   0.308745 0.880275 0.736736 -0.071184
H9    H     H_    0.179024 0.878653 0.711465 0.146311
C58   C     C_R   0.482944 0.852552 0.709794 0.317498
C59   C     C_2   0.642640 0.269784 0.002012 -0.345191
H10   H     H_    0.776742 0.238937 0.005462 0.146437
C60   C     C_2   0.472892 0.230271 0.998120 -0.330170
H11   H     H_    0.338768 0.261157 0.994786 0.148240
O19   O     O_R   0.618210 0.960470 0.922400 -0.509548
O20   O     O_R   0.291310 0.111960 0.995450 -0.553965
O21   O     O_R   0.124210 0.039530 0.077580 -0.524009
C61   C     C_R   0.460999 0.145070 0.998501 0.777978
O22   O     O_R   0.288310 0.965490 0.917650 -0.542980
O23   O     O_R   0.121180 0.892010 0.999220 -0.526853
C62   C     C_R   0.457371 0.948756 0.893929 0.746288
O24   O     O_R   0.621230 0.107990 0.000760 -0.535382
O25   O     O_3   0.455770 0.976060 0.026840 -0.367325
V3    V     V_3+5 0.179680 0.004440 0.995020 1.493489
O26   O     O_R   0.791670 0.888040 0.004570 -0.542490
C63   C     C_R   0.961688 0.855618 0.003238 0.686352
O27   O     O_R   0.794680 0.034510 0.082370 -0.525042
C64   C     C_R   0.963301 0.050541 0.105859 0.792037
V4    V     V_3+5 0.680070 0.995560 0.005010 1.523212
O28   O     O_3   0.953840 0.023940 0.973160 -0.372336
O29   O     O_3   0.316047 0.767940 0.993393 -0.553022
C65   C     C_3   0.389824 0.798044 0.049106 -0.086295
H12   H     H_    0.428774 0.748962 0.069147 0.115895
H13   H     H_    0.286727 0.838804 0.077056 0.084433
H14   H     H_    0.519548 0.833414 0.046536 0.202328
C66   C     C_2   0.421209 0.432111 0.692665 0.540322
H15   H     H_    0.458129 0.386845 0.654352 -0.001280
O30   O     O_2   0.495600 0.497689 0.700184 -0.490860
C67   C     C_2   0.447611 0.499479 0.818659 0.516386
H16   H     H_    0.418429 0.552801 0.852048 0.022165
O31   O     O_2   0.614011 0.483382 0.804077 -0.516369
C68   C     C_2   0.789532 0.307285 0.721433 0.457229
H17   H     H_    0.764350 0.290656 0.675584 0.026703
O32   O     O_2   0.668624 0.288809 0.752699 -0.519052
O33   O     O_3   0.730991 0.966610 0.545036 -0.505329
C69   C     C_3   0.606032 0.021735 0.529223 -0.131056
H18   H     H_    0.651500 0.082786 0.551435 0.139326
H19   H     H_    0.457142 0.014260 0.543337 0.170555
H20   H     H_    0.611615 0.017465 0.482410 0.120245
O34   O     O_3   0.814588 0.739413 0.027887 -0.544533
C70   C     C_3   0.827977 0.753499 0.088236 -0.250584
H21   H     H_    0.794569 0.816728 0.108872 0.102167
H22   H     H_    0.971283 0.737392 0.102983 0.140507
H23   H     H_    0.721096 0.715745 0.103241 0.143755
C71   C     C_2   0.378080 0.676638 0.164250 0.344263
H24   H     H_    0.383247 0.740498 0.169139 -0.002674
O35   O     O_2   0.248207 0.638230 0.136342 -0.527731
C72   C     C_2   0.883754 0.471305 0.181541 0.499474
H25   H     H_    0.847287 0.433322 0.139988 -0.007797
O36   O     O_2   0.020611 0.452167 0.207122 -0.498245
O37   O     O_3   0.883525 0.545231 0.302163 -0.503053
C73   C     C_3   0.049262 0.593253 0.315450 -0.052496
H26   H     H_    0.144124 0.566819 0.342855 0.195463
H27   H     H_    0.131501 0.595372 0.276151 0.136956
H28   H     H_    0.013178 0.654540 0.340114 0.104372
O38   O     O_3   0.812192 0.888333 0.833988 -0.555373
C74   C     C_3   0.853288 0.811829 0.841572 -0.211872
H29   H     H_    0.884282 0.768959 0.799958 0.153802
H30   H     H_    0.733909 0.789425 0.864293 0.137730
H31   H     H_    0.984220 0.815671 0.868578 0.151531
O39   O     O_3   0.001346 0.493497 0.539333 -0.526317
C75   C     C_3   0.803538 0.511912 0.547583 -0.022528
H32   H     H_    0.738263 0.483011 0.579587 0.137347
H33   H     H_    0.721248 0.494370 0.506764 0.123469
H34   H     H_    0.788625 0.577223 0.564215 0.168303
C76   C     C_2   0.062783 0.441662 0.421218 0.527254
H35   H     H_    0.173472 0.431167 0.388452 0.102804
O40   O     O_2   0.967417 0.502537 0.428738 -0.506516
O41   O     O_3   0.018582 0.029295 0.460308 -0.521984
C77   C     C_3   0.195283 0.995765 0.436630 -0.047698
H36   H     H_    0.304803 0.039705 0.429788 0.084173
H37   H     H_    0.166161 0.954450 0.394403 0.185354
H38   H     H_    0.257262 0.959412 0.464252 0.134372
C78   C     C_2   0.045312 0.084833 0.579920 0.593430
H39   H     H_    0.968289 0.102605 0.620227 0.096756
O42   O     O_2   0.113150 0.017924 0.566430 -0.508186
O43   O     O_3   0.263122 0.068514 0.294831 -0.538542
C79   C     C_3   0.431887 0.113141 0.294162 -0.192165
H40   H     H_    0.406503 0.177760 0.312768 0.128738
H41   H     H_    0.490134 0.103016 0.249938 0.183632
H42   H     H_    0.542448 0.093101 0.320874 0.179656
O44   O     O_3   0.239909 0.998897 0.178251 -0.533326
C80   C     C_3   0.172225 0.926495 0.187916 -0.178951
H43   H     H_    0.045261 0.905085 0.160348 0.086695
H44   H     H_    0.135863 0.930892 0.233661 0.180393
H45   H     H_    0.288076 0.881445 0.176525 0.131460
O45   O     O_3   0.700025 0.170599 0.163562 -0.540883
C81   C     C_3   0.757276 0.243817 0.153034 -0.184381
H46   H     H_    0.894666 0.237603 0.128497 0.115146
H47   H     H_    0.770635 0.291007 0.193548 0.173878
H48   H     H_    0.644990 0.263347 0.126622 0.147137

loop_
_geom_bond_atom_site_label_1
_geom_bond_atom_site_label_2
_ccdc_geom_bond_type
O23   C63   A    
C73   H28   S    
C61   O24   A    
C56   H8    S    
C48   C49   A    
C78   H39   S    
C31   C32   A    
O19   C62   A    
N2    C26   S    
C23   C24   A    
N3    C34   A    
O38   C74   S    
C74   H31   S    
C1    O6    A    
C33   O15   S    
C51   C52   A    
C68   H17   S    
C8    O12   S    
O44   C80   S    
O27   C64   A    
C17   O41   S    
O22   V3    S    
C76   H35   S    
O21   V3    S    
C12   O39   S    
C59   H10   S    
C15   C16   A    
C74   H30   S    
C66   O30   D    
O5    C3    A    
C17   C18   A    
C34   C35   A    
C68   O32   D    
O26   C63   A    
C39   H4    S    
C46   O18   S    
C73   H26   S    
C27   C32   A    
C31   C68   S    
C35   C36   A    
C13   C76   S    
C19   N2    A    
C79   H40   S    
C21   O43   S    
C80   H43   S    
O29   C65   S    
C77   H37   S    
C6    C63   S    
O8    V2    S    
C40   C45   A    
C75   H32   S    
C18   C78   S    
O27   V4    S    
C70   H21   S    
C30   C31   A    
C9    C12   A    
C10   C11   A    
O1    V2    S    
C57   C58   A    
O7    V1    S    
C3    C29   S    
C21   C26   A    
C65   H14   S    
O20   V3    S    
C45   N4    A    
V3    O28   S    
C38   C39   A    
C76   O40   D    
O21   C64   A    
C23   C64   S    
C8    C9    A    
C79   H41   S    
C4    C5    S    
C6    O34   S    
C60   H11   S    
O22   C62   A    
O25   V3    S    
O20   C61   A    
C67   O31   D    
O45   C81   S    
O23   V3    S    
V2    O10   S    
C42   C43   A    
N4    C46   A    
O43   C79   S    
C36   C41   A    
C74   H29   S    
C1    C49   S    
C71   O35   D    
C47   C52   A    
C21   C22   A    
O4    C2    A    
C55   C56   A    
C71   H24   S    
C78   O42   D    
C12   C13   A    
C54   C55   A    
C45   O17   S    
O19   V4    S    
C16   C20   A    
V4    O28   S    
C27   C66   S    
C39   C40   A    
O2    C1    A    
C25   H1    S    
C69   H19   S    
C16   C17   A    
C37   C44   A    
C28   C29   A    
O9    V2    S    
C33   C37   A    
C41   C42   A    
C59   C60   D    
C5    C6    D    
C13   C14   A    
C19   O13   S    
C47   H6    S    
C75   H34   S    
C25   C26   A    
C80   H45   S    
O3    C4    A    
C22   C23   A    
C53   C54   A    
O6    V2    S    
O24   V4    S    
C79   H42   S    
C53   H7    S    
C75   H33   S    
C10   C15   A    
O34   C70   S    
O2    V1    S    
C5    O29   S    
C77   H38   S    
C67   H16   S    
C65   H12   S    
O26   V4    S    
C73   H27   S    
C27   C28   A    
C51   O37   S    
C14   C19   A    
C20   O14   S    
C54   O38   S    
C47   C48   A    
C50   C51   A    
O5    V1    S    
C72   H25   S    
C33   N3    A    
C81   H46   S    
C50   C72   S    
C53   C58   A    
C42   C46   A    
C35   C38   A    
C44   O33   S    
C81   H48   S    
C7    N1    A    
C56   C57   A    
C7    C11   A    
O7    V2    S    
C11   C18   A    
N3    C58   S    
N1    C32   S    
O3    V1    S    
C7    O11   S    
C66   H15   S    
O41   C77   S    
O25   V4    S    
C72   O36   D    
C36   C37   A    
C22   O44   S    
C77   H36   S    
C60   C61   S    
C24   O45   S    
O33   C69   S    
C29   C30   A    
C2    C59   S    
C43   C44   A    
C70   H23   S    
C43   H5    S    
N2    C20   A    
C40   C41   A    
C80   H44   S    
C69   H20   S    
C34   O16   S    
C49   C50   A    
O4    V1    S    
N1    C8    A    
N4    C52   S    
C70   H22   S    
C30   H2    S    
C24   C25   A    
C14   C15   A    
O37   C73   S    
C28   C67   S    
C9    C10   A    
O1    C2    A    
V1    O10   S    
O39   C75   S    
C65   H13   S    
C57   H9    S    
O9    C4    A    
C48   C71   S    
C69   H18   S    
O8    C3    A    
C38   H3    S    
C81   H47   S    
C55   C62   S    
