data_mof_unit_63723.cif
_audit_creation_date              2012-12-10T17:07:36-0500
_audit_creation_method            fapswitch 2.2
_symmetry_space_group_name_H-M    P1
_symmetry_Int_Tables_number       1
_space_group_crystal_system       triclinic
_cell_length_a                    30.161301
_cell_length_b                    30.161301
_cell_length_c                    23.687203
_cell_angle_alpha                 90.000013
_cell_angle_beta                  90.000013
_cell_angle_gamma                 90.0
_cell_volume                      21548.3451658

loop_
_atom_site_label
_atom_site_type_symbol
_atom_type_description
_atom_site_fract_x
_atom_site_fract_y
_atom_site_fract_z
_atom_type_partial_charge
C1    C     C_R   0.585619 0.000000 0.500000 0.805741
C2    C     C_R   1.000000 0.585619 0.500000 0.805741
C3    C     C_R   0.414381 0.000000 0.500000 0.805741
C4    C     C_R   0.000000 0.414381 0.500000 0.805741
C5    C     C_R   0.085619 0.500000 0.000000 0.805741
C6    C     C_R   0.500000 0.085619 0.000000 0.805741
C7    C     C_R   0.914381 0.500000 0.000000 0.805741
C8    C     C_R   0.500000 0.914381 0.000000 0.805741
C9    C     C_R   0.726780 0.057653 0.572028 -0.208124
C10   C     C_R   0.942347 0.726780 0.572028 -0.208124
C11   C     C_R   0.273220 0.942347 0.572028 -0.208125
C12   C     C_R   0.057653 0.273220 0.572028 -0.208124
C13   C     C_R   0.726780 0.942347 0.427972 -0.208124
C14   C     C_R   0.942347 0.273220 0.427972 -0.208124
C15   C     C_R   0.273220 0.057653 0.427972 -0.208124
C16   C     C_R   0.057653 0.726779 0.427972 -0.208125
C17   C     C_R   0.226780 0.557653 0.072028 -0.208124
C18   C     C_R   0.442347 0.226780 0.072028 -0.208124
C19   C     C_R   0.773220 0.442347 0.072028 -0.208125
C20   C     C_R   0.557653 0.773220 0.072028 -0.208124
C21   C     C_R   0.226780 0.442347 0.927972 -0.208124
C22   C     C_R   0.442347 0.773220 0.927972 -0.208124
C23   C     C_R   0.773220 0.557653 0.927972 -0.208124
C24   C     C_R   0.557653 0.226779 0.927972 -0.208125
C25   C     C_R   0.703345 0.029306 0.535814 0.109225
C26   C     C_R   0.970694 0.703345 0.535814 0.109224
C27   C     C_R   0.296655 0.970694 0.535814 0.109225
C28   C     C_R   0.029306 0.296655 0.535814 0.109225
C29   C     C_R   0.703345 0.970694 0.464186 0.109224
C30   C     C_R   0.970694 0.296655 0.464186 0.109224
C31   C     C_R   0.296655 0.029306 0.464186 0.109224
C32   C     C_R   0.029306 0.703345 0.464186 0.109225
C33   C     C_R   0.203345 0.529306 0.035814 0.109225
C34   C     C_R   0.470694 0.203345 0.035814 0.109224
C35   C     C_R   0.796655 0.470694 0.035814 0.109225
C36   C     C_R   0.529306 0.796655 0.035814 0.109225
C37   C     C_R   0.203345 0.470694 0.964186 0.109224
C38   C     C_R   0.470694 0.796655 0.964186 0.109224
C39   C     C_R   0.796655 0.529306 0.964186 0.109224
C40   C     C_R   0.529306 0.203345 0.964186 0.109225
C41   C     C_R   0.726623 0.000000 0.500000 0.060179
C42   C     C_R   1.000000 0.726623 0.500000 0.060179
C43   C     C_R   0.273376 0.000000 0.500000 0.060179
C44   C     C_R   1.000000 0.273376 0.500000 0.060179
C45   C     C_R   0.226623 0.500000 0.000000 0.060179
C46   C     C_R   0.500000 0.226623 1.000000 0.060179
C47   C     C_R   0.773376 0.500000 0.000000 0.060179
C48   C     C_R   0.500000 0.773376 0.000000 0.060179
C49   C     C_R   0.657025 0.029617 0.534833 -0.240381
C50   C     C_R   0.970383 0.657025 0.534833 -0.240381
C51   C     C_R   0.342975 0.970383 0.534833 -0.240380
C52   C     C_R   0.029617 0.342975 0.534833 -0.240381
C53   C     C_R   0.657025 0.970383 0.465166 -0.240380
C54   C     C_R   0.970383 0.342975 0.465166 -0.240381
C55   C     C_R   0.342975 0.029617 0.465166 -0.240381
C56   C     C_R   0.029617 0.657025 0.465166 -0.240380
C57   C     C_R   0.157025 0.529617 0.034833 -0.240381
C58   C     C_R   0.470383 0.157025 0.034833 -0.240381
C59   C     C_R   0.842975 0.470383 0.034833 -0.240380
C60   C     C_R   0.529617 0.842975 0.034833 -0.240381
C61   C     C_R   0.157025 0.470383 0.965167 -0.240380
C62   C     C_R   0.470383 0.842975 0.965167 -0.240381
C63   C     C_R   0.842975 0.529617 0.965167 -0.240381
C64   C     C_R   0.529617 0.157025 0.965167 -0.240380
C65   C     C_R   0.633953 0.000000 0.500000 -0.057262
C66   C     C_R   0.000000 0.633953 0.500000 -0.057262
C67   C     C_R   0.366046 0.000000 0.500000 -0.057262
C68   C     C_R   0.000000 0.366046 0.500000 -0.057262
C69   C     C_R   0.133953 0.500000 0.000000 -0.057262
C70   C     C_R   0.500000 0.133953 0.000000 -0.057262
C71   C     C_R   0.866047 0.500000 0.000000 -0.057262
C72   C     C_R   0.500000 0.866047 0.000000 -0.057262
C73   C     C_R   1.000000 0.914188 0.500000 0.812634
C74   C     C_R   0.085812 1.000000 0.500000 0.812634
C75   C     C_R   1.000000 0.085812 0.500000 0.812634
C76   C     C_R   0.914188 0.000000 0.500000 0.812634
C77   C     C_R   0.500000 0.414188 0.000000 0.812634
C78   C     C_R   0.585812 0.500000 0.000000 0.812634
C79   C     C_R   0.500000 0.585812 0.000000 0.812634
C80   C     C_R   0.414188 0.500000 0.000000 0.812634
C81   C     C_R   0.500000 0.000000 0.608125 0.815816
C82   C     C_R   1.000000 0.500000 0.608125 0.815816
C83   C     C_R   0.500000 1.000000 0.391875 0.815817
C84   C     C_R   1.000000 0.500000 0.391875 0.815817
C85   C     C_R   0.000000 0.500000 0.108125 0.815816
C86   C     C_R   0.500000 0.000000 0.108125 0.815816
C87   C     C_R   0.000000 0.500000 0.891875 0.815817
C88   C     C_R   0.500000 0.000000 0.891875 0.815817
C89   C     C_1   0.500000 0.000000 0.668992 -0.173984
C90   C     C_1   0.000000 0.500000 0.668992 -0.173984
C91   C     C_1   0.500000 1.000000 0.331008 -0.173984
C92   C     C_1   1.000000 0.500000 0.331008 -0.173984
C93   C     C_1   0.000000 0.500000 0.168992 -0.173984
C94   C     C_1   0.500000 0.000000 0.168992 -0.173984
C95   C     C_1   0.000000 0.500000 0.831008 -0.173984
C96   C     C_1   0.500000 0.000000 0.831008 -0.173984
C97   C     C_1   0.500000 0.000000 0.720059 0.003351
C98   C     C_1   1.000000 0.500000 0.720059 0.003351
C99   C     C_1   0.500000 1.000000 0.279941 0.003351
C100  C     C_1   1.000000 0.500000 0.279941 0.003351
C101  C     C_1   1.000000 0.500000 0.220059 0.003351
C102  C     C_1   0.500000 1.000000 0.220059 0.003351
C103  C     C_1   1.000000 0.500000 0.779941 0.003351
C104  C     C_1   0.500000 0.000000 0.779941 0.003351
C105  C     C_R   0.842816 0.972476 0.462485 -0.243812
C106  C     C_R   0.027524 0.842816 0.462485 -0.243812
C107  C     C_R   0.157184 0.027524 0.462485 -0.243812
C108  C     C_R   0.972476 0.157184 0.462485 -0.243812
C109  C     C_R   0.842816 0.027524 0.537515 -0.243812
C110  C     C_R   0.027524 0.157184 0.537515 -0.243812
C111  C     C_R   0.157184 0.972476 0.537515 -0.243812
C112  C     C_R   0.972476 0.842816 0.537515 -0.243812
C113  C     C_R   0.342816 0.472476 0.962485 -0.243812
C114  C     C_R   0.527524 0.342816 0.962485 -0.243812
C115  C     C_R   0.657184 0.527524 0.962485 -0.243812
C116  C     C_R   0.472476 0.657184 0.962485 -0.243812
C117  C     C_R   0.342816 0.527524 0.037515 -0.243812
C118  C     C_R   0.527524 0.657184 0.037515 -0.243812
C119  C     C_R   0.657184 0.472476 0.037515 -0.243812
C120  C     C_R   0.472476 0.342816 0.037515 -0.243812
C121  C     C_R   0.865874 0.000000 0.500000 -0.062084
C122  C     C_R   1.000000 0.865874 0.500000 -0.062084
C123  C     C_R   0.134125 1.000000 0.500000 -0.062084
C124  C     C_R   1.000000 0.134125 0.500000 -0.062084
C125  C     C_R   0.365874 0.500000 1.000000 -0.062084
C126  C     C_R   0.500000 0.365874 1.000000 -0.062084
C127  C     C_R   0.634125 0.500000 0.000000 -0.062084
C128  C     C_R   0.500000 0.634125 0.000000 -0.062084
C129  C     C_R   0.796497 0.028299 0.537105 0.109777
C130  C     C_R   0.971700 0.796497 0.537105 0.109776
C131  C     C_R   0.203503 0.971700 0.537105 0.109777
C132  C     C_R   0.028299 0.203503 0.537105 0.109777
C133  C     C_R   0.796497 0.971700 0.462895 0.109777
C134  C     C_R   0.971700 0.203503 0.462895 0.109777
C135  C     C_R   0.203503 0.028299 0.462895 0.109776
C136  C     C_R   0.028299 0.796497 0.462895 0.109777
C137  C     C_R   0.296497 0.528300 0.037105 0.109777
C138  C     C_R   0.471700 0.296497 0.037105 0.109776
C139  C     C_R   0.703503 0.471700 0.037105 0.109777
C140  C     C_R   0.528300 0.703503 0.037105 0.109777
C141  C     C_R   0.296497 0.471700 0.962894 0.109777
C142  C     C_R   0.471700 0.703503 0.962894 0.109777
C143  C     C_R   0.703503 0.528300 0.962894 0.109776
C144  C     C_R   0.528300 0.296497 0.962894 0.109777
C145  C     C_R   0.773218 0.000000 0.500000 0.060621
C146  C     C_R   1.000000 0.773218 0.500000 0.060621
C147  C     C_R   0.226782 0.000000 0.500000 0.060621
C148  C     C_R   1.000000 0.226782 0.500000 0.060621
C149  C     C_R   0.273218 0.500000 0.000000 0.060621
C150  C     C_R   0.500000 0.273218 1.000000 0.060621
C151  C     C_R   0.726782 0.500000 0.000000 0.060621
C152  C     C_R   0.500000 0.726782 0.000000 0.060621
C153  C     C_R   0.773064 0.056912 0.572978 -0.208757
C154  C     C_R   0.943088 0.773064 0.572978 -0.208757
C155  C     C_R   0.226936 0.943088 0.572978 -0.208758
C156  C     C_R   0.056912 0.226936 0.572978 -0.208758
C157  C     C_R   0.773064 0.943088 0.427022 -0.208758
C158  C     C_R   0.943088 0.226936 0.427022 -0.208757
C159  C     C_R   0.226936 0.056912 0.427022 -0.208757
C160  C     C_R   0.056912 0.773064 0.427022 -0.208758
C161  C     C_R   0.273064 0.556912 0.072978 -0.208757
C162  C     C_R   0.443088 0.273064 0.072978 -0.208757
C163  C     C_R   0.726936 0.443088 0.072978 -0.208758
C164  C     C_R   0.556912 0.726936 0.072978 -0.208758
C165  C     C_R   0.273064 0.443088 0.927022 -0.208758
C166  C     C_R   0.443088 0.726936 0.927022 -0.208757
C167  C     C_R   0.726936 0.556912 0.927022 -0.208757
C168  C     C_R   0.556912 0.273064 0.927022 -0.208758
Cu1   Cu    Cu3+1 0.500000 0.044510 0.500000 0.959234
Cu2   Cu    Cu3+1 0.955490 0.500000 0.500000 0.959234
Cu3   Cu    Cu3+1 0.500000 0.955490 0.500000 0.959234
Cu4   Cu    Cu3+1 0.044510 0.500000 0.500000 0.959234
Cu5   Cu    Cu3+1 0.000000 0.544510 0.000000 0.959234
Cu6   Cu    Cu3+1 0.455490 0.000000 0.000000 0.959234
Cu7   Cu    Cu3+1 0.000000 0.455490 0.000000 0.959234
Cu8   Cu    Cu3+1 0.544510 0.000000 0.000000 0.959234
Cu9   Cu    Cu3+1 1.000000 0.000000 0.555810 0.948971
Cu10  Cu    Cu3+1 1.000000 0.000000 0.444190 0.948971
Cu11  Cu    Cu3+1 0.500000 0.500000 0.055810 0.948971
Cu12  Cu    Cu3+1 0.500000 0.500000 0.944190 0.948971
H1    H     H_    0.861010 0.951052 0.433917 0.145248
H2    H     H_    0.048948 0.861010 0.433917 0.145248
H3    H     H_    0.138990 0.048948 0.433917 0.145248
H4    H     H_    0.951052 0.138990 0.433917 0.145248
H5    H     H_    0.861010 0.048948 0.566083 0.145248
H6    H     H_    0.048948 0.138990 0.566083 0.145248
H7    H     H_    0.138990 0.951052 0.566083 0.145248
H8    H     H_    0.951052 0.861010 0.566083 0.145248
H9    H     H_    0.361010 0.451052 0.933917 0.145248
H10   H     H_    0.548948 0.361010 0.933917 0.145248
H11   H     H_    0.638990 0.548948 0.933917 0.145248
H12   H     H_    0.451052 0.638990 0.933917 0.145248
H13   H     H_    0.361010 0.548948 0.066083 0.145248
H14   H     H_    0.548948 0.638990 0.066083 0.145248
H15   H     H_    0.638990 0.451052 0.066083 0.145248
H16   H     H_    0.451052 0.361010 0.066083 0.145248
H17   H     H_    0.790541 0.078886 0.601519 0.146343
H18   H     H_    0.921114 0.790541 0.601519 0.146342
H19   H     H_    0.209459 0.921114 0.601519 0.146343
H20   H     H_    0.078886 0.209459 0.601519 0.146343
H21   H     H_    0.790540 0.921114 0.398481 0.146343
H22   H     H_    0.921114 0.209459 0.398481 0.146343
H23   H     H_    0.209459 0.078886 0.398481 0.146342
H24   H     H_    0.078886 0.790540 0.398481 0.146343
H25   H     H_    0.290541 0.578886 0.101519 0.146343
H26   H     H_    0.421113 0.290541 0.101519 0.146342
H27   H     H_    0.709459 0.421113 0.101519 0.146343
H28   H     H_    0.578886 0.709459 0.101519 0.146343
H29   H     H_    0.290540 0.421113 0.898481 0.146343
H30   H     H_    0.421113 0.709459 0.898481 0.146343
H31   H     H_    0.709459 0.578886 0.898481 0.146342
H32   H     H_    0.578886 0.290540 0.898481 0.146343
H33   H     H_    0.638842 0.052177 0.561957 0.145213
H34   H     H_    0.947823 0.638842 0.561957 0.145213
H35   H     H_    0.361158 0.947823 0.561957 0.145213
H36   H     H_    0.052177 0.361158 0.561957 0.145213
H37   H     H_    0.638842 0.947823 0.438043 0.145213
H38   H     H_    0.947823 0.361158 0.438043 0.145213
H39   H     H_    0.361158 0.052177 0.438043 0.145213
H40   H     H_    0.052177 0.638842 0.438043 0.145213
H41   H     H_    0.138842 0.552177 0.061957 0.145213
H42   H     H_    0.447823 0.138842 0.061957 0.145213
H43   H     H_    0.861158 0.447823 0.061957 0.145213
H44   H     H_    0.552177 0.861158 0.061957 0.145213
H45   H     H_    0.138842 0.447823 0.938043 0.145213
H46   H     H_    0.447823 0.861158 0.938043 0.145213
H47   H     H_    0.861158 0.552177 0.938043 0.145213
H48   H     H_    0.552177 0.138842 0.938043 0.145213
O1    O     O_R   0.564850 0.037600 0.500050 -0.584785
O2    O     O_R   0.962400 0.564850 0.500050 -0.584784
O3    O     O_R   0.435150 0.962400 0.500050 -0.584784
O4    O     O_R   0.037600 0.435150 0.500050 -0.584785
O5    O     O_R   0.564850 0.962400 0.499950 -0.584785
O6    O     O_R   0.962400 0.435150 0.499950 -0.584784
O7    O     O_R   0.435150 0.037600 0.499950 -0.584785
O8    O     O_R   0.037600 0.564850 0.499950 -0.584785
O9    O     O_R   0.064850 0.537600 0.000050 -0.584785
O10   O     O_R   0.462400 0.064850 0.000050 -0.584784
O11   O     O_R   0.935150 0.462400 0.000050 -0.584784
O12   O     O_R   0.537600 0.935150 0.000050 -0.584785
O13   O     O_R   0.064850 0.462400 0.999950 -0.584785
O14   O     O_R   0.462400 0.935150 0.999950 -0.584784
O15   O     O_R   0.935150 0.537600 0.999950 -0.584785
O16   O     O_R   0.537600 0.064850 0.999950 -0.584785
O17   O     O_R   0.499980 0.037590 0.581430 -0.578571
O18   O     O_R   0.962410 0.499980 0.581430 -0.578571
O19   O     O_R   0.500020 0.962410 0.581430 -0.578571
O20   O     O_R   0.037590 0.500020 0.581430 -0.578571
O21   O     O_R   0.499980 0.962410 0.418570 -0.578571
O22   O     O_R   0.962410 0.500020 0.418570 -0.578571
O23   O     O_R   0.500020 0.037590 0.418570 -0.578571
O24   O     O_R   0.037590 0.499980 0.418570 -0.578571
O25   O     O_R   0.999980 0.537590 0.081430 -0.578571
O26   O     O_R   0.462410 0.999980 0.081430 -0.578571
O27   O     O_R   0.000020 0.462410 0.081430 -0.578571
O28   O     O_R   0.537590 0.000020 0.081430 -0.578571
O29   O     O_R   0.999980 0.462410 0.918570 -0.578571
O30   O     O_R   0.462410 0.000020 0.918570 -0.578571
O31   O     O_R   0.000020 0.537590 0.918570 -0.578571
O32   O     O_R   0.537590 0.999980 0.918570 -0.578571
O33   O     O_R   0.999990 0.935150 0.547130 -0.586755
O34   O     O_R   0.064850 0.999990 0.547130 -0.586755
O35   O     O_R   0.000010 0.064850 0.547130 -0.586755
O36   O     O_R   0.935150 0.000010 0.547130 -0.586755
O37   O     O_R   0.999990 0.064850 0.452870 -0.586755
O38   O     O_R   0.064850 0.000010 0.452870 -0.586755
O39   O     O_R   0.000010 0.935150 0.452870 -0.586755
O40   O     O_R   0.935150 0.999990 0.452870 -0.586755
O41   O     O_R   0.499990 0.435150 0.047130 -0.586755
O42   O     O_R   0.564850 0.499990 0.047130 -0.586755
O43   O     O_R   0.500010 0.564850 0.047130 -0.586755
O44   O     O_R   0.435150 0.500010 0.047130 -0.586755
O45   O     O_R   0.499990 0.564850 0.952870 -0.586755
O46   O     O_R   0.564850 0.500010 0.952870 -0.586755
O47   O     O_R   0.500010 0.435150 0.952870 -0.586755
O48   O     O_R   0.435150 0.499990 0.952870 -0.586755
H49   H     H_    0.709303 0.080200 0.599836 0.146015
H50   H     H_    0.919800 0.709303 0.599836 0.146014
H51   H     H_    0.290697 0.919800 0.599836 0.146015
H52   H     H_    0.080200 0.290697 0.599836 0.146014
H53   H     H_    0.709303 0.919800 0.400164 0.146014
H54   H     H_    0.919800 0.290697 0.400164 0.146015
H55   H     H_    0.290697 0.080200 0.400164 0.146014
H56   H     H_    0.080200 0.709303 0.400164 0.146015
H57   H     H_    0.209303 0.580200 0.099836 0.146015
H58   H     H_    0.419800 0.209303 0.099836 0.146014
H59   H     H_    0.790697 0.419800 0.099836 0.146015
H60   H     H_    0.580200 0.790697 0.099836 0.146014
H61   H     H_    0.209303 0.419800 0.900164 0.146014
H62   H     H_    0.419800 0.790697 0.900164 0.146015
H63   H     H_    0.790697 0.580200 0.900164 0.146014
H64   H     H_    0.580200 0.209303 0.900164 0.146015

loop_
_geom_bond_atom_site_label_1
_geom_bond_atom_site_label_2
_ccdc_geom_bond_type
C114  H10   S    
C130  C146  A    
C33   C45   A    
C81   O19   A    
C35   C47   A    
C10   C154  A    
Cu4   O4    S    
Cu10  O37   S    
C57   H41   S    
Cu11  O44   S    
C40   C46   A    
C6    O10   A    
C120  H16   S    
C14   C158  A    
C4    O4    A    
C39   C47   A    
C26   C50   A    
C60   C72   A    
C22   C38   A    
C49   H33   S    
C80   O48   A    
C20   H60   S    
Cu9   O33   S    
C3    O7    A    
C1    O5    A    
C5    O13   A    
C140  C152  A    
C129  C145  A    
C115  H11   S    
C143  C151  A    
C74   C123  S    
C116  H12   S    
C83   O21   A    
C161  H25   S    
Cu5   O25   S    
C108  C124  A    
C118  C140  A    
C78   C127  S    
C54   H38   S    
Cu4   O8    S    
C75   O35   A    
C85   O27   A    
C135  C159  A    
C108  H4    S    
C25   C41   A    
C58   C70   A    
C63   H47   S    
C109  H5    S    
C28   C44   A    
C79   O43   A    
Cu3   O19   S    
C80   O44   A    
C16   H56   S    
Cu5   O15   S    
C11   C27   A    
C138  C162  A    
C8    O12   A    
Cu7   O29   S    
C23   C167  A    
C63   C71   A    
C96   C104  T    
C133  C145  A    
C37   C45   A    
C56   H40   S    
C105  C133  A    
C75   O37   A    
Cu11  O42   S    
C4    O6    A    
C18   H58   S    
C83   C91   S    
Cu3   O21   S    
C82   O20   A    
Cu1   O23   S    
Cu9   O35   S    
C19   C35   A    
C166  H30   S    
C137  C161  A    
C109  C121  A    
C56   C66   A    
C27   C51   A    
C119  H15   S    
C117  H13   S    
C22   C166  A    
C94   C102  T    
C107  H3    S    
C34   C58   A    
Cu2   O18   S    
C136  C146  A    
C38   C62   A    
C16   C160  A    
C77   O47   A    
C87   O29   A    
C30   C54   A    
C31   C43   A    
Cu5   O31   S    
C23   H63   S    
C154  H18   S    
Cu5   O9    S    
C54   C68   A    
C86   O28   A    
C144  C150  A    
C85   C93   S    
C87   C95   S    
C107  C135  A    
C131  C147  A    
C34   C46   A    
C53   C65   A    
C38   C48   A    
C11   C155  A    
C106  C136  A    
C76   O36   A    
C9    C153  A    
Cu1   Cu3   S    
C6    O16   A    
C12   C156  A    
C13   C157  A    
C73   O33   A    
C25   C49   A    
Cu5   Cu7   S    
C53   H37   S    
Cu3   O3    S    
C82   O18   A    
C62   C72   A    
C75   C124  S    
C164  H28   S    
C3    O3    A    
C4    C68   S    
C93   C101  T    
C55   H39   S    
Cu12  O45   S    
C142  C166  A    
C18   C34   A    
C106  C122  A    
C41   C145  A    
C130  C154  A    
C19   C163  A    
C143  C167  A    
C17   C161  A    
C111  C131  A    
C134  C158  A    
Cu9   Cu10  S    
C135  C147  A    
C76   O40   A    
C109  C129  A    
C77   O41   A    
C157  H21   S    
C78   O46   A    
C155  H19   S    
C26   C42   A    
Cu3   O5    S    
C2    O8    A    
C12   H52   S    
C110  H6    S    
C32   C42   A    
Cu1   O7    S    
C29   C41   A    
C2    C66   S    
Cu6   O30   S    
Cu10  O38   S    
C15   C31   A    
Cu11  O43   S    
C86   O26   A    
C141  C165  A    
C31   C55   A    
C139  C163  A    
C129  C153  A    
C13   H53   S    
C51   C67   A    
Cu7   O11   S    
Cu2   O2    S    
C139  C151  A    
C100  C101  S    
C132  C156  A    
C113  C141  A    
C36   C48   A    
C133  C157  A    
C2    O2    A    
C136  C160  A    
C84   C92   S    
C105  H1    S    
C117  C125  A    
C140  C164  A    
C119  C127  A    
C88   C96   S    
C107  C123  A    
C30   C44   A    
C9    C25   A    
C5    O9    A    
C12   C28   A    
C13   C29   A    
Cu12  O47   S    
C120  C126  A    
C98   C103  S    
C20   C164  A    
C52   H36   S    
C21   C165  A    
Cu2   O22   S    
C35   C59   A    
C142  C152  A    
C5    C69   S    
C110  C124  A    
C1    C65   S    
Cu6   O26   S    
C110  C132  A    
C88   O30   A    
Cu8   O16   S    
C81   C89   S    
C79   O45   A    
C162  H26   S    
C9    H49   S    
C17   C33   A    
C11   H51   S    
Cu11  O41   S    
C3    C67   S    
C8    C72   S    
C84   O22   A    
Cu8   O32   S    
C62   H46   S    
C111  C123  A    
C138  C150  A    
C114  C144  A    
Cu9   O34   S    
C108  C134  A    
C37   C61   A    
C24   H64   S    
C59   H43   S    
C74   O34   A    
Cu8   O12   S    
C47   C151  A    
C48   C152  A    
C16   C32   A    
C87   O31   A    
C42   C146  A    
C134  C148  A    
C51   H35   S    
C6    C70   S    
C160  H24   S    
Cu7   O27   S    
C113  H9    S    
C111  H7    S    
C82   C90   S    
C119  C139  A    
C131  C155  A    
C18   C162  A    
C165  H29   S    
Cu2   Cu4   S    
C114  C126  A    
C163  H27   S    
Cu10  O40   S    
C78   O42   A    
C118  H14   S    
Cu6   Cu8   S    
C97   C104  S    
C88   O32   A    
Cu11  Cu12  S    
C20   C36   A    
C27   C43   A    
C99   C102  S    
C21   C37   A    
C73   C122  S    
Cu4   O20   S    
Cu1   O17   S    
C32   C56   A    
C77   C126  S    
C79   C128  S    
C84   O24   A    
C74   O38   A    
C168  H32   S    
C15   H55   S    
C58   H42   S    
C141  C149  A    
C14   H54   S    
C15   C159  A    
Cu2   O6    S    
C49   C65   A    
C144  C168  A    
C76   C121  S    
C24   C168  A    
Cu9   O36   S    
Cu6   O10   S    
C7    C71   S    
C113  C125  A    
C80   C125  S    
C50   H34   S    
C115  C127  A    
C106  H2    S    
Cu12  O46   S    
C86   C94   S    
C44   C148  A    
C95   C103  T    
C64   C70   A    
C73   O39   A    
C52   C68   A    
C10   C26   A    
C137  C149  A    
C156  H20   S    
C118  C128  A    
C14   C30   A    
C60   H44   S    
C115  C143  A    
C132  C148  A    
C81   O17   A    
Cu6   O14   S    
Cu10  O39   S    
Cu4   O24   S    
C61   H45   S    
C89   C97   T    
C112  C122  A    
Cu8   O28   S    
C17   H57   S    
C159  H23   S    
C8    O14   A    
C19   H59   S    
C105  C121  A    
C10   H50   S    
C50   C66   A    
C46   C150  A    
C7    O11   A    
C158  H22   S    
C116  C142  A    
C120  C138  A    
C64   H48   S    
C92   C100  T    
C61   C69   A    
Cu7   O13   S    
C33   C57   A    
C83   O23   A    
C117  C137  A    
C36   C60   A    
C112  H8    S    
C55   C67   A    
C39   C63   A    
C85   O25   A    
C40   C64   A    
C91   C99   T    
C167  H31   S    
Cu12  O48   S    
C28   C52   A    
C29   C53   A    
C23   C39   A    
C24   C40   A    
Cu1   O1    S    
C45   C149  A    
C22   H62   S    
C43   C147  A    
C1    O1    A    
C21   H61   S    
C116  C128  A    
C7    O15   A    
C112  C130  A    
C57   C69   A    
C90   C98   T    
C153  H17   S    
C59   C71   A    
