data_mof_unit_9831.cif
_audit_creation_date              2012-12-11T16:51:16-0500
_audit_creation_method            fapswitch 2.2
_symmetry_space_group_name_H-M    P1
_symmetry_Int_Tables_number       1
_space_group_crystal_system       triclinic
_cell_length_a                    24.344485
_cell_length_b                    17.114376
_cell_length_c                    15.609137
_cell_angle_alpha                 90.171017
_cell_angle_beta                  129.193619
_cell_angle_gamma                 90.025926
_cell_volume                      5040.18732571

loop_
_atom_site_label
_atom_site_type_symbol
_atom_type_description
_atom_site_fract_x
_atom_site_fract_y
_atom_site_fract_z
_atom_type_partial_charge
C1    C     C_R   0.853710 0.854537 0.249127 -0.141247
C2    C     C_R   0.140130 0.188676 0.505817 0.050362
C3    C     C_3   0.200667 0.348548 0.236050 -0.956610
C4    C     C_R   0.360938 0.688774 0.496951 0.042884
C5    C     C_R   0.641119 0.688427 0.507340 0.050193
C6    C     C_R   0.851225 0.122589 0.133644 0.098112
C7    C     C_R   0.148979 0.122777 0.866791 0.100299
C8    C     C_R   0.361562 0.650319 0.158020 0.121611
C9    C     C_R   0.649018 0.622270 0.867062 0.098601
C10   C     C_R   0.788191 0.824465 0.612529 0.071398
C11   C     C_R   0.218024 0.829414 0.392563 0.074867
C12   C     C_R   0.286928 0.325475 0.610749 0.069202
C13   C     C_R   0.166907 0.893911 0.802333 -0.140836
C14   C     C_R   0.713349 0.325173 0.389607 0.070662
C15   C     C_R   0.763468 0.863957 0.516051 0.088195
C16   C     C_R   0.239352 0.860886 0.491986 0.089657
C17   C     C_R   0.262330 0.364984 0.514353 0.089280
C18   C     C_R   0.737849 0.365172 0.485974 0.087875
C19   C     C_R   0.690384 0.863992 0.427125 -0.160658
C20   C     C_R   0.311444 0.856789 0.586056 -0.180012
C21   C     C_R   0.189343 0.364153 0.424825 -0.160416
C22   C     C_R   0.810792 0.364623 0.575785 -0.160410
C23   C     C_R   0.145320 0.310064 0.422474 -0.158604
C24   C     C_R   0.354057 0.354237 0.249887 -0.138591
C25   C     C_R   0.854756 0.310289 0.578458 -0.157834
C26   C     C_R   0.646239 0.810275 0.424936 -0.157845
C27   C     C_R   0.356504 0.806153 0.586673 -0.148400
C28   C     C_R   0.173416 0.262010 0.514290 0.108114
C29   C     C_R   0.826719 0.261806 0.486588 0.107387
C30   C     C_R   0.674443 0.761817 0.516409 0.108407
C31   C     C_R   0.330713 0.763943 0.490848 0.110480
C32   C     C_R   0.242567 0.275188 0.611012 0.012335
C33   C     C_R   0.757718 0.274759 0.389599 0.012716
C34   C     C_R   0.743710 0.774551 0.613016 0.012129
C35   C     C_R   0.646097 0.354686 0.750472 -0.142020
C36   C     C_R   0.264272 0.782713 0.391681 0.012422
C37   C     C_3   0.766810 0.806250 0.720917 0.082212
C38   C     C_3   0.249605 0.826671 0.296216 0.079093
C39   C     C_3   0.265445 0.306615 0.718895 0.082043
C40   C     C_3   0.735281 0.305720 0.282027 0.083230
C41   C     C_R   0.114241 0.896983 0.407669 -0.177220
C42   C     C_R   0.886766 0.897237 0.593421 -0.160551
C43   C     C_R   0.614318 0.398877 0.407417 -0.178697
C44   C     C_R   0.385790 0.398829 0.592619 -0.175713
C45   C     C_3   0.814663 0.861270 0.719690 -0.510789
C46   C     C_R   0.911823 0.146490 0.589342 -0.093841
C47   C     C_3   0.198409 0.876032 0.296092 -0.507454
C48   C     C_3   0.313117 0.362111 0.717847 -0.509925
C49   C     C_3   0.687577 0.361302 0.282793 -0.512894
C50   C     C_2   0.191071 0.842106 0.974384 -0.175281
C51   C     C_2   0.863284 0.738764 0.156286 -0.196002
C52   C     C_2   0.636894 0.239699 0.844129 -0.195333
C53   C     C_2   0.363727 0.238316 0.157280 -0.197908
C54   C     C_2   0.260323 0.834197 0.027660 -0.070480
C55   C     C_2   0.809854 0.698484 0.138680 -0.090324
C56   C     C_2   0.690977 0.200090 0.863103 -0.089008
C57   C     C_R   0.088230 0.146413 0.411056 -0.095601
C58   C     C_2   0.310003 0.198273 0.139072 -0.083496
C59   C     C_2   0.803501 0.146775 0.017440 -0.142865
C60   C     C_2   0.196845 0.146488 0.983444 -0.144377
C61   C     C_2   0.332675 0.719629 0.089486 -0.186404
C62   C     C_2   0.696872 0.645894 0.983741 -0.143156
C63   C     C_2   0.733255 0.149563 0.959669 -0.092661
C64   C     C_2   0.267193 0.147746 0.041955 -0.099072
C65   C     C_2   0.296606 0.769959 0.102832 -0.094866
C66   C     C_2   0.767178 0.647629 0.041955 -0.093564
C67   C     C_R   0.188080 0.894756 0.590055 0.199173
C68   C     C_R   0.412739 0.646285 0.590474 -0.089452
C69   C     C_R   0.810513 0.898696 0.410034 0.168462
C70   C     C_R   0.689742 0.399441 0.590609 0.169841
C71   C     C_R   0.310240 0.399220 0.409454 0.168329
C72   C     C_R   0.074504 0.890800 0.799726 -0.107190
C73   C     C_R   0.943636 0.857621 0.244412 -0.086736
C74   C     C_R   0.556287 0.357849 0.755461 -0.087634
C75   C     C_R   0.443867 0.357407 0.244952 -0.092451
C76   C     C_R   0.886995 0.812984 0.216877 0.134737
C77   C     C_R   0.145459 0.873105 0.862532 0.135297
C78   C     C_R   0.387391 0.312615 0.217773 0.135159
C79   C     C_R   0.589403 0.646439 0.412360 -0.102107
C80   C     C_R   0.612916 0.313363 0.782971 0.134814
C81   C     C_R   0.183460 0.881112 0.498096 0.002057
C82   C     C_R   0.816693 0.884404 0.504002 0.008851
C83   C     C_R   0.684231 0.385993 0.497121 0.013866
C84   C     C_R   0.315839 0.385779 0.502964 0.013611
C85   C     C_R   0.836382 0.142431 0.405205 -0.111033
C86   C     C_R   0.163675 0.142692 0.595213 -0.112814
C87   C     C_R   0.335888 0.642479 0.406686 -0.113910
C88   C     C_R   0.664177 0.642293 0.596038 -0.110252
C89   C     C_R   0.921908 0.102566 0.195166 0.162468
C90   C     C_R   0.859950 0.188529 0.494859 0.049290
C91   C     C_R   0.078151 0.103059 0.804953 0.159324
C92   C     C_R   0.426898 0.617582 0.206430 0.160361
C93   C     C_R   0.578239 0.602385 0.805213 0.161169
C94   C     C_R   0.167839 0.106031 0.801995 -0.148033
C95   C     C_R   0.832295 0.105934 0.198314 -0.144031
C96   C     C_R   0.667851 0.605845 0.802143 -0.144546
C97   C     C_R   0.336915 0.619192 0.209165 -0.168563
C98   C     C_3   0.277201 0.825224 0.756803 -0.941337
C99   C     C_3   0.700816 0.847214 0.237660 -0.956184
C100  C     C_3   0.799244 0.349701 0.764079 -0.958991
H1    H     H_    0.809795 0.835593 0.243276 0.128723
H2    H     H_    0.222527 0.789411 0.221143 0.083194
H3    H     H_    0.295576 0.262612 0.785979 0.097607
H4    H     H_    0.705161 0.261467 0.214722 0.097937
H5    H     H_    0.799862 0.923936 0.710643 0.232102
H6    H     H_    0.213809 0.938608 0.317005 0.230181
H7    H     H_    0.298006 0.424667 0.708752 0.233108
H8    H     H_    0.702876 0.423879 0.292178 0.231523
H9    H     H_    0.871843 0.849320 0.786876 0.177802
H10   H     H_    0.142266 0.866304 0.221796 0.178589
H11   H     H_    0.370338 0.350435 0.785128 0.177707
H12   H     H_    0.220500 0.901005 0.834546 0.107904
H13   H     H_    0.630365 0.349380 0.215209 0.177012
H14   H     H_    0.708755 0.126411 0.992978 0.125862
H15   H     H_    0.291522 0.123686 0.008734 0.123373
H16   H     H_    0.286563 0.758553 0.160105 0.144078
H17   H     H_    0.791491 0.623804 0.008595 0.126204
H18   H     H_    0.286539 0.861580 0.999658 0.125179
H19   H     H_    0.789100 0.713945 0.180845 0.132892
H20   H     H_    0.712219 0.215555 0.821728 0.132263
H21   H     H_    0.289088 0.213836 0.180965 0.132575
H22   H     H_    0.827028 0.171076 0.982942 0.157752
H23   H     H_    0.310481 0.335018 0.244766 0.128282
H24   H     H_    0.173525 0.171686 0.017888 0.159324
H25   H     H_    0.342760 0.731215 0.032068 0.161762
H26   H     H_    0.673533 0.670856 0.018282 0.157617
H27   H     H_    0.166250 0.813102 0.004142 0.128693
H28   H     H_    0.883206 0.723001 0.112841 0.132817
H29   H     H_    0.616492 0.223896 0.886799 0.132438
H30   H     H_    0.383794 0.222463 0.114071 0.131827
H31   H     H_    0.093891 0.902672 0.323199 0.138128
H32   H     H_    0.908934 0.901521 0.678968 0.134086
H33   H     H_    0.593133 0.404404 0.322512 0.135051
H34   H     H_    0.689692 0.335587 0.755644 0.129313
H35   H     H_    0.407137 0.404485 0.677639 0.138858
H36   H     H_    0.043322 0.890642 0.827126 0.120982
H37   H     H_    0.980735 0.842552 0.230932 0.102731
H38   H     H_    0.519203 0.342876 0.769006 0.102090
H39   H     H_    0.481054 0.342268 0.231673 0.100115
H40   H     H_    0.795669 0.156065 0.319192 0.102662
H41   H     H_    0.204394 0.156613 0.681328 0.103280
H42   H     H_    0.293097 0.656264 0.321808 0.089522
H43   H     H_    0.704900 0.655828 0.682277 0.102513
H44   H     H_    0.220981 0.102549 0.829052 0.088116
H45   H     H_    0.090897 0.303517 0.348004 0.136102
H46   H     H_    0.779161 0.102553 0.171324 0.090501
H47   H     H_    0.720997 0.602387 0.829227 0.090411
H48   H     H_    0.283492 0.623118 0.180851 0.100431
H49   H     H_    0.941447 0.166165 0.673446 0.135061
H50   H     H_    0.058628 0.165774 0.326997 0.133273
H51   H     H_    0.443505 0.665571 0.674933 0.130996
H52   H     H_    0.561360 0.666543 0.329408 0.134806
H53   H     H_    0.668068 0.902183 0.357710 0.158035
H54   H     H_    0.332451 0.887347 0.661597 0.163983
H55   H     H_    0.167007 0.402130 0.355214 0.158824
H56   H     H_    0.909081 0.303984 0.653115 0.136710
H57   H     H_    0.833109 0.403049 0.645350 0.158751
H58   H     H_    0.253763 0.945171 0.745253 0.149377
H59   H     H_    0.326794 0.834245 0.842754 0.252728
H60   H     H_    0.288508 0.784633 0.714154 0.271881
H61   H     H_    0.237005 0.797010 0.758899 0.260547
H62   H     H_    0.750551 0.953317 0.257028 0.165257
H63   H     H_    0.697433 0.837926 0.164057 0.245599
H64   H     H_    0.645838 0.858999 0.204802 0.261312
H65   H     H_    0.720054 0.792730 0.287450 0.266170
H66   H     H_    0.748852 0.455396 0.743251 0.165643
H67   H     H_    0.591665 0.804184 0.350725 0.136274
H68   H     H_    0.802262 0.341111 0.837395 0.245830
H69   H     H_    0.854319 0.361941 0.797558 0.261691
H70   H     H_    0.780415 0.294730 0.714737 0.266113
H71   H     H_    0.251041 0.454452 0.256948 0.168954
H72   H     H_    0.197765 0.339484 0.162854 0.246528
H73   H     H_    0.145583 0.360619 0.202478 0.261633
H74   H     H_    0.219399 0.293872 0.285389 0.265743
H75   H     H_    0.409159 0.795938 0.663555 0.135451
H76   H     H_    0.796766 0.762239 0.788021 0.098780
I1    I     I_    0.685319 0.864881 0.712278 -0.373905
I2    I     I_    0.338326 0.893024 0.335948 -0.387786
I3    I     I_    0.183562 0.364404 0.710001 -0.374402
I4    I     I_    0.817575 0.363509 0.291842 -0.379607
I5    I     I_    0.971074 0.074694 0.125392 -0.431763
I6    I     I_    0.028420 0.077488 0.874467 -0.449926
I7    I     I_    0.467488 0.598747 0.121344 -0.422341
I8    I     I_    0.529033 0.573970 0.874702 -0.430762
N1    N     N_R   0.888400 0.921830 0.294620 -0.052522
N2    N     N_R   0.874350 0.922400 0.443380 -0.076609
N3    N     N_R   0.625650 0.422400 0.556620 -0.076217
N4    N     N_R   0.374350 0.422400 0.443380 -0.076516
N5    N     N_R   0.054230 0.922730 0.705400 -0.040603
N6    N     N_R   0.945770 0.922730 0.294600 -0.038125
N7    N     N_R   0.554230 0.422730 0.705400 -0.038092
N8    N     N_R   0.445770 0.422730 0.294600 -0.038218
N9    N     N_R   0.873790 0.077030 0.443380 -0.052613
N10   N     N_R   0.126210 0.077030 0.556620 -0.053068
N11   N     N_R   0.373790 0.577030 0.443380 -0.050492
N12   N     N_R   0.111600 0.921830 0.705380 -0.047877
N13   N     N_R   0.626210 0.577030 0.556620 -0.052492
N14   N     N_R   0.945200 0.076700 0.294600 -0.060767
N15   N     N_R   0.054800 0.076700 0.705400 -0.059624
N16   N     N_R   0.445200 0.576700 0.294600 -0.060392
N17   N     N_R   0.554800 0.576700 0.705400 -0.061456
N18   N     N_R   0.111030 0.077600 0.705380 -0.053324
N19   N     N_R   0.888970 0.077600 0.294620 -0.054839
N20   N     N_R   0.611030 0.577600 0.705380 -0.055225
N21   N     N_R   0.388970 0.577600 0.294620 -0.053662
N22   N     N_R   0.919490 0.077280 0.556590 -0.036662
N23   N     N_R   0.388400 0.421830 0.294620 -0.051337
N24   N     N_R   0.080510 0.077280 0.443410 -0.036770
N25   N     N_R   0.419490 0.577280 0.556590 -0.036869
N26   N     N_R   0.580510 0.577280 0.443410 -0.037486
N27   N     N_2   0.251879 0.899681 0.700199 -0.130769
N28   N     N_2   0.745940 0.913924 0.302061 -0.123680
N29   N     N_2   0.753974 0.415706 0.698849 -0.123314
N30   N     N_2   0.245966 0.414932 0.301336 -0.123256
N31   N     N_R   0.611600 0.421830 0.705380 -0.052491
N32   N     N_R   0.079940 0.922160 0.443410 -0.051074
N33   N     N_R   0.920060 0.922160 0.556590 -0.050009
N34   N     N_R   0.579940 0.422160 0.443410 -0.051208
N35   N     N_R   0.420060 0.422160 0.556590 -0.050710
N36   N     N_R   0.125650 0.922400 0.556620 -0.072803
Ni1   Ni    Ni4+2 0.882160 0.999430 0.370180 0.205648
Ni2   Ni    Ni4+2 0.117840 0.999430 0.629820 0.201231
Ni3   Ni    Ni4+2 0.382160 0.499430 0.370180 0.209015
Ni4   Ni    Ni4+2 0.617840 0.499430 0.629820 0.204448
Ni5   Ni    Ni4+2 0.012460 0.999430 0.370180 0.249417
Ni6   Ni    Ni4+2 0.987540 0.999430 0.629820 0.243195
Ni7   Ni    Ni4+2 0.512460 0.499430 0.370180 0.248819
Ni8   Ni    Ni4+2 0.487540 0.499430 0.629820 0.248381

loop_
_geom_bond_atom_site_label_1
_geom_bond_atom_site_label_2
_ccdc_geom_bond_type
N17   Ni8   S    
C49   H13   S    
N23   Ni3   S    
N16   N21   A    
C38   I2    S    
C1    H1    S    
C79   N26   A    
N6    Ni5   S    
C43   C83   A    
N26   Ni7   S    
N18   Ni2   S    
C11   C47   S    
N5    Ni6   S    
C42   C82   A    
C71   N4    A    
C12   C48   S    
C42   N33   A    
N31   Ni4   S    
C55   C66   S    
C14   C33   A    
N36   Ni2   S    
C2    C57   A    
N1    N6    A    
C4    C87   A    
C55   H19   S    
C70   N29   S    
C3    N30   S    
C15   C19   A    
C89   N14   A    
C74   H38   S    
C57   N24   A    
C18   C83   S    
N7    Ni8   S    
C20   H54   S    
C52   H29   S    
C11   C36   A    
H62   N28   S    
N11   N25   A    
C13   H12   S    
C10   C15   A    
C93   I8    S    
C45   H9    S    
C3    H72   S    
C72   H36   S    
C14   C49   S    
N3    Ni4   S    
C95   N19   A    
C40   C49   S    
C34   C37   S    
C29   C33   A    
C35   C80   A    
N19   Ni1   S    
C59   H22   S    
C43   H33   S    
C32   C39   S    
C62   H26   S    
C60   H24   S    
C19   C26   A    
C14   C18   A    
N13   N26   A    
N7    N31   A    
C40   I4    S    
C63   H14   S    
C3    H73   S    
N8    Ni7   S    
C13   N12   A    
C42   H32   S    
C12   C17   A    
N22   Ni6   S    
N15   N18   A    
C67   N27   S    
C69   C82   A    
N25   Ni8   S    
N35   Ni8   S    
C5    C79   A    
C93   N17   A    
C72   N5    A    
C88   H43   S    
C73   N6    A    
N14   Ni5   S    
N33   Ni6   S    
N10   Ni2   S    
C91   N15   A    
N13   Ni4   S    
C44   H35   S    
N9    Ni1   S    
C7    C91   A    
C64   H15   S    
C74   C80   A    
C12   C32   A    
C25   H56   S    
C58   C64   S    
N17   N20   A    
C56   H20   S    
C44   N35   A    
C68   N25   A    
C35   H34   S    
C29   C90   S    
C75   C78   A    
C45   H5    S    
C96   N20   A    
C15   C82   S    
C99   N28   S    
C25   C29   A    
C100  N29   S    
N2    N33   A    
C13   C77   A    
C26   H67   S    
C33   C40   S    
C62   C66   D    
C100  H70   S    
C9    C62   S    
C28   C32   A    
C51   C76   S    
C27   H75   S    
C54   C65   S    
C41   N32   A    
C30   C34   A    
C53   H30   S    
C27   C31   A    
C22   C25   A    
C24   H23   S    
C17   C21   A    
C74   N7    A    
N16   Ni7   S    
C89   I5    S    
C88   N13   A    
C8    C97   A    
C72   C77   A    
N24   Ni5   S    
C40   H4    S    
C23   H45   S    
C11   C16   A    
C3    H74   S    
C39   I3    S    
C9    C96   A    
C49   H8    S    
C16   C20   A    
C47   H6    S    
C41   C81   A    
C57   H50   S    
C46   H49   S    
C10   C45   S    
C4    C68   A    
C21   H55   S    
C56   C63   S    
C10   C34   A    
C69   N28   S    
C50   C54   D    
C23   C28   A    
C70   C83   A    
C85   H40   S    
C38   C47   S    
C70   N3    A    
C8    C92   A    
C24   C78   A    
C22   H57   S    
N2    Ni1   S    
C98   H60   S    
C67   C81   A    
C21   C23   A    
C19   H53   S    
C97   H48   S    
C99   H63   S    
C85   C90   A    
C43   N34   A    
C51   H28   S    
C37   C45   S    
C47   H10   S    
C50   C77   S    
C9    C93   A    
C7    C60   S    
C98   H61   S    
N10   N24   A    
C41   H31   S    
C71   C84   A    
N4    N35   A    
H58   N27   S    
C46   N22   A    
C7    C94   A    
C67   N36   A    
C58   H21   S    
N9    N22   A    
C66   H17   S    
C100  H69   S    
C18   C22   A    
C1    C76   A    
C52   C80   S    
C6    C59   S    
N32   N36   A    
C44   C84   A    
C92   I7    S    
C61   H25   S    
C53   C58   D    
C96   H47   S    
C39   H3    S    
C46   C90   A    
C20   C27   A    
C1    N1    A    
C6    C89   A    
C37   I1    S    
C98   N27   S    
C8    C61   S    
C24   N23   A    
C59   C63   D    
N32   Ni5   S    
C100  H68   S    
C60   C64   D    
C17   C84   S    
C94   H44   S    
C54   H18   S    
C75   N8    A    
C87   N11   A    
C38   H2    S    
C68   H51   S    
C75   H39   S    
C86   N10   A    
C37   H76   S    
N11   Ni3   S    
N5    N12   A    
C85   N9    A    
C73   H37   S    
H71   N30   S    
C71   N30   S    
C94   N18   A    
C36   C38   S    
C16   C81   S    
C73   C76   A    
N21   Ni3   S    
N34   Ni7   S    
C2    C86   A    
C51   C55   D    
C87   H42   S    
N15   Ni6   S    
N12   Ni2   S    
N8    N23   A    
C4    C31   S    
C2    C28   S    
H66   N29   S    
C53   C78   S    
C99   H64   S    
C48   H7    S    
N4    Ni3   S    
C61   C65   D    
C65   H16   S    
C48   H11   S    
C98   H59   S    
C6    C95   A    
C5    C30   S    
C91   I6    S    
N14   N19   A    
C5    C88   A    
C95   H46   S    
C31   C36   A    
C79   H52   S    
N1    Ni1   S    
C50   H27   S    
C97   N21   A    
C92   N16   A    
C35   N31   A    
C69   N2    A    
N3    N34   A    
N20   Ni4   S    
C52   C56   D    
C86   H41   S    
C39   C48   S    
C99   H65   S    
C26   C30   A    
