data_mof_unit_59177.cif
_audit_creation_date              2013-03-05T16:03:59-0500
_audit_creation_method            fapswitch 2.2
_symmetry_space_group_name_H-M    P1
_symmetry_Int_Tables_number       1
_space_group_crystal_system       triclinic
_cell_length_a                    13.003445
_cell_length_b                    10.80611
_cell_length_c                    9.515636
_cell_angle_alpha                 89.946656
_cell_angle_beta                  96.030715
_cell_angle_gamma                 90.180421
_cell_volume                      1329.69860631

loop_
_atom_site_label
_atom_site_type_symbol
_atom_site_description
_atom_site_fract_x
_atom_site_fract_y
_atom_site_fract_z
_atom_type_partial_charge
O1    O     O_R   0.499990 0.319660 0.618740 -0.590062
O2    O     O_R   0.500010 0.680340 0.381260 -0.590063
O3    O     O_R   0.499990 0.319630 0.381170 -0.548441
O4    O     O_R   0.500010 0.680370 0.618830 -0.548444
C1    C     C_R   0.503014 0.262294 0.500452 0.869041
C2    C     C_R   0.496986 0.737706 0.499548 0.869047
O5    O     O_R   0.349000 0.499990 0.599490 -0.574672
O6    O     O_R   0.651000 0.500010 0.400510 -0.574672
O7    O     O_R   0.348990 0.499960 0.361920 -0.600943
O8    O     O_R   0.651010 0.500040 0.638080 -0.600943
C3    C     C_R   0.300450 0.499850 0.473786 0.830662
C4    C     C_R   0.699550 0.500150 0.526214 0.830656
Cu1   Cu    Cu3+1 0.500000 0.500020 0.640660 0.999820
Cu2   Cu    Cu3+1 0.500000 0.499980 0.359340 0.999821
C5    C     C_R   0.812287 0.500288 0.541343 -0.042617
C6    C     C_R   0.187713 0.499712 0.458657 -0.042616
C7    C     C_R   0.024368 0.497122 0.311038 -0.184379
C8    C     C_R   0.975632 0.502877 0.688962 -0.184379
C9    C     C_R   0.131852 0.497543 0.324185 -0.181703
C10   C     C_R   0.868147 0.502457 0.675815 -0.181703
C11   C     C_R   0.135362 0.501561 0.580035 -0.209426
C12   C     C_R   0.864638 0.498439 0.419965 -0.209428
C13   C     C_R   0.027958 0.501126 0.567779 0.162026
C14   C     C_R   0.972042 0.498874 0.432221 0.162026
H1    H     H_    0.822057 0.496673 0.315675 0.161207
H2    H     H_    0.177943 0.503327 0.684325 0.161206
H3    H     H_    0.828911 0.503968 0.770728 0.160088
H4    H     H_    0.171089 0.496032 0.229272 0.160087
H5    H     H_    0.982288 0.495392 0.206501 0.141121
H6    H     H_    0.017712 0.504608 0.793499 0.141121
C15   C     C_R   0.559271 0.061773 0.404958 0.357388
C16   C     C_R   0.440727 0.938227 0.595040 0.357387
C17   C     C_R   0.551780 0.933459 0.403464 -0.273913
C18   C     C_R   0.448220 0.066541 0.596536 -0.273911
H7    H     H_    0.594705 0.881289 0.331877 0.192011
H8    H     H_    0.405294 0.118711 0.668122 0.192014
C19   C     C_R   0.494470 0.871589 0.498560 -0.200174
C20   C     C_R   0.505529 0.128411 0.501440 -0.200176
C21   C     C_R   0.432482 0.427021 0.064792 0.017634
C22   C     C_R   0.567518 0.572978 0.935208 0.017630
H9    H     H_    0.378494 0.368467 0.113215 0.122148
H10   H     H_    0.621506 0.631533 0.886785 0.122147
C23   C     C_R   0.432522 0.427034 0.915947 0.011981
C24   C     C_R   0.567478 0.572966 0.084053 0.011980
H11   H     H_    0.378577 0.368429 0.852136 0.119246
H12   H     H_    0.621423 0.631571 0.147864 0.119245
N1    N     N_R   0.500030 0.500030 0.852080 -0.164828
N2    N     N_R   0.499970 0.499970 0.147920 -0.164828
N3    N     N_R   0.625249 0.121814 0.313365 0.132739
O9    O     O_R   0.688878 0.208553 0.362202 -0.361358
O10   O     O_R   0.633294 0.077463 0.187855 -0.344587
N4    N     N_R   0.374743 0.878186 0.686624 0.132736
O11   O     O_R   0.311120 0.791443 0.637781 -0.361362
O12   O     O_R   0.366685 0.922542 0.812133 -0.344586

loop_
_geom_bond_atom_site_label_1
_geom_bond_atom_site_label_2
_geom_bond_distance
_ccdc_geom_bond_type
C22   N1    1.366817 A    
C21   C23   1.416412 A    
O7    Cu2   1.966380 S    
C15   C17   1.389670 A    
C6    C11   1.401122 A    
C8    H6    1.083910 S    
C10   H3    1.083135 S    
C7    H5    1.083910 S    
C3    C6    1.457891 S    
C8    C10   1.390091 A    
C15   C20   1.410319 A    
O6    C4    1.292543 A    
C13   C14   1.412822 A    
N3    O10   1.301784 A    
C22   H10   1.081735 S    
C2    C19   1.447229 S    
C21   H9    1.081735 S    
C18   C20   1.399504 A    
C16   C19   1.410317 A    
O5    C3    1.292542 A    
C9    H4    1.083135 S    
C23   H11   1.081776 S    
O2    C2    1.289773 A    
O3    Cu2   1.959730 S    
O8    C4    1.293323 A    
C15   N3    1.438471 S    
C6    C9    1.403629 A    
O1    C1    1.289774 A    
C7    C9    1.390091 A    
C11   H2    1.084572 S    
N4    O12   1.301817 A    
C4    C5    1.457891 S    
C18   H8    1.084430 S    
O7    C3    1.293325 A    
C11   C13   1.389202 A    
C5    C10   1.403629 A    
O2    Cu2   1.960311 S    
C12   C14   1.389201 A    
C7    C14   1.399298 A    
O1    Cu1   1.960310 S    
C8    C13   1.399298 A    
C22   C24   1.416412 A    
C1    C20   1.447228 S    
N4    O11   1.301629 A    
O4    C2    1.289658 A    
N3    O9    1.301632 A    
O4    Cu1   1.959731 S    
Cu1   N1    2.011755 S    
C16   N4    1.438467 S    
Cu2   N2    2.011755 S    
O5    Cu1   1.961442 S    
O6    Cu2   1.961441 S    
C17   H7    1.084431 S    
Cu1   Cu2   2.676939 S    
C23   N1    1.367110 A    
C12   H1    1.084573 S    
C5    C12   1.401123 A    
C17   C19   1.399503 A    
C24   N2    1.367110 A    
C24   H12   1.081775 S    
C21   N2    1.366817 A    
O3    C1    1.289657 A    
O8    Cu1   1.966380 S    
C16   C18   1.389673 A    
