data_mof_unit_56350.cif
_audit_creation_date              2012-12-10T21:42:39-0500
_audit_creation_method            fapswitch 2.2
_symmetry_space_group_name_H-M    P1
_symmetry_Int_Tables_number       1
_space_group_crystal_system       triclinic
_cell_length_a                    10.710623
_cell_length_b                    16.182743
_cell_length_c                    16.912013
_cell_angle_alpha                 87.261934
_cell_angle_beta                  91.504264
_cell_angle_gamma                 92.230146
_cell_volume                      2924.87481377

loop_
_atom_site_label
_atom_site_type_symbol
_atom_type_description
_atom_site_fract_x
_atom_site_fract_y
_atom_site_fract_z
_atom_type_partial_charge
C1    C     C_R   0.497978 0.488419 0.652667 1.008679
C2    C     C_R   0.456884 0.445097 0.217676 0.417492
C3    C     C_R   0.387476 0.526327 0.854566 -0.365721
C4    C     C_R   0.422845 0.450179 0.138521 -0.349322
C5    C     C_R   0.455532 0.468888 0.901263 0.085075
C6    C     C_R   0.420751 0.526829 0.096432 0.078365
C7    C     C_R   0.527895 0.411019 0.865523 0.375427
C8    C     C_R   0.434658 0.600390 0.136928 0.355308
C9    C     C_R   0.542027 0.416788 0.783186 0.304994
C10   C     C_R   0.458280 0.596285 0.219278 0.294841
C11   C     C_R   0.424112 0.762964 0.473533 -0.069338
C12   C     C_R   0.495446 0.511377 0.346623 0.941861
C13   C     C_R   0.572773 0.238371 0.531047 -0.102308
C14   C     C_R   0.428545 0.850192 0.475173 -0.283162
C15   C     C_R   0.569937 0.151040 0.531440 -0.292277
C16   C     C_R   0.740047 0.499665 0.497054 0.962729
C17   C     C_R   0.260754 0.499941 0.502651 0.989047
C18   C     C_R   0.528244 0.891479 0.515119 0.293117
C19   C     C_R   0.470097 0.108321 0.493086 0.291499
C20   C     C_R   0.617095 0.843395 0.554057 -0.311763
C21   C     C_R   0.378602 0.154881 0.455117 -0.288109
C22   C     C_R   0.609214 0.756560 0.553239 0.315669
C23   C     C_R   0.128845 0.500024 0.501037 -0.238575
C24   C     C_R   0.388837 0.241843 0.450083 0.280604
C25   C     C_R   0.761381 0.616677 0.253726 -0.081060
C26   C     C_R   0.133917 0.416589 0.774679 -0.093229
C27   C     C_R   0.802056 0.568774 0.319622 -0.187308
C28   C     C_R   0.088500 0.449691 0.702160 -0.039813
C29   C     C_R   0.876941 0.604963 0.378919 0.189098
C30   C     C_R   0.119381 0.415034 0.630941 0.146965
C31   C     C_R   0.908360 0.690176 0.371796 -0.121348
C32   C     C_R   0.196650 0.346534 0.633763 -0.128869
C33   C     C_R   0.862277 0.738587 0.307697 -0.185390
C34   C     C_R   0.873143 0.497263 0.493129 -0.270345
C35   C     C_R   0.241017 0.313255 0.706440 -0.167786
C36   C     C_R   0.789280 0.701754 0.248444 -0.053012
C37   C     C_R   0.210157 0.348415 0.776819 -0.149007
C38   C     C_R   0.069826 0.545546 0.439232 0.453593
C39   C     C_R   0.934290 0.438460 0.542689 0.458285
C40   C     C_3   0.571508 0.285948 0.742140 0.169967
C41   C     C_3   0.675178 0.223591 0.746718 -0.313621
C42   C     C_3   0.621708 0.134648 0.748450 -1.024801
C43   C     C_3   0.368319 0.709288 0.266956 0.162182
C44   C     C_3   0.394150 0.802811 0.263892 -0.319769
C45   C     C_R   0.062261 0.448640 0.555394 -0.210824
C46   C     C_3   0.274648 0.848983 0.274798 -1.007986
C47   C     C_3   0.699884 0.711580 0.608667 -0.390176
C48   C     C_3   0.834710 0.722993 0.582138 -0.884317
C49   C     C_3   0.290430 0.286797 0.400869 -0.371694
C50   C     C_3   0.259757 0.247596 0.321453 -0.859941
C51   C     C_3   0.118425 0.556290 0.303738 0.059045
C52   C     C_3   0.091706 0.462352 0.298658 -0.403263
C53   C     C_3   0.076313 0.438624 0.212592 -0.947728
C54   C     C_3   0.903618 0.296309 0.549530 0.107934
C55   C     C_3   0.877102 0.288922 0.460006 -0.395426
C56   C     C_R   0.939983 0.551139 0.439913 -0.195448
C57   C     C_3   0.905114 0.202642 0.434182 -0.961525
C58   C     C_3   0.596206 0.345737 0.256040 0.147712
C59   C     C_3   0.624426 0.292338 0.186981 -0.387531
C60   C     C_3   0.755568 0.258927 0.195670 -0.953755
C61   C     C_3   0.361928 0.667650 0.736846 0.103655
C62   C     C_3   0.289859 0.721487 0.676171 -0.311818
C63   C     C_3   0.327224 0.812992 0.681873 -0.968800
C64   C     C_3   0.518534 0.295026 0.950172 0.085613
C65   C     C_3   0.592542 0.218372 0.973196 -0.327775
C66   C     C_3   0.510214 0.150553 0.013383 -0.980378
C67   C     C_R   0.482177 0.479721 0.737746 -0.299053
C68   C     C_3   0.330720 0.698050 0.058361 0.085463
C69   C     C_3   0.356870 0.741082 0.977827 -0.309822
C70   C     C_3   0.235915 0.765952 0.934972 -1.004022
C71   C     C_R   0.472851 0.518242 0.260074 -0.351181
C72   C     C_R   0.402047 0.533082 0.773103 0.393564
H1    H     H_    0.756345 0.738792 0.197707 0.145535
H2    H     H_    0.109884 0.443763 0.829247 0.134112
H3    H     H_    0.781918 0.502714 0.322215 0.092991
H4    H     H_    0.028539 0.502128 0.701456 0.123864
H5    H     H_    0.971390 0.718609 0.414556 0.135282
H6    H     H_    0.218698 0.316593 0.580355 0.138164
H7    H     H_    0.886353 0.804173 0.302740 0.138054
H8    H     H_    0.297721 0.259326 0.708206 0.117936
H9    H     H_    0.405285 0.393009 0.108768 0.185393
H10   H     H_    0.322855 0.565940 0.881212 0.185700
H11   H     H_    0.521132 0.281804 0.684309 0.147229
H12   H     H_    0.244816 0.322650 0.833010 0.114057
H13   H     H_    0.503168 0.267902 0.788745 0.108390
H14   H     H_    0.735644 0.234314 0.694842 0.217113
H15   H     H_    0.734315 0.232736 0.800748 0.241715
H16   H     H_    0.568769 0.120597 0.803340 0.270866
H17   H     H_    0.699070 0.091099 0.746804 0.272790
H18   H     H_    0.557822 0.125001 0.696765 0.275049
H19   H     H_    0.329493 0.688721 0.324819 0.172826
H20   H     H_    0.294776 0.695092 0.221467 0.084546
H21   H     H_    0.463936 0.819095 0.310865 0.234359
H22   H     H_    0.433997 0.822586 0.205663 0.238043
H23   H     H_    0.645057 0.270846 0.563860 0.181855
H24   H     H_    0.207280 0.837566 0.225087 0.264734
H25   H     H_    0.297146 0.916488 0.275788 0.273278
H26   H     H_    0.230462 0.828282 0.331407 0.262523
H27   H     H_    0.842801 0.698377 0.522897 0.281357
H28   H     H_    0.866028 0.789221 0.580233 0.249050
H29   H     H_    0.897176 0.688218 0.624081 0.246405
H30   H     H_    0.693554 0.735964 0.668745 0.169654
H31   H     H_    0.678223 0.645393 0.616320 0.259903
H32   H     H_    0.345925 0.227579 0.293912 0.288123
H33   H     H_    0.193460 0.193601 0.329586 0.236915
H34   H     H_    0.345216 0.732080 0.445361 0.152844
H35   H     H_    0.214566 0.293046 0.280013 0.270788
H36   H     H_    0.203483 0.288542 0.435046 0.178852
H37   H     H_    0.322721 0.350328 0.386345 0.280486
H38   H     H_    0.203317 0.571007 0.269205 0.137166
H39   H     H_    0.044065 0.591816 0.272719 0.168016
H40   H     H_    0.170266 0.429032 0.327296 0.228374
H41   H     H_    0.004347 0.442748 0.329167 0.208018
H42   H     H_    0.997875 0.472027 0.183096 0.263317
H43   H     H_    0.054986 0.371127 0.210225 0.262768
H44   H     H_    0.163472 0.454078 0.180104 0.269844
H45   H     H_    0.643524 0.117850 0.562572 0.164269
H46   H     H_    0.851767 0.245308 0.581831 0.140592
H47   H     H_    0.002944 0.284629 0.562766 0.131006
H48   H     H_    0.778068 0.301515 0.445051 0.245215
H49   H     H_    0.937085 0.334553 0.425919 0.202846
H50   H     H_    0.003860 0.188324 0.448944 0.261076
H51   H     H_    0.890189 0.199815 0.369222 0.266776
H52   H     H_    0.842223 0.155389 0.463993 0.269945
H53   H     H_    0.612599 0.309081 0.312379 0.175133
H54   H     H_    0.663110 0.400281 0.256912 0.101484
H55   H     H_    0.555172 0.239515 0.185063 0.230617
H56   H     H_    0.354440 0.884490 0.445949 0.167769
H57   H     H_    0.617201 0.329964 0.130530 0.227620
H58   H     H_    0.826423 0.310732 0.198629 0.267471
H59   H     H_    0.774942 0.221949 0.144096 0.266909
H60   H     H_    0.763216 0.218261 0.250157 0.263179
H61   H     H_    0.464077 0.678779 0.727604 0.138649
H62   H     H_    0.338793 0.685808 0.797104 0.139529
H63   H     H_    0.308711 0.701917 0.615739 0.247065
H64   H     H_    0.187908 0.712579 0.686045 0.216607
H65   H     H_    0.301501 0.835198 0.740107 0.260155
H66   H     H_    0.277712 0.849697 0.634491 0.272402
H67   H     H_    0.690629 0.874068 0.588304 0.152901
H68   H     H_    0.429431 0.823048 0.674562 0.268204
H69   H     H_    0.435660 0.276239 0.913042 0.100209
H70   H     H_    0.484954 0.319449 0.005485 0.150759
H71   H     H_    0.632466 0.193809 0.919741 0.229138
H72   H     H_    0.671144 0.235705 0.013960 0.230444
H73   H     H_    0.467190 0.173737 0.066657 0.262309
H74   H     H_    0.567759 0.097029 0.031793 0.270331
H75   H     H_    0.435095 0.129324 0.971703 0.264969
H76   H     H_    0.284815 0.742721 0.094871 0.139596
H77   H     H_    0.263191 0.644699 0.050045 0.123791
H78   H     H_    0.300423 0.122285 0.427169 0.156158
H79   H     H_    0.417554 0.797430 0.986296 0.226292
H80   H     H_    0.407180 0.698945 0.940835 0.222308
H81   H     H_    0.176928 0.710055 0.921815 0.267118
H82   H     H_    0.258132 0.800172 0.878408 0.263601
H83   H     H_    0.182965 0.806853 0.971765 0.270299
H84   H     H_    0.710131 0.587527 0.206010 0.134209
N1    N     N_2   0.456672 0.468437 0.984484 -0.147903
N2    N     N_2   0.415077 0.531092 0.012812 -0.137801
N3    N     N_R   0.515300 0.716920 0.509720 -0.109484
N4    N     N_R   0.484700 0.283080 0.490280 -0.124648
N5    N     N_2   0.542988 0.979674 0.520178 -0.180368
N6    N     N_2   0.455900 0.020034 0.489478 -0.184190
O1    O     O_R   0.494530 0.422540 0.612660 -0.607757
O2    O     O_3   0.481585 0.669142 0.257617 -0.589557
O3    O     O_3   0.142925 0.585596 0.381047 -0.668813
O4    O     O_3   0.867303 0.372618 0.579150 -0.617362
O5    O     O_3   0.468953 0.366907 0.253133 -0.625495
O6    O     O_3   0.326144 0.583950 0.726373 -0.627328
O7    O     O_3   0.597985 0.354739 0.910580 -0.608258
O8    O     O_3   0.445730 0.676518 0.095787 -0.614812
O9    O     O_R   0.505470 0.577460 0.387340 -0.563005
O10   O     O_R   0.504350 0.561840 0.618900 -0.646346
O11   O     O_R   0.495650 0.438160 0.381100 -0.624977
O12   O     O_R   0.678330 0.430350 0.496870 -0.602736
O13   O     O_R   0.321670 0.569650 0.503130 -0.603551
O14   O     O_R   0.688150 0.569660 0.503110 -0.631896
O15   O     O_R   0.311850 0.430340 0.496890 -0.683608
O16   O     O_3   0.625142 0.366844 0.748367 -0.592658
Zn1   Zn    Zn3+2 0.493440 0.406980 0.495830 0.930280
Zn2   Zn    Zn3+2 0.506560 0.593020 0.504170 0.965647

loop_
_geom_bond_atom_site_label_1
_geom_bond_atom_site_label_2
_ccdc_geom_bond_type
C62   H63   S    
C38   O3    S    
C55   H49   S    
C34   C56   A    
N1    N2    D    
C23   C45   A    
C27   C29   A    
C70   H81   S    
C63   H65   S    
C63   H68   S    
C14   C18   A    
C30   C45   S    
N3    Zn2   S    
C60   H60   S    
N5    N6    D    
C61   H61   S    
C52   H41   S    
C52   C53   S    
C15   C19   A    
C41   H14   S    
C17   C23   S    
C13   H23   S    
C20   H67   S    
C35   C37   A    
C65   H71   S    
C18   N5    S    
C22   N3    A    
C52   H40   S    
C16   O12   A    
C35   H8    S    
C33   C36   A    
C14   H56   S    
C67   C72   A    
C41   C42   S    
C62   H64   S    
C64   O7    S    
C49   C50   S    
C26   H2    S    
C66   H73   S    
C44   H21   S    
C16   C34   S    
C57   H50   S    
C68   O8    S    
C70   H83   S    
C4    H9    S    
C44   C46   S    
C68   C69   S    
O15   Zn1   S    
C50   H33   S    
C10   O2    S    
C31   C33   A    
C37   H12   S    
C68   H77   S    
C49   H36   S    
C13   N4    A    
C68   H76   S    
C53   H44   S    
C39   C45   A    
C43   O2    S    
O10   Zn2   S    
C22   C47   S    
C46   H26   S    
C59   C60   S    
C47   H30   S    
C54   H47   S    
C25   H84   S    
C72   O6    S    
C40   H11   S    
C61   C62   S    
C54   O4    S    
C27   H3    S    
C60   H59   S    
C6    N2    S    
C8    O8    S    
C61   H62   S    
C31   H5    S    
C12   O9    A    
C55   H48   S    
C41   H15   S    
C47   H31   S    
C11   N3    A    
C51   C52   S    
C69   H79   S    
C32   C35   A    
C48   H28   S    
C4    C6    A    
C60   H58   S    
C11   C14   A    
C5    C7    A    
C65   H72   S    
C33   H7    S    
C6    C8    A    
C58   C59   S    
C43   H19   S    
C34   C39   A    
C42   H18   S    
C19   N6    S    
C40   H13   S    
C2    C4    A    
C43   C44   S    
C9    C67   A    
N4    Zn1   S    
C62   C63   S    
C57   H51   S    
C47   C48   S    
C3    H10   S    
C38   C56   A    
C55   C57   S    
C21   H78   S    
C58   O5    S    
C66   H75   S    
C40   O16   S    
C40   C41   S    
C46   H25   S    
C20   C22   A    
C58   H54   S    
C51   H38   S    
C5    N1    S    
C13   C15   A    
O1    Zn1   S    
C50   H35   S    
C63   H66   S    
O9    Zn2   S    
C51   O3    S    
C42   H16   S    
C2    C71   A    
C28   H4    S    
C54   H46   S    
C53   H42   S    
C49   H37   S    
C17   O15   A    
C24   C49   S    
C7    C9    A    
C48   H27   S    
C54   C55   S    
C59   H57   S    
C51   H39   S    
C19   C21   A    
C70   H82   S    
C69   H80   S    
C12   C71   S    
C3    C5    A    
C17   O13   A    
C24   N4    A    
C26   C37   A    
O13   Zn2   S    
C29   C56   S    
C25   C27   A    
C23   C38   A    
C1    O10   A    
C26   C28   A    
C43   H20   S    
C42   H17   S    
C64   C65   S    
C61   O6    S    
C39   O4    S    
C7    O7    S    
C3    C72   A    
C29   C31   A    
C10   C71   A    
C57   H52   S    
C30   C32   A    
C16   O14   A    
C11   H34   S    
C64   H70   S    
C48   H29   S    
O12   Zn1   S    
C28   C30   A    
C1    C67   S    
C18   C20   A    
C69   C70   S    
C66   H74   S    
C44   H22   S    
C36   H1    S    
C9    O16   S    
C25   C36   A    
C32   H6    S    
C15   H45   S    
O14   Zn2   S    
C46   H24   S    
C1    O1    A    
C58   H53   S    
C8    C10   A    
C65   C66   S    
C64   H69   S    
C21   C24   A    
O11   Zn1   S    
C59   H55   S    
C2    O5    S    
C50   H32   S    
C53   H43   S    
C12   O11   A    
