data_mof_unit_17734.cif
_audit_creation_date              2012-12-11T14:56:49-0500
_audit_creation_method            fapswitch 2.2
_symmetry_space_group_name_H-M    P1
_symmetry_Int_Tables_number       1
_space_group_crystal_system       triclinic
_cell_length_a                    10.510567
_cell_length_b                    10.679651
_cell_length_c                    17.065581
_cell_angle_alpha                 80.669295
_cell_angle_beta                  89.608227
_cell_angle_gamma                 119.400345
_cell_volume                      1638.46444318

loop_
_atom_site_label
_atom_site_type_symbol
_atom_type_description
_atom_site_fract_x
_atom_site_fract_y
_atom_site_fract_z
_atom_type_partial_charge
C1    C     C_R   0.278535 0.888821 0.132663 0.535938
C2    C     C_1   0.650816 0.345505 0.707608 -0.042362
C3    C     C_R   0.628876 0.713463 0.804908 -0.136124
C4    C     C_R   0.610593 0.214141 0.102184 0.552396
C5    C     C_R   0.615732 0.697588 0.726602 -0.133993
C6    C     C_R   0.670551 0.821718 0.665696 0.029232
C7    C     C_R   0.746652 0.962208 0.683097 -0.148390
C8    C     C_R   0.757380 0.978293 0.762007 -0.144750
C9    C     C_R   0.691878 0.853395 0.822946 0.021470
C10   C     C_R   0.082589 0.882294 0.790608 -0.133597
C11   C     C_R   0.066729 0.879745 0.710997 -0.123430
C12   C     C_R   0.704918 0.232959 0.310949 0.245200
C13   C     C_R   0.116297 0.803617 0.671513 0.033159
C14   C     C_R   0.169905 0.719223 0.713747 -0.135509
C15   C     C_R   0.187652 0.723189 0.793787 -0.123856
C16   C     C_R   0.643575 0.856133 0.124315 0.543375
C17   C     C_R   0.151202 0.811482 0.830958 0.027578
C18   C     C_R   0.711268 0.772711 0.353299 0.568540
C19   C     C_R   0.678469 0.378773 0.401762 0.574145
C20   C     C_R   0.108402 0.812503 0.359978 0.551765
C21   C     C_R   0.677476 0.800217 0.585532 0.558434
C22   C     C_R   0.677911 0.381678 0.624428 0.550053
C23   C     C_R   0.693336 0.204662 0.233744 -0.164469
C24   C     C_R   0.090533 0.799175 0.589180 0.550624
C25   C     C_R   0.216547 0.858000 0.902338 0.556747
C26   C     C_R   0.637944 0.285734 0.861092 0.558341
C27   C     C_R   0.648178 0.866764 0.899689 0.549932
C28   C     C_R   0.514560 0.287240 0.213523 0.088627
C29   C     C_R   0.513413 0.299078 0.294095 0.048671
C30   C     C_R   0.623464 0.292735 0.338463 0.024433
C31   C     C_3   0.931639 0.252864 0.328396 -0.046151
C32   C     C_R   0.609471 0.242704 0.182888 -0.046356
C33   C     C_1   0.685161 0.832575 0.201731 -0.025889
C34   C     C_1   0.703278 0.807967 0.270369 -0.023626
C35   C     C_1   0.227538 0.854414 0.215376 -0.026227
C36   C     C_1   0.179019 0.834579 0.283080 -0.021034
C37   C     C_1   0.644375 0.324379 0.778257 -0.044303
Cr1   Cr    Cr6+3 0.402240 0.783890 0.019450 1.057419
Cr2   Cr    Cr6+3 0.382360 0.097900 0.991800 1.054465
Cr3   Cr    Cr6+3 0.715380 0.118170 0.988700 1.027816
Cr4   Cr    Cr6+3 0.936650 0.882420 0.465510 1.053421
Cr5   Cr    Cr6+3 0.605770 0.565620 0.493360 1.055858
Cr6   Cr    Cr6+3 0.921340 0.550490 0.496380 1.039615
H1    H     H_    0.016645 0.938794 0.680196 0.149698
H2    H     H_    0.978276 0.367439 0.295056 0.128211
H3    H     H_    0.937597 0.181810 0.289358 0.138635
H4    H     H_    0.001516 0.255372 0.377172 0.163619
H5    H     H_    0.202348 0.655114 0.684393 0.130716
H6    H     H_    0.239980 0.666421 0.824546 0.145752
H7    H     H_    0.751989 0.154946 0.212563 0.134624
H8    H     H_    0.579550 0.616353 0.851494 0.140434
H9    H     H_    0.564630 0.588011 0.713698 0.139336
H10   H     H_    0.795720 0.058307 0.635909 0.138725
H11   H     H_    0.806461 0.087593 0.775122 0.146788
H12   H     H_    0.050991 0.948117 0.818923 0.137048
I1    I     I_    0.384038 0.356698 0.141595 -0.266021
I2    I     I_    0.336084 0.310306 0.350279 -0.311443
O1    O     O_R   0.521780 0.757110 0.108900 -0.480959
O2    O     O_R   0.805020 0.410040 0.421340 -0.477004
O3    O     O_R   0.049240 0.685450 0.403290 -0.500114
O4    O     O_R   0.275160 0.783810 0.101120 -0.481902
O5    O     O_R   0.077520 0.903010 0.551800 -0.513104
O6    O     O_R   0.802980 0.872780 0.546830 -0.495472
O7    O     O_R   0.578090 0.681300 0.569920 -0.515524
O8    O     O_R   0.608530 0.436370 0.586530 -0.500933
O9    O     O_R   0.798770 0.401880 0.597100 -0.511684
O10   O     O_R   0.043450 0.677890 0.566230 -0.501324
O11   O     O_3   0.821250 0.666180 0.485090 -0.290232
O12   O     O_R   0.513330 0.228330 0.898660 -0.491268
O13   O     O_R   0.237900 0.972600 0.090980 -0.489610
O14   O     O_R   0.511190 0.220540 0.061620 -0.474372
O15   O     O_R   0.736920 0.257720 0.063840 -0.498736
O16   O     O_R   0.710450 0.984050 0.081720 -0.522036
O17   O     O_R   0.524090 0.765520 0.933110 -0.507960
O18   O     O_R   0.277300 0.791600 0.938160 -0.498270
O19   O     O_R   0.240210 0.981010 0.915190 -0.513064
O20   O     O_3   0.786434 0.193853 0.362844 -0.539935
O21   O     O_R   0.739230 0.266130 0.888050 -0.505530
O22   O     O_R   0.712580 0.991850 0.918770 -0.506108
O23   O     O_3   0.499990 0.999980 0.999980 -0.297812
O24   O     O_R   0.083770 0.911170 0.376030 -0.490674
O25   O     O_R   0.808770 0.880340 0.383890 -0.478578
O26   O     O_R   0.584340 0.689460 0.394160 -0.475050
O27   O     O_R   0.614320 0.443940 0.423590 -0.496057

loop_
_geom_bond_atom_site_label_1
_geom_bond_atom_site_label_2
_ccdc_geom_bond_type
Cr4   O6    S    
C35   C36   T    
C28   I1    S    
C7    C8    A    
C12   C23   A    
C1    C35   S    
C26   O21   A    
C28   C29   A    
C27   O22   A    
C5    C6    A    
C10   C17   A    
Cr3   O16   S    
C22   O9    A    
C21   O7    A    
C24   O10   A    
Cr1   O1    S    
C8    C9    A    
C31   H3    S    
C2    C22   S    
Cr5   O8    S    
Cr3   O23   S    
C5    H9    S    
C31   O20   S    
C20   O3    A    
C27   O17   A    
Cr6   O2    S    
Cr1   O4    S    
C31   H4    S    
C13   C14   A    
Cr5   O11   S    
Cr4   O5    S    
C33   C34   T    
Cr4   O11   S    
Cr1   O18   S    
C16   O16   A    
C28   C32   A    
Cr5   O27   S    
C8    H11   S    
C3    H8    S    
Cr6   O11   S    
C23   H7    S    
C14   H5    S    
C19   O2    A    
C6    C21   S    
C13   C24   S    
C25   O18   A    
C22   O8    A    
C29   C30   A    
C3    C9    A    
C16   C33   S    
Cr4   O24   S    
C12   O20   S    
C18   O26   A    
Cr2   O12   S    
Cr3   O22   S    
C11   H1    S    
C16   O1    A    
Cr2   O19   S    
C10   H12   S    
C18   C34   S    
C4    C32   S    
Cr6   O3    S    
C29   I2    S    
Cr3   O21   S    
C7    H10   S    
C19   O27   A    
Cr5   O7    S    
C4    O15   A    
C9    C27   S    
Cr1   O17   S    
C15   C17   A    
C24   O5    A    
Cr3   O15   S    
C12   C30   A    
Cr5   O26   S    
C3    C5    A    
C1    O4    A    
C26   C37   S    
C6    C7    A    
C1    O13   A    
C25   O19   A    
C17   C25   S    
C23   C32   A    
Cr2   O23   S    
C11   C13   A    
C2    C37   T    
Cr1   O23   S    
Cr6   O9    S    
Cr4   O25   S    
C18   O25   A    
Cr2   O13   S    
C15   H6    S    
C21   O6    A    
C10   C11   A    
C20   C36   S    
Cr6   O10   S    
C31   H2    S    
C26   O12   A    
Cr2   O14   S    
C14   C15   A    
C20   O24   A    
C19   C30   S    
C4    O14   A    
