data_mof_unit_21270.cif
_audit_creation_date              2012-12-11T20:22:04-0500
_audit_creation_method            fapswitch 2.2
_symmetry_space_group_name_H-M    P1
_symmetry_Int_Tables_number       1
_space_group_crystal_system       triclinic
_cell_length_a                    8.233224
_cell_length_b                    17.385706
_cell_length_c                    26.963681
_cell_angle_alpha                 99.690329
_cell_angle_beta                  92.785921
_cell_angle_gamma                 81.912319
_cell_volume                      3765.45477956

loop_
_atom_site_label
_atom_site_type_symbol
_atom_type_description
_atom_site_fract_x
_atom_site_fract_y
_atom_site_fract_z
_atom_type_partial_charge
Ba1   Ba    Ba6+2 0.860160 0.462360 0.521850 1.638514
Ba2   Ba    Ba6+2 0.329680 0.537570 0.478140 1.660573
C1    C     C_3   0.709093 0.217048 0.606862 -0.335342
C2    C     C_R   0.954217 0.582328 0.186531 0.587296
C3    C     C_2   0.766672 0.561123 0.275957 -0.074072
C4    C     C_3   0.117793 0.290739 0.645668 0.311226
C5    C     C_3   0.739715 0.582779 0.332028 -0.109992
C6    C     C_1   0.985485 0.488622 0.343539 0.047355
C7    C     C_2   0.024897 0.481499 0.295441 -0.085015
C8    C     C_2   0.908886 0.518126 0.258531 0.216370
C9    C     C_R   0.028782 0.507310 0.103936 -0.079058
C10   C     C_R   0.033272 0.437482 0.124357 -0.034404
C11   C     C_R   0.075118 0.365173 0.092974 -0.060640
C12   C     C_3   0.619225 0.266667 0.652567 0.799324
C13   C     C_R   0.988836 0.580107 0.135453 -0.032132
C14   C     C_2   0.851741 0.532357 0.363005 -0.262980
C15   C     C_2   0.345293 0.478730 0.640890 -0.280163
C16   C     C_3   0.111167 0.262558 0.695835 -0.329378
C17   C     C_R   0.152550 0.428446 0.969695 0.019343
C18   C     C_R   0.082498 0.572750 0.979630 0.019884
C19   C     C_R   0.135375 0.499391 0.949045 0.050301
C20   C     C_R   0.212044 0.357492 0.938029 -0.098212
C21   C     C_R   0.250166 0.356133 0.887992 -0.057030
C22   C     C_R   0.230260 0.425294 0.866857 -0.034498
C23   C     C_3   0.493257 0.660916 0.633476 0.298073
C24   C     C_R   0.171778 0.497064 0.897265 -0.078543
C25   C     C_R   0.150176 0.566617 0.875938 -0.033565
C26   C     C_R   0.187561 0.563664 0.824887 0.588938
C27   C     C_R   0.268627 0.424207 0.816004 0.590564
C28   C     C_3   0.230909 0.293971 0.402014 0.319517
C29   C     C_2   0.447452 0.471047 0.728648 -0.076518
C30   C     C_3   0.491929 0.481206 0.676324 -0.053763
C31   C     C_1   0.203425 0.515465 0.658053 0.048395
C32   C     C_2   0.162551 0.517680 0.705545 -0.096421
C33   C     C_2   0.289983 0.491909 0.743510 0.212191
C34   C     C_3   0.482069 0.688440 0.689968 -0.370894
C35   C     C_R   0.110966 0.430765 0.021017 0.019668
C36   C     C_R   0.064668 0.504502 0.052062 0.049976
C37   C     C_R   0.053991 0.575601 0.031843 0.020864
C38   C     C_R   0.113356 0.361753 0.042678 -0.098986
C39   C     C_R   0.985115 0.649642 0.115463 -0.064771
C40   C     C_3   0.275033 0.208047 0.378354 -0.390871
C41   C     C_R   0.058729 0.641049 0.956578 -0.101408
C42   C     C_R   0.091845 0.637914 0.906077 -0.061028
C43   C     C_R   0.016628 0.647602 0.065008 -0.101577
C44   C     C_2   0.439092 0.273590 0.509112 -0.264261
C45   C     C_3   0.959509 0.745596 0.350221 0.357967
C46   C     C_3   0.307289 0.220231 0.504132 0.000564
C47   C     C_2   0.380734 0.136200 0.504705 -0.126244
C48   C     C_2   0.535620 0.112806 0.488800 -0.016355
C49   C     C_2   0.634854 0.172499 0.476088 -0.112968
C50   C     C_1   0.573016 0.248091 0.483035 0.064571
C51   C     C_R   0.807740 0.868499 0.479823 0.364515
C52   C     C_3   0.975835 0.702679 0.589164 0.302451
C53   C     C_R   0.858173 0.786361 0.469119 -0.054780
C54   C     C_R   0.621645 0.762080 0.512019 0.058540
C55   C     C_R   0.566190 0.842696 0.520521 -0.171243
C56   C     C_3   0.965950 0.788508 0.305591 0.327550
C57   C     C_R   0.655270 0.895995 0.503378 -0.024028
C58   C     C_2   0.604273 0.029069 0.480363 -0.039427
C59   C     C_2   0.590016 0.980820 0.513445 -0.026761
C60   C     C_R   0.761197 0.734142 0.483661 -0.334298
C61   C     C_3   0.946861 0.791446 0.605846 -0.373062
C62   C     C_3   0.692061 0.366414 0.369634 0.293318
C63   C     C_3   0.699575 0.347572 0.312567 -0.354126
C64   C     C_3   0.526678 0.153101 0.672912 0.107575
C65   C     C_3   0.814155 0.835878 0.240479 0.213017
C66   C     C_3   0.951993 0.929287 0.429304 0.187530
C67   C     C_3   0.495834 0.739598 0.342749 0.322591
C68   C     C_3   0.400411 0.813938 0.327676 -0.337081
C69   C     C_R   0.994018 0.441440 0.175576 0.592076
H1    H     H_    0.495584 0.293617 0.640755 -0.114290
H2    H     H_    0.809946 0.384644 0.385018 0.010724
H3    H     H_    0.591767 0.415425 0.379787 0.084840
H4    H     H_    0.731730 0.255404 0.580048 0.122575
H5    H     H_    0.804363 0.301207 0.301322 0.135005
H6    H     H_    0.715803 0.401027 0.297022 0.077739
H7    H     H_    0.583680 0.326612 0.296595 0.128415
H8    H     H_    0.634227 0.172999 0.586569 0.044166
H9    H     H_    0.583960 0.606789 0.626512 0.045728
H10   H     H_    0.395908 0.744000 0.697741 0.137930
H11   H     H_    0.436093 0.643341 0.708159 0.078007
H12   H     H_    0.340352 0.204262 0.342752 0.136034
H13   H     H_    0.605075 0.698740 0.706347 0.127026
H14   H     H_    0.828175 0.186282 0.618883 0.125000
H15   H     H_    0.236812 0.244720 0.710148 0.150033
H16   H     H_    0.963741 0.681673 0.336252 0.030002
H17   H     H_    0.841991 0.768547 0.369435 -0.122838
H18   H     H_    0.069260 0.757883 0.281481 0.072175
H19   H     H_    0.989505 0.849909 0.320220 -0.040524
H20   H     H_    0.606955 0.725093 0.319593 0.048440
H21   H     H_    0.531569 0.752201 0.383377 -0.004126
H22   H     H_    0.482634 0.860028 0.330422 0.076934
H23   H     H_    0.356605 0.175515 0.403833 0.057260
H24   H     H_    0.297037 0.836827 0.353180 0.124063
H25   H     H_    0.353078 0.801667 0.288289 0.107632
H26   H     H_    0.142717 0.450061 0.282634 0.112724
H27   H     H_    0.078573 0.310311 0.107261 0.119463
H28   H     H_    0.543755 0.455011 0.755458 0.104713
H29   H     H_    0.295818 0.300030 0.865747 0.122705
H30   H     H_    0.233685 0.301548 0.950961 0.069101
H31   H     H_    0.141734 0.303479 0.021504 0.068499
H32   H     H_    0.680618 0.588984 0.250425 0.099303
H33   H     H_    0.956906 0.706632 0.138893 0.102435
H34   H     H_    0.161823 0.179680 0.370125 0.113992
H35   H     H_    0.011422 0.698323 0.976289 0.067520
H36   H     H_    0.197077 0.338278 0.650394 0.013877
H37   H     H_    0.071658 0.692269 0.890676 0.121852
H38   H     H_    0.037956 0.539048 0.717368 0.119639
H39   H     H_    0.013743 0.704145 0.053503 0.063965
H40   H     H_    0.833361 0.543014 0.403280 0.078318
H41   H     H_    0.352463 0.441405 0.604271 0.067824
H42   H     H_    0.521108 0.003204 0.547441 0.058659
H43   H     H_    0.757673 0.153645 0.461843 0.091209
H44   H     H_    0.664801 0.007130 0.445208 0.072875
H45   H     H_    0.858548 0.681340 0.576259 0.008036
H46   H     H_    0.303214 0.093744 0.511787 0.083616
H47   H     H_    0.050257 0.311095 0.723741 0.135052
H48   H     H_    0.456389 0.864221 0.541964 0.096437
H49   H     H_    0.424221 0.330885 0.532904 0.062907
H50   H     H_    0.802951 0.671533 0.477260 0.073578
H51   H     H_    0.040398 0.211876 0.691545 0.127324
H52   H     H_    0.345457 0.319632 0.412797 0.016633
H53   H     H_    0.155310 0.297927 0.435509 0.031884
H54   H     H_    0.620587 0.103522 0.657700 0.048281
H55   H     H_    0.429333 0.162553 0.643956 0.067779
H56   H     H_    0.062312 0.689110 0.557686 0.071146
H57   H     H_    0.469973 0.135624 0.705064 0.087571
H58   H     H_    0.370374 0.647441 0.618780 0.027272
H59   H     H_    0.920551 0.816520 0.215311 0.034342
H60   H     H_    0.811880 0.898874 0.257594 0.000918
H61   H     H_    0.700773 0.830576 0.216916 0.067571
H62   H     H_    0.991276 0.314547 0.635258 0.114754
H63   H     H_    0.861537 0.906532 0.400407 -0.026329
H64   H     H_    0.078099 0.900962 0.419850 0.084520
H65   H     H_    0.950181 0.992744 0.427660 0.040859
H66   H     H_    0.854052 0.806734 0.635710 0.133412
H67   H     H_    0.902167 0.821454 0.573789 0.067817
H68   H     H_    0.063402 0.812923 0.620724 0.126892
N1    N     N_R   0.953277 0.513540 0.206066 -0.425040
N2    N     N_R   0.247014 0.493021 0.795522 -0.426484
O1    O     O_2   0.906370 0.542040 0.619810 -0.456010
O2    O     O_2   0.199426 0.777916 0.475073 -0.452343
O3    O     O_3   0.096999 0.758183 0.381863 -0.617718
O4    O     O_3   0.138370 0.541980 0.559630 -0.489839
O5    O     O_3   0.572820 0.404940 0.471170 -0.491973
O6    O     O_2   0.345130 0.693150 0.532000 -0.460224
O7    O     O_3   0.543288 0.720927 0.611305 -0.641237
O8    O     O_2   0.435467 0.523592 0.324871 -0.485025
O9    O     O_3   0.400496 0.677253 0.333382 -0.555147
O10   O     O_2   0.994310 0.380699 0.192735 -0.598017
O11   O     O_2   0.320642 0.361911 0.789926 -0.591464
O12   O     O_3   0.663373 0.299065 0.388069 -0.638798
O13   O     O_2   0.925978 0.645922 0.213844 -0.591240
O14   O     O_2   0.169440 0.624324 0.806789 -0.596326
O15   O     O_3   0.686580 0.398330 0.583860 -0.492977
O16   O     O_2   0.825281 0.451560 0.670562 -0.490770
O17   O     O_3   0.040037 0.668015 0.630306 -0.629103
O18   O     O_3   0.716727 0.324418 0.674291 -0.603602
O19   O     O_2   0.844570 0.306830 0.467970 -0.464729
O20   O     O_3   0.101900 0.357890 0.557750 -0.495504
O21   O     O_2   0.981216 0.223121 0.530692 -0.490624
O22   O     O_3   0.602138 0.221007 0.690627 -0.605339
O23   O     O_3   0.181453 0.227904 0.608883 -0.631283
O24   O     O_3   0.815905 0.788233 0.277993 -0.643278
O25   O     O_3   0.918579 0.921593 0.478997 -0.639261
O26   O     O_2   0.283330 0.457940 0.380160 -0.461458
O27   O     O_3   0.051340 0.457960 0.440360 -0.493165
O28   O     O_3   0.503130 0.601610 0.416130 -0.458318
O29   O     O_3   0.140557 0.332724 0.366423 -0.631233
O30   O     O_3   0.616890 0.595000 0.528820 -0.480390
O31   O     O_3   0.087820 0.642040 0.442240 -0.473637
P1    P     P_3+3 0.071770 0.565500 0.613330 0.996484
P2    P     P_3+3 0.664870 0.318630 0.453960 0.978098
P3    P     P_3+3 0.142141 0.255889 0.549570 0.937080
P4    P     P_3+3 0.117940 0.434440 0.386660 0.994031
P5    P     P_3+3 0.059286 0.743152 0.442504 0.996039
P6    P     P_3+3 0.672968 0.412885 0.649941 0.921129
P7    P     P_3+3 0.532847 0.694433 0.545787 0.963429
P8    P     P_3+3 0.520449 0.594141 0.350892 0.971632

loop_
_geom_bond_atom_site_label_1
_geom_bond_atom_site_label_2
_ccdc_geom_bond_type
O31   P5    S    
C2    O13   D    
C19   C24   A    
C3    H32   S    
Ba2   O27   S    
C1    H14   S    
C23   H9    S    
C53   P5    S    
Ba1   O4    S    
C65   H61   S    
C1    H8    S    
C51   C57   A    
C5    P8    S    
O29   P4    S    
Ba2   O4    S    
Ba1   P1    S    
C24   C25   A    
C16   H15   S    
C63   H5    S    
C8    N1    S    
C33   N2    S    
C67   O9    S    
O3    P5    S    
C17   C19   A    
C22   C24   A    
C32   C33   S    
C35   C38   A    
C36   C37   A    
O20   P3    S    
C55   C57   A    
C66   H64   S    
C2    N1    Am   
C52   C61   S    
C53   C60   A    
C44   C50   D    
C11   H27   S    
C54   C55   A    
O23   P3    S    
Ba1   Ba2   S    
C12   O22   S    
C56   O24   S    
C22   C27   A    
C28   O29   S    
C11   C38   A    
Ba1   O1    S    
C17   C35   A    
Ba2   P4    S    
O15   P6    S    
C25   C42   A    
C47   H46   S    
C34   H11   S    
C6    C7    D    
C52   H45   S    
O5    P2    S    
C26   O14   D    
C62   H2    S    
C29   H28   S    
C67   H21   S    
C31   P1    S    
C7    C8    S    
C16   H47   S    
O28   P8    S    
Ba2   O30   S    
C37   C43   A    
C46   P3    S    
C65   O24   S    
C51   C53   A    
C21   H29   S    
C4    H36   S    
C23   H58   S    
C6    C14   D    
C61   H66   S    
O30   P7    S    
Ba1   O5    S    
C15   C31   D    
C40   H34   S    
C48   C49   S    
O1    P1    D    
C42   H37   S    
C4    C16   S    
C44   C46   S    
Ba1   P2    S    
C57   C59   S    
C49   H43   S    
C63   H6    S    
C49   C50   D    
C66   H65   S    
C17   C20   A    
C13   C39   A    
C3    C5    S    
C18   C37   A    
C43   H39   S    
O21   P3    D    
C23   C34   S    
Ba1   O27   S    
Ba2   O6    S    
O12   P2    S    
Ba1   O30   S    
O8    P8    D    
C64   H55   S    
C58   C59   D    
C41   H35   S    
C45   H16   S    
Ba1   O15   S    
C68   H25   S    
C41   C42   A    
C35   C36   A    
C52   O17   S    
C56   H19   S    
O17   P1    S    
C29   C30   S    
C64   H54   S    
C34   H10   S    
C21   C22   A    
C27   N2    Am   
C68   H22   S    
C31   C32   D    
C44   H49   S    
C18   C19   A    
C28   H52   S    
C20   H30   S    
C1    C12   S    
C69   O10   D    
C16   H51   S    
C46   C47   S    
C10   C69   A    
C28   H53   S    
O7    P7    S    
C9    C13   A    
Ba1   O20   S    
C59   H42   S    
C15   C30   S    
C61   H67   S    
C54   C60   A    
C65   H59   S    
O18   P6    S    
C15   H41   S    
C50   P2    S    
C18   C41   A    
C1    H4    S    
O9    P8    S    
O27   P4    S    
C5    C14   S    
C7    H26   S    
C63   H7    S    
C40   H23   S    
C4    H62   S    
O19   P2    D    
Ba1   O19   S    
C65   H60   S    
C40   H12   S    
O4    P1    S    
C58   H44   S    
C9    C10   A    
C6    P4    S    
C69   N1    Am   
C61   H68   S    
Ba2   O5    S    
C52   H56   S    
C4    O23   S    
C39   H33   S    
C55   H48   S    
C12   O18   S    
C12   H1    S    
C62   C63   S    
C2    C13   A    
C66   H63   S    
C30   P6    S    
C48   C58   S    
C3    C8    D    
C39   C43   A    
C45   H17   S    
C27   O11   D    
C34   H13   S    
C45   O3    S    
C64   H57   S    
C64   O22   S    
C68   H24   S    
C23   O7    S    
C29   C33   D    
O16   P6    D    
O2    P5    D    
C67   C68   S    
C56   H18   S    
Ba2   O28   S    
C38   H31   S    
O6    P7    D    
C51   O25   S    
C10   C11   A    
C47   C48   D    
C25   C26   A    
C32   H38   S    
C62   H3    S    
C20   C21   A    
C28   C40   S    
C9    C36   A    
C26   N2    Am   
C67   H20   S    
Ba2   O26   S    
C54   P7    S    
C60   H50   S    
C14   H40   S    
Ba2   O31   S    
O26   P4    D    
C45   C56   S    
C62   O12   S    
C66   O25   S    
