data_mof_unit_10752.cif
_audit_creation_date              2012-12-11T14:50:32-0500
_audit_creation_method            fapswitch 2.2
_symmetry_space_group_name_H-M    P1
_symmetry_Int_Tables_number       1
_space_group_crystal_system       triclinic
_cell_length_a                    10.892751
_cell_length_b                    10.91032
_cell_length_c                    18.827116
_cell_angle_alpha                 90.026742
_cell_angle_beta                  89.655742
_cell_angle_gamma                 60.159841
_cell_volume                      1940.77620597

loop_
_atom_site_label
_atom_site_type_symbol
_atom_type_description
_atom_site_fract_x
_atom_site_fract_y
_atom_site_fract_z
_atom_type_partial_charge
C1    C     C_R   0.237630 0.646010 0.610093 0.540226
C2    C     C_3   0.667707 0.553427 0.800650 -0.248847
C3    C     C_3   0.699426 0.674633 0.811956 0.049838
C4    C     C_3   0.669578 0.647517 0.676530 0.055650
C5    C     C_3   0.817377 0.629354 0.689952 -0.247353
C6    C     C_3   0.652249 0.535898 0.720803 -0.211913
C7    C     C_R   0.789209 0.138860 0.708354 -0.156227
C8    C     C_R   0.806605 0.119891 0.781791 -0.147161
C9    C     C_R   0.687462 0.163652 0.826117 0.021289
C10   C     C_R   0.551821 0.233905 0.797157 -0.143034
C11   C     C_R   0.535258 0.247155 0.724689 -0.138735
C12   C     C_R   0.653511 0.621921 0.601221 0.540699
C13   C     C_R   0.653134 0.198106 0.679486 0.021764
C14   C     C_R   0.187728 0.555789 0.721761 -0.158988
C15   C     C_R   0.177859 0.560692 0.795630 -0.154823
C16   C     C_R   0.174102 0.674040 0.833016 0.027759
C17   C     C_R   0.189085 0.777141 0.796096 -0.149249
C18   C     C_R   0.196631 0.773443 0.723048 -0.146722
C19   C     C_R   0.197328 0.662295 0.685015 0.027446
C20   C     C_R   0.743521 0.531390 0.274072 -0.128081
C21   C     C_R   0.741383 0.541676 0.201468 -0.121886
C22   C     C_R   0.653744 0.670956 0.168551 0.024296
C23   C     C_R   0.625645 0.232856 0.604464 0.538573
C24   C     C_R   0.557359 0.787390 0.209634 -0.143998
C25   C     C_R   0.555454 0.775354 0.283467 -0.150516
C26   C     C_R   0.651107 0.647494 0.316046 0.029985
C27   C     C_R   0.554752 0.143459 0.289684 -0.149333
C28   C     C_R   0.553465 0.138879 0.216945 -0.179339
C29   C     C_R   0.653889 0.154493 0.177205 0.054138
C30   C     C_R   0.756027 0.177561 0.211080 0.255782
C31   C     C_R   0.752807 0.186666 0.285016 -0.131093
C32   C     C_R   0.650792 0.172671 0.323916 -0.007062
C33   C     C_R   0.245607 0.723547 0.281389 -0.132292
C34   C     C_R   0.226886 0.647325 0.399621 0.548141
C35   C     C_R   0.229606 0.723424 0.209334 -0.147076
C36   C     C_R   0.154145 0.662984 0.181171 0.033598
C37   C     C_R   0.108205 0.588545 0.224490 -0.131743
C38   C     C_R   0.128280 0.585034 0.297224 -0.138508
C39   C     C_R   0.191838 0.657792 0.325762 0.039417
C40   C     C_R   0.701794 0.103855 0.896667 0.542298
C41   C     C_R   0.723862 0.688493 0.887889 0.545028
C42   C     C_R   0.117609 0.706831 0.905230 0.540305
C43   C     C_R   0.674697 0.107387 0.104163 0.573256
C44   C     C_R   0.694282 0.689801 0.097280 0.548609
C45   C     C_R   0.641270 0.621409 0.391183 0.546485
C46   C     C_R   0.094751 0.707468 0.111935 0.548146
C47   C     C_R   0.618626 0.227185 0.395441 0.555131
C48   C     C_3   0.574319 0.813664 0.781753 -0.230462
C49   C     C_3   0.556010 0.797136 0.701987 -0.240374
C50   C     C_3   0.835935 0.642238 0.769855 -0.220780
Cr1   Cr    Cr6+3 0.392930 0.397900 0.502230 1.012146
Cr2   Cr    Cr6+3 0.398240 0.708600 0.501260 1.005894
Cr3   Cr    Cr6+3 0.708800 0.393470 0.496460 1.006446
Cr4   Cr    Cr6+3 0.937620 0.938540 0.007640 1.019618
Cr5   Cr    Cr6+3 0.625150 0.937450 0.994520 1.003221
Cr6   Cr    Cr6+3 0.937990 0.625080 0.001190 1.007818
H1    H     H_    0.594769 0.903166 0.789392 0.149707
H2    H     H_    0.733772 0.427204 0.704516 0.147336
H3    H     H_    0.926609 0.541015 0.788432 0.135129
H4    H     H_    0.902122 0.524260 0.670795 0.133503
H5    H     H_    0.881079 0.104674 0.674266 0.120500
H6    H     H_    0.912530 0.063969 0.803261 0.130644
H7    H     H_    0.458388 0.269271 0.830290 0.128540
H8    H     H_    0.429067 0.296962 0.704012 0.137919
H9    H     H_    0.188557 0.468888 0.693554 0.113961
H10   H     H_    0.166145 0.479891 0.823098 0.119797
H11   H     H_    0.186403 0.866112 0.823156 0.125114
H12   H     H_    0.474389 0.840450 0.810522 0.120695
H13   H     H_    0.204982 0.857159 0.696637 0.125995
H14   H     H_    0.817443 0.430526 0.297038 0.131873
H15   H     H_    0.817488 0.450542 0.171416 0.180480
H16   H     H_    0.488952 0.888543 0.185220 0.118488
H17   H     H_    0.480695 0.865205 0.314872 0.111892
H18   H     H_    0.474628 0.132553 0.318828 0.139538
H19   H     H_    0.476384 0.117890 0.192082 0.134256
H20   H     H_    0.823613 0.213402 0.311960 0.116106
H21   H     H_    0.301045 0.774760 0.302295 0.141157
H22   H     H_    0.447936 0.813948 0.693059 0.138300
H23   H     H_    0.267179 0.779355 0.176157 0.124111
H24   H     H_    0.049083 0.541506 0.202959 0.133393
H25   H     H_    0.091583 0.529349 0.331073 0.119213
H26   H     H_    0.565718 0.879265 0.671423 0.121558
H27   H     H_    0.862417 0.727233 0.779195 0.132095
H28   H     H_    0.829411 0.711294 0.660542 0.116898
H29   H     H_    0.754647 0.452844 0.822404 0.133065
H30   H     H_    0.568372 0.576929 0.829063 0.120188
H31   H     H_    0.546768 0.546324 0.710782 0.130200
O1    O     O_R   0.507430 0.255570 0.581420 -0.528296
O2    O     O_R   0.524460 0.695920 0.424060 -0.506215
O3    O     O_R   0.736530 0.504260 0.414810 -0.529632
O4    O     O_R   0.691460 0.277160 0.422180 -0.509583
O5    O     O_3   0.499990 0.499990 0.499980 -0.246361
O6    O     O_R   0.089490 0.825610 0.930610 -0.532083
O7    O     O_R   0.818370 0.054540 0.929880 -0.506098
O8    O     O_R   0.605870 0.077310 0.915530 -0.528075
O9    O     O_R   0.646440 0.806700 0.917570 -0.509095
O10   O     O_R   0.837200 0.593290 0.915250 -0.526354
O11   O     O_R   0.065330 0.635370 0.931590 -0.509030
O12   O     O_R   0.280190 0.527390 0.578910 -0.509302
O13   O     O_R   0.068300 0.828790 0.091860 -0.532848
O14   O     O_R   0.798730 0.057480 0.079370 -0.453073
O15   O     O_R   0.584680 0.080480 0.076790 -0.542228
O16   O     O_R   0.626790 0.809640 0.067050 -0.505648
O17   O     O_R   0.816010 0.596460 0.076500 -0.525022
O18   O     O_R   0.045680 0.638310 0.081070 -0.507823
O19   O     O_3   0.833590 0.833690 0.001120 -0.249550
O20   O     O_R   0.260310 0.739740 0.584580 -0.529689
O21   O     O_R   0.532250 0.695150 0.573830 -0.508678
O22   O     O_R   0.744930 0.503430 0.576380 -0.527646
O23   O     O_R   0.699250 0.276390 0.571950 -0.506189
O24   O     O_R   0.499020 0.256400 0.419850 -0.519405
O25   O     O_R   0.272400 0.528160 0.429140 -0.499211
O26   O     O_R   0.251910 0.740570 0.423020 -0.529293
O27   O     O_3   0.847886 0.203243 0.170268 -0.563120
C51   C     C_3   0.988348 0.127719 0.195559 -0.008592
H32   H     H_    0.018604 0.017392 0.210302 0.153534
H33   H     H_    0.001737 0.182793 0.241970 0.103125
C52   C     C_3   0.089001 0.121951 0.137577 -0.349835
H34   H     H_    0.065828 0.230563 0.124274 0.141182
H35   H     H_    0.199988 0.059928 0.156215 0.076592
H36   H     H_    0.076883 0.071192 0.089069 0.184477

loop_
_geom_bond_atom_site_label_1
_geom_bond_atom_site_label_2
_ccdc_geom_bond_type
Cr3   O23   S    
Cr1   O25   S    
C42   O6    A    
C34   O25   A    
C6    H2    S    
Cr4   O14   S    
C35   C36   A    
Cr6   O11   S    
Cr4   O13   S    
C1    O12   A    
O27   C51   S    
C44   O17   A    
C7    C8    A    
Cr2   O26   S    
C34   O26   A    
Cr5   O15   S    
C33   C39   A    
C21   H15   S    
C50   H3    S    
C36   C37   A    
C42   O11   A    
C38   C39   A    
C41   O9    A    
C51   H32   S    
C46   O18   A    
Cr5   O16   S    
C3    C48   S    
C49   H22   S    
C13   C23   S    
C2    H29   S    
C18   C19   A    
C52   H34   S    
C7    H5    S    
Cr4   O6    S    
C26   C45   S    
C3    C50   S    
C22   C44   S    
C10   H7    S    
Cr2   O20   S    
C8    C9    A    
C51   H33   S    
Cr3   O4    S    
C36   C46   S    
C4    C12   S    
C29   C30   A    
C45   O2    A    
C9    C10   A    
C25   H17   S    
C18   H13   S    
C21   C22   A    
C29   C43   S    
C20   H14   S    
Cr2   O2    S    
C2    C6    S    
Cr6   O10   S    
C12   O22   A    
C44   O16   A    
C50   H27   S    
Cr1   O12   S    
C37   H24   S    
C17   H11   S    
C1    C19   S    
Cr4   O19   S    
Cr5   O19   S    
C34   C39   S    
C48   H1    S    
C24   C25   A    
Cr6   O17   S    
Cr5   O8    S    
C11   H8    S    
C12   O21   A    
C5    H28   S    
C16   C17   A    
C25   C26   A    
C15   H10   S    
C9    C40   S    
C6    H31   S    
C52   H36   S    
C49   H26   S    
C43   O14   A    
C37   C38   A    
Cr1   O5    S    
C31   C32   A    
C7    C13   A    
C51   C52   S    
Cr3   O5    S    
C17   C18   A    
C48   H12   S    
C45   O3    A    
Cr6   O19   S    
C1    O20   A    
C4    C6    S    
C48   C49   S    
C23   O1    A    
C38   H25   S    
C32   C47   S    
C41   O10   A    
C5    C50   S    
Cr2   O5    S    
C40   O8    A    
C27   H18   S    
C16   C42   S    
Cr3   O3    S    
C24   H16   S    
C30   O27   S    
Cr3   O22   S    
C23   O23   A    
C46   O13   A    
C28   C29   A    
Cr1   O24   S    
C5    H4    S    
C27   C32   A    
C47   O4    A    
C14   C19   A    
C40   O7    A    
Cr5   O9    S    
Cr1   O1    S    
C4    C49   S    
C2    C3    S    
C43   O15   A    
C11   C13   A    
C33   H21   S    
C31   H20   S    
C30   C31   A    
C20   C26   A    
C47   O24   A    
C35   H23   S    
C33   C35   A    
C14   H9    S    
C2    H30   S    
C22   C24   A    
C52   H35   S    
Cr6   O18   S    
Cr4   O7    S    
C3    C41   S    
C10   C11   A    
C4    C5    S    
C20   C21   A    
Cr2   O21   S    
C27   C28   A    
C14   C15   A    
C28   H19   S    
C15   C16   A    
C8    H6    S    
