data_mof_unit_8534.cif
_audit_creation_date              2012-12-10T17:29:16-0500
_audit_creation_method            fapswitch 2.2
_symmetry_space_group_name_H-M    P1
_symmetry_Int_Tables_number       1
_space_group_crystal_system       triclinic
_cell_length_a                    12.007106
_cell_length_b                    12.827644
_cell_length_c                    13.103909
_cell_angle_alpha                 87.134263
_cell_angle_beta                  113.591048
_cell_angle_gamma                 94.209141
_cell_volume                      1844.16434279

loop_
_atom_site_label
_atom_site_type_symbol
_atom_type_description
_atom_site_fract_x
_atom_site_fract_y
_atom_site_fract_z
_atom_type_partial_charge
C1    C     C_R   0.476633 0.299537 0.498579 0.899383
C2    C     C_R   0.561340 0.516301 0.988842 0.012602
C3    C     C_R   0.543183 0.547996 0.879393 0.075439
C4    C     C_R   0.471803 0.537617 0.027984 0.113427
C5    C     C_R   0.378147 0.605291 0.966428 0.165820
C6    C     C_R   0.372755 0.648626 0.865115 -0.240186
C7    C     C_R   0.454092 0.620174 0.821752 -0.176269
C8    C     C_R   0.471836 0.491597 0.126161 -0.252779
C9    C     C_R   0.303060 0.591154 0.113039 -0.217015
C10   C     C_R   0.612745 0.504296 0.829514 -0.178387
C11   C     C_R   0.543148 0.811834 0.516583 -0.171315
C12   C     C_R   0.567593 0.500490 0.708670 0.879081
C13   C     C_R   0.460353 0.188193 0.496896 -0.043781
C14   C     C_R   0.335893 0.031205 0.423086 0.002312
C15   C     C_R   0.347535 0.139265 0.433543 -0.301209
C16   C     C_R   0.561569 0.131321 0.554709 -0.253350
C17   C     C_R   0.553729 0.024687 0.543833 0.104908
C18   C     C_R   0.441858 0.973857 0.474737 0.152290
C19   C     C_R   0.441052 0.868417 0.457163 -0.211024
C20   C     C_R   0.652788 0.861164 0.591016 -0.022583
C21   C     C_R   0.657637 0.969121 0.600493 -0.167445
C22   C     C_R   0.003673 0.588652 0.385541 -0.290458
C23   C     C_R   0.524889 0.700395 0.505611 0.852657
C24   C     C_R   0.124995 0.581529 0.398299 0.045425
C25   C     C_R   0.161255 0.463202 0.551430 -0.042644
C26   C     C_R   0.039819 0.468020 0.541870 0.086348
C27   C     C_R   0.960034 0.531680 0.457725 0.082861
C28   C     C_R   0.838665 0.536651 0.448368 -0.032232
C29   C     C_R   0.874949 0.418233 0.601444 0.024680
C30   C     C_R   0.996152 0.410900 0.613935 -0.310193
C31   C     C_R   0.433337 0.505265 0.291340 0.879118
C32   C     C_R   0.292725 0.629889 0.008475 -0.189874
C33   C     C_R   0.395424 0.524107 0.172726 -0.067217
C34   C     C_R   0.716658 0.451037 0.894920 -0.314302
C35   C     C_R   0.747925 0.435926 0.009103 0.538374
C36   C     C_R   0.668003 0.464347 0.054621 -0.273450
H1    H     H_    0.243516 0.617460 0.149265 0.148832
H2    H     H_    0.741152 0.009786 0.655253 0.180476
H3    H     H_    0.269194 0.185592 0.391149 0.153950
H4    H     H_    0.647717 0.170851 0.606054 0.149836
H5    H     H_    0.776715 0.586001 0.384522 0.133287
H6    H     H_    0.842282 0.374517 0.657743 0.125260
H7    H     H_    0.944520 0.638064 0.319572 0.153992
H8    H     H_    0.055227 0.361219 0.679644 0.151304
H9    H     H_    0.157619 0.625058 0.341864 0.138645
H10   H     H_    0.304258 0.702906 0.818348 0.166241
H11   H     H_    0.223202 0.413870 0.615291 0.139211
H12   H     H_    0.221691 0.682391 0.962854 0.152282
H13   H     H_    0.534724 0.433051 0.171272 0.152631
H14   H     H_    0.770748 0.417583 0.856969 0.164303
H15   H     H_    0.693833 0.447670 0.142399 0.157409
H16   H     H_    0.447382 0.656164 0.743195 0.171799
H17   H     H_    0.360936 0.828386 0.397238 0.199087
N1    N     N_R   0.798200 0.480260 0.519790 -0.099989
N2    N     N_R   0.201820 0.519740 0.480210 -0.105808
O1    O     O_R   0.579910 0.341070 0.505280 -0.618051
O2    O     O_R   0.388440 0.353740 0.492580 -0.615940
O3    O     O_R   0.643280 0.490550 0.663120 -0.627923
O4    O     O_R   0.451810 0.503220 0.650420 -0.612949
O5    O     O_R   0.611560 0.646260 0.507420 -0.627358
O6    O     O_R   0.420090 0.658930 0.494720 -0.604702
O7    O     O_R   0.548190 0.496780 0.349580 -0.611353
O8    O     O_R   0.356720 0.509450 0.336880 -0.631443
Zn1   Zn    Zn3+2 0.627850 0.491540 0.508480 0.940320
Zn2   Zn    Zn3+2 0.372150 0.508460 0.491520 0.940111
C37   C     C_2   0.759468 0.802361 0.664035 0.404958
H18   H     H_    0.750216 0.719239 0.680121 0.085922
O9    O     O_2   0.859774 0.846998 0.709476 -0.571562
C38   C     C_2   0.211824 0.983891 0.359438 0.366570
H19   H     H_    0.146196 0.029209 0.293398 0.074924
O10   O     O_2   0.178772 0.897580 0.384096 -0.576150
O11   O     O_3   0.847194 0.380313 0.074502 -0.603557
C39   C     C_3   0.955013 0.441719 0.090211 0.080131
H20   H     H_    0.953907 0.519843 0.123475 0.132223
H21   H     H_    0.967962 0.452217 0.010739 0.143124
C40   C     C_3   0.062999 0.386324 0.174248 -0.784247
H22   H     H_    0.066444 0.307633 0.144288 0.252401
H23   H     H_    0.148565 0.432446 0.185140 0.215987
H24   H     H_    0.055110 0.377878 0.255922 0.256809

loop_
_geom_bond_atom_site_label_1
_geom_bond_atom_site_label_2
_ccdc_geom_bond_type
C37   O9    D    
O8    Zn2   S    
C29   H6    S    
C39   H21   S    
C39   H20   S    
C14   C18   A    
C35   C36   A    
C40   H24   S    
C4    C8    A    
C24   N2    A    
C11   C19   A    
C26   C27   A    
C24   H9    S    
C20   C37   S    
C1    O1    A    
C40   H23   S    
C7    H16   S    
C34   C35   A    
C3    C7    A    
C5    C6    A    
C29   N1    A    
C28   H5    S    
C18   C19   A    
C38   O10   D    
O7    Zn1   S    
C9    C32   A    
C12   O4    A    
C21   H2    S    
C16   C17   A    
O1    Zn1   S    
C25   H11   S    
C5    C32   A    
C12   O3    A    
C19   H17   S    
C37   H18   S    
C9    C33   A    
C32   H12   S    
C31   O7    A    
C30   H8    S    
C9    H1    S    
N2    Zn2   S    
O3    Zn1   S    
C23   O5    A    
C11   C20   A    
C34   H14   S    
C31   O8    A    
C40   H22   S    
C28   N1    A    
O11   C39   S    
C25   C26   A    
C17   C21   A    
C2    C4    A    
C29   C30   A    
C1    O2    A    
C22   H7    S    
C31   C33   S    
C17   C18   A    
C10   C34   A    
C15   H3    S    
C36   H15   S    
C10   C12   S    
C16   H4    S    
C35   O11   S    
C26   C30   A    
C22   C27   A    
C13   C15   A    
C14   C38   S    
C22   C24   A    
C1    C13   S    
C2    C36   A    
C6    H10   S    
C25   N2    A    
O2    Zn2   S    
C4    C5    A    
C6    C7    A    
O5    Zn1   S    
C2    C3    A    
C3    C10   A    
O4    Zn2   S    
N1    Zn1   S    
C11   C23   S    
C39   C40   S    
C8    C33   A    
C38   H19   S    
O6    Zn2   S    
C23   O6    A    
C20   C21   A    
C13   C16   A    
C27   C28   A    
C14   C15   A    
C8    H13   S    
