data_mof_unit_31091.cif
_audit_creation_date              2012-12-11T15:16:39-0500
_audit_creation_method            fapswitch 2.2
_symmetry_space_group_name_H-M    P1
_symmetry_Int_Tables_number       1
_space_group_crystal_system       triclinic
_cell_length_a                    24.999644
_cell_length_b                    7.217003
_cell_length_c                    22.105629
_cell_angle_alpha                 89.999977
_cell_angle_beta                  109.77876
_cell_angle_gamma                 90.0
_cell_volume                      3753.06518518

loop_
_atom_site_label
_atom_site_type_symbol
_atom_type_description
_atom_site_fract_x
_atom_site_fract_y
_atom_site_fract_z
_atom_type_partial_charge
O1    O     O_R   0.554350 0.505270 0.581390 -0.532586
O2    O     O_R   0.445650 0.005270 0.418610 -0.532587
O3    O     O_R   0.553380 0.177580 0.454800 -0.539563
O4    O     O_R   0.446620 0.677580 0.545200 -0.539563
C1    C     C_R   0.563653 0.344410 0.435690 0.678504
C2    C     C_R   0.436347 0.844410 0.564310 0.678504
O5    O     O_R   0.560970 0.175640 0.583140 -0.533452
O6    O     O_R   0.439030 0.675640 0.416860 -0.533453
O7    O     O_R   0.453290 0.004120 0.547860 -0.537406
O8    O     O_R   0.546710 0.504120 0.452140 -0.537406
C3    C     C_R   0.577979 0.344354 0.606186 0.703244
C4    C     C_R   0.422021 0.844354 0.393814 0.703243
O9    O     O_3   0.464660 0.338800 0.488280 -0.375772
O10   O     O_3   0.535340 0.838800 0.511720 -0.375772
V1    V     V_3+5 0.506560 0.064420 0.502170 1.374741
V2    V     V_3+5 0.493440 0.564420 0.497830 1.374741
C5    C     C_R   0.136721 0.845323 0.282302 -0.156313
C6    C     C_R   0.863279 0.345326 0.717697 -0.156313
H1    H     H_    0.053223 0.880848 0.214096 0.109468
H2    H     H_    0.946777 0.380850 0.785904 0.109467
H3    H     H_    0.213908 0.757054 0.389927 0.125640
H4    H     H_    0.786092 0.257057 0.610073 0.125641
H5    H     H_    0.120370 0.812981 0.320664 0.117959
H6    H     H_    0.879629 0.312985 0.679336 0.117959
C7    C     C_R   0.117953 0.933281 0.171929 -0.033551
C8    C     C_R   0.882047 0.433281 0.828071 -0.033551
C9    C     C_R   0.393179 0.902881 0.279130 -0.201428
C10   C     C_R   0.606821 0.402879 0.720870 -0.201428
C11   C     C_R   0.355956 0.903867 0.215743 0.165002
C12   C     C_R   0.644044 0.403865 0.784257 0.165002
C13   C     C_R   0.299074 0.847554 0.202641 0.057245
C14   C     C_R   0.700926 0.347553 0.797359 0.057246
C15   C     C_R   0.276338 0.853985 0.253819 0.007454
C16   C     C_R   0.723662 0.353984 0.746181 0.007454
C17   C     C_R   0.315083 0.830468 0.318787 0.008514
C18   C     C_R   0.684917 0.330468 0.681213 0.008514
C19   C     C_R   0.216495 0.875341 0.242235 0.072296
C20   C     C_R   0.783505 0.375341 0.757765 0.072296
C21   C     C_R   0.195250 0.839379 0.292672 0.105624
C22   C     C_R   0.804750 0.339381 0.707328 0.105624
C23   C     C_R   0.231918 0.792199 0.353069 -0.219438
C24   C     C_R   0.768082 0.292201 0.646931 -0.219438
C25   C     C_R   0.290786 0.786217 0.367398 0.100183
C26   C     C_R   0.709214 0.286218 0.632602 0.100183
C27   C     C_R   0.176786 0.935311 0.182601 -0.215800
C28   C     C_R   0.823213 0.435311 0.817399 -0.215801
C29   C     C_R   0.098404 0.886676 0.221970 -0.174259
C30   C     C_R   0.901596 0.386678 0.778030 -0.174259
C31   C     C_R   0.375290 0.853341 0.330379 -0.124697
C32   C     C_R   0.624710 0.353340 0.669621 -0.124697
H7    H     H_    0.190514 0.983275 0.144179 0.101872
H8    H     H_    0.809486 0.483273 0.855821 0.101872
H9    H     H_    0.437737 0.933672 0.288410 0.120483
H10   H     H_    0.562263 0.433670 0.711590 0.120483
C33   C     C_R   0.094555 0.823152 0.845651 0.141607
C34   C     C_R   0.905445 0.323151 0.154348 0.141607
C35   C     C_R   0.134586 0.819973 0.813705 -0.204478
C36   C     C_R   0.865414 0.319973 0.186294 -0.204478
H11   H     H_    0.127039 0.728697 0.772751 0.142330
H12   H     H_    0.872960 0.228697 0.227249 0.142330
C37   C     C_R   0.183480 0.932734 0.832609 -0.025182
C38   C     C_R   0.816520 0.432734 0.167391 -0.025182
C39   C     C_R   0.192087 0.054086 0.886037 0.101390
C40   C     C_R   0.807913 0.554086 0.113963 0.101390
C41   C     C_R   0.152637 0.053420 0.918918 -0.233335
C42   C     C_R   0.847363 0.553420 0.081082 -0.233336
H13   H     H_    0.159490 0.143958 0.960012 0.122843
H14   H     H_    0.840510 0.643959 0.039988 0.122844
C43   C     C_R   0.104382 0.939190 0.900094 -0.074459
C44   C     C_R   0.895618 0.439190 0.099905 -0.074459
N1    N     N_R   0.202842 0.855484 0.732528 -0.293030
N2    N     N_R   0.797158 0.355484 0.267472 -0.293030
N3    N     N_R   0.236744 0.843948 0.697304 -0.286430
N4    N     N_R   0.763256 0.343948 0.302696 -0.286430
C45   C     C_R   0.291902 0.898015 0.721805 0.497255
C46   C     C_R   0.708097 0.398015 0.278195 0.497256
N5    N     N_R   0.312115 0.959154 0.783499 -0.304753
N6    N     N_R   0.687885 0.459155 0.216501 -0.304753
N7    N     N_R   0.278191 0.969599 0.818727 -0.311471
N8    N     N_R   0.721809 0.469599 0.181273 -0.311471
C47   C     C_R   0.222509 0.920682 0.793913 0.500058
C48   C     C_R   0.777491 0.420682 0.206087 0.500058
C49   C     C_R   0.329454 0.726452 0.647101 -0.174718
C50   C     C_R   0.670546 0.226452 0.352899 -0.174717
H15   H     H_    0.302572 0.610909 0.649413 0.132448
H16   H     H_    0.697428 0.110910 0.350587 0.132448
C51   C     C_R   0.364741 0.709245 0.609849 -0.185071
C52   C     C_R   0.635259 0.209245 0.390151 -0.185071
H17   H     H_    0.364115 0.581087 0.584208 0.126464
H18   H     H_    0.635885 0.081087 0.415792 0.126464
C53   C     C_R   0.399594 0.856898 0.605006 -0.068361
C54   C     C_R   0.600406 0.356898 0.394994 -0.068361
C55   C     C_R   0.398905 0.020807 0.639151 -0.178126
C56   C     C_R   0.601095 0.520807 0.360849 -0.178126
H19   H     H_    0.425308 0.136848 0.635832 0.124332
H20   H     H_    0.574692 0.636848 0.364168 0.124333
C57   C     C_R   0.364179 0.039564 0.677322 0.092928
C58   C     C_R   0.635821 0.539564 0.322678 0.092929
C59   C     C_R   0.329159 0.889289 0.681902 0.009627
C60   C     C_R   0.670841 0.389289 0.318097 0.009627
O11   O     O_R   0.953220 0.285790 0.047790 -0.535385
O12   O     O_R   0.046780 0.785790 0.952210 -0.535386
O13   O     O_R   0.939020 0.617570 0.916840 -0.536723
O14   O     O_R   0.060980 0.117570 0.083160 -0.536723
C61   C     C_R   0.924049 0.448093 0.892999 0.683634
C62   C     C_R   0.075951 0.948093 0.107001 0.683634
O15   O     O_R   0.946600 0.615450 0.045180 -0.540480
O16   O     O_R   0.053400 0.115450 0.954820 -0.540480
O17   O     O_R   0.054370 0.786770 0.081410 -0.532584
O18   O     O_R   0.945630 0.286770 0.918590 -0.532584
C63   C     C_R   0.934816 0.447065 0.062154 0.693145
C64   C     C_R   0.065184 0.947065 0.937846 0.693146
O19   O     O_3   0.035300 0.454160 0.011680 -0.372876
O20   O     O_3   0.964700 0.954160 0.988320 -0.372876
V3    V     V_3+5 0.993450 0.728620 0.997830 1.392498
V4    V     V_3+5 0.006550 0.228620 0.002170 1.392498
C65   C     C_3   0.241304 0.189355 0.909178 -0.354540
C66   C     C_3   0.234621 0.350470 0.861786 -0.280076
C67   C     C_3   0.286459 0.477345 0.883162 -0.739204
H21   H     H_    0.325711 0.397252 0.888366 0.236174
H22   H     H_    0.281910 0.586627 0.846515 0.235292
H23   H     H_    0.290390 0.544170 0.929744 0.221932
H24   H     H_    0.229096 0.298398 0.812817 0.211752
H25   H     H_    0.196178 0.432390 0.858988 0.190377
H26   H     H_    0.243752 0.249788 0.956350 0.159506
H27   H     H_    0.282286 0.115937 0.918800 0.200322
C68   C     C_3   0.758696 0.689355 0.090822 -0.354540
C69   C     C_3   0.765380 0.850470 0.138214 -0.280075
C70   C     C_3   0.713541 0.977346 0.116839 -0.739203
H28   H     H_    0.674289 0.897253 0.111634 0.236173
H29   H     H_    0.718090 0.086627 0.153485 0.235292
H30   H     H_    0.709610 0.044170 0.070256 0.221932
H31   H     H_    0.770905 0.798398 0.187183 0.211752
H32   H     H_    0.803822 0.932390 0.141012 0.190376
H33   H     H_    0.756248 0.749788 0.043650 0.159506
H34   H     H_    0.717714 0.615937 0.081200 0.200322
C71   C     C_3   0.363003 0.226454 0.707942 -0.366908
C72   C     C_3   0.415461 0.253758 0.768186 -0.293340
C73   C     C_3   0.416491 0.447989 0.795908 -0.748306
H35   H     H_    0.419753 0.553823 0.760833 0.235082
H36   H     H_    0.377316 0.473420 0.807698 0.239284
H37   H     H_    0.453921 0.462089 0.840484 0.215588
H38   H     H_    0.415172 0.149902 0.805192 0.218523
H39   H     H_    0.454845 0.233763 0.756211 0.183907
H40   H     H_    0.362129 0.335958 0.672338 0.166861
H41   H     H_    0.323716 0.245701 0.719971 0.192022
C74   C     C_3   0.636997 0.726454 0.292058 -0.366909
C75   C     C_3   0.584539 0.753758 0.231814 -0.293340
C76   C     C_3   0.583509 0.947989 0.204092 -0.748306
H42   H     H_    0.580247 0.053823 0.239167 0.235082
H43   H     H_    0.622684 0.973420 0.192302 0.239285
H44   H     H_    0.546079 0.962090 0.159516 0.215588
H45   H     H_    0.584828 0.649903 0.194808 0.218523
H46   H     H_    0.545155 0.733763 0.243789 0.183907
H47   H     H_    0.637871 0.835959 0.327662 0.166861
H48   H     H_    0.676284 0.745701 0.280029 0.192022
C77   C     C_3   0.270455 0.735259 0.141085 -0.389532
C78   C     C_3   0.244198 0.551724 0.153203 -0.278742
C79   C     C_3   0.224023 0.432598 0.092522 -0.777346
H49   H     H_    0.191875 0.508724 0.053048 0.232609
H50   H     H_    0.260439 0.394304 0.077004 0.219940
H51   H     H_    0.204314 0.303460 0.102439 0.213782
H52   H     H_    0.276369 0.472458 0.191773 0.195459
H53   H     H_    0.207127 0.577817 0.168730 0.210622
H54   H     H_    0.239153 0.818471 0.103496 0.163189
H55   H     H_    0.302924 0.693511 0.119688 0.175472
C80   C     C_3   0.729545 0.235257 0.858915 -0.389534
C81   C     C_3   0.755802 0.051723 0.846797 -0.278743
C82   C     C_3   0.775977 0.932596 0.907477 -0.777345
H56   H     H_    0.808125 0.008722 0.946952 0.232609
H57   H     H_    0.739561 0.894302 0.922995 0.219940
H58   H     H_    0.795686 0.803459 0.897561 0.213782
H59   H     H_    0.723631 0.972457 0.808227 0.195459
H60   H     H_    0.792873 0.077816 0.831270 0.210622
H61   H     H_    0.760847 0.318469 0.896504 0.163189
H62   H     H_    0.697076 0.193508 0.880312 0.175473
C83   C     C_3   0.378475 0.963106 0.162950 -0.378455
C84   C     C_3   0.399198 0.163945 0.171839 -0.751213
H63   H     H_    0.364527 0.257478 0.173873 0.230699
H64   H     H_    0.436414 0.180057 0.216505 0.223785
H65   H     H_    0.412288 0.205888 0.130565 0.215185
H66   H     H_    0.413963 0.870350 0.162931 0.177917
H67   H     H_    0.345182 0.955669 0.114748 0.176529
C85   C     C_3   0.621524 0.463103 0.837050 -0.378455
C86   C     C_3   0.600801 0.663942 0.828161 -0.751214
H68   H     H_    0.635472 0.757475 0.826127 0.230699
H69   H     H_    0.563585 0.680054 0.783495 0.223786
H70   H     H_    0.587712 0.705883 0.869435 0.215186
H71   H     H_    0.586037 0.370347 0.837069 0.177917
H72   H     H_    0.654818 0.455665 0.885252 0.176529
C87   C     C_3   0.322785 0.709770 0.433116 -0.349256
C88   C     C_3   0.332837 0.501686 0.429580 -0.640695
H73   H     H_    0.291529 0.427125 0.414675 0.196273
H74   H     H_    0.354168 0.469979 0.394204 0.230622
H75   H     H_    0.359249 0.449401 0.477556 0.213114
H76   H     H_    0.361277 0.789053 0.456155 0.161808
H77   H     H_    0.298438 0.729381 0.466474 0.164692
C89   C     C_3   0.677215 0.209771 0.566884 -0.349256
C90   C     C_3   0.667163 0.001687 0.570420 -0.640695
H78   H     H_    0.708471 0.927126 0.585325 0.196273
H79   H     H_    0.645832 0.969980 0.605796 0.230622
H80   H     H_    0.640751 0.949402 0.522444 0.213114
H81   H     H_    0.638722 0.289054 0.543845 0.161808
H82   H     H_    0.701562 0.229382 0.533526 0.164693
C91   C     C_3   0.040895 0.708071 0.818009 -0.371279
C92   C     C_3   0.988639 0.830415 0.788127 -0.719724
H83   H     H_    0.979077 0.914477 0.825208 0.220295
H84   H     H_    0.995595 0.924440 0.751692 0.223673
H85   H     H_    0.951103 0.742269 0.763992 0.217892
H86   H     H_    0.044466 0.614294 0.779648 0.170007
H87   H     H_    0.034529 0.615514 0.854988 0.191370
C93   C     C_3   0.959105 0.208070 0.181991 -0.371279
C94   C     C_3   0.011361 0.330413 0.211873 -0.719725
H88   H     H_    0.020923 0.414476 0.174792 0.220295
H89   H     H_    0.004405 0.424438 0.248308 0.223674
H90   H     H_    0.048896 0.242267 0.236007 0.217892
H91   H     H_    0.955534 0.114293 0.220351 0.170007
H92   H     H_    0.965471 0.115513 0.145012 0.191370

loop_
_geom_bond_atom_site_label_1
_geom_bond_atom_site_label_2
_ccdc_geom_bond_type
C36   C38   A    
C42   H14   S    
C61   O18   A    
C39   C41   A    
C26   C89   S    
C77   C78   S    
C14   C80   S    
C51   C53   A    
C9    C11   A    
C23   C25   A    
C82   H56   S    
O12   C64   A    
C74   C75   S    
O1    C3    A    
O2    C4    A    
C69   C70   S    
C2    O7    A    
O14   C62   A    
O20   V3    S    
C86   H68   S    
C18   C32   A    
O8    V2    S    
C21   C23   A    
C42   C44   A    
C91   C92   S    
C81   H60   S    
C5    H5    S    
N4    C46   A    
C6    H6    S    
C71   H40   S    
C68   H33   S    
C34   C93   S    
C72   H38   S    
C76   H43   S    
C39   C65   S    
C73   H37   S    
C92   H84   S    
C35   H11   S    
C55   H19   S    
C58   C74   S    
C27   H7    S    
C7    C27   A    
C36   H12   S    
C83   H66   S    
C28   H8    S    
C85   C86   S    
C5    C21   A    
C37   C39   A    
C6    C22   A    
C66   C67   S    
C38   C40   A    
O12   V3    S    
C15   C17   A    
O14   V4    S    
C10   C32   A    
C52   C54   A    
C5    C29   A    
C41   H13   S    
C17   C31   A    
C90   H80   S    
C13   C15   A    
C89   C90   S    
C12   C14   A    
C74   H47   S    
C65   H27   S    
C7    C29   A    
C16   C18   A    
C8    C30   A    
C49   C51   A    
C70   H30   S    
C22   C24   A    
C38   C48   S    
C25   C87   S    
C90   H78   S    
O6    V2    S    
C11   C83   S    
C82   H57   S    
C24   C26   A    
C8    C61   S    
C57   C71   S    
C57   C59   A    
C7    C62   S    
C84   H63   S    
C94   H89   S    
C81   H59   S    
C33   C91   S    
C73   H35   S    
C79   H51   S    
C87   C88   S    
C50   C60   A    
C88   H75   S    
C87   H77   S    
C71   H41   S    
C68   H34   S    
N2    N4    A    
C72   C73   S    
C76   H44   S    
C77   H54   S    
C80   C81   S    
N7    C47   A    
C10   H10   S    
C92   H83   S    
C86   H70   S    
O5    V1    S    
C83   H67   S    
C15   C19   A    
O16   C64   A    
C12   C85   S    
C14   C16   A    
O4    V2    S    
O5    C3    A    
C4    C31   S    
O13   V3    S    
O2    V1    S    
C69   H32   S    
C53   C55   A    
C69   H31   S    
C55   C57   A    
C79   H49   S    
C94   H88   S    
O6    C4    A    
C40   C68   S    
C45   C59   S    
N5    N7    A    
O13   C61   A    
O1    V2    S    
C66   H25   S    
C75   C76   S    
C56   H20   S    
C74   H48   S    
C45   N5    A    
O15   V3    S    
C13   C77   S    
C67   H22   S    
C78   H52   S    
H3    C23   S    
O4    C2    A    
C81   C82   S    
C49   H15   S    
C52   H18   S    
C58   C60   A    
C51   H17   S    
C89   H82   S    
C78   C79   S    
C82   H58   S    
C85   H72   S    
C18   C26   A    
C46   C60   S    
C75   H45   S    
N3    C45   A    
C19   C27   A    
C68   C69   S    
O18   V4    S    
C17   C25   A    
C80   H61   S    
C70   H28   S    
C94   H90   S    
C75   H46   S    
H2    C30   S    
C16   C20   A    
O15   C63   A    
C67   H23   S    
C87   H76   S    
C46   N6    A    
O3    C1    A    
C6    C30   A    
C77   H55   S    
C84   H64   S    
C67   H21   S    
C9    H9    S    
O19   V4    S    
C35   C37   A    
C78   H53   S    
O11   C63   A    
C71   C72   S    
C34   C44   A    
C1    C54   S    
C88   H73   S    
C33   C43   A    
C33   C35   A    
C79   H50   S    
O9    V2    S    
C1    O8    A    
C11   C13   A    
C3    C32   S    
C37   C47   S    
C76   H42   S    
C20   C22   A    
C73   H36   S    
C92   H85   S    
O16   V4    S    
C54   C56   A    
H4    C24   S    
C50   C52   A    
C93   H92   S    
C91   H86   S    
C72   H39   S    
C41   C43   A    
C10   C12   A    
C43   C64   S    
N8    C48   A    
C34   C36   A    
N6    N8    A    
C66   H24   S    
C91   H87   S    
O7    V1    S    
C20   C28   A    
C84   H65   S    
C86   H69   S    
C44   C63   S    
O17   V3    S    
C9    C31   A    
C93   C94   S    
C19   C21   A    
C83   C84   S    
C93   H91   S    
H1    C29   S    
N1    N3    A    
C89   H81   S    
C90   H79   S    
O11   V4    S    
C56   C58   A    
O10   V1    S    
C50   H16   S    
O3    V1    S    
C49   C59   A    
N1    C47   A    
C65   C66   S    
C8    C28   A    
C65   H26   S    
C85   H71   S    
N2    C48   A    
C2    C53   S    
C40   C42   A    
C80   H62   S    
C70   H29   S    
C62   O17   A    
C88   H74   S    
