data_mof_unit_11369.cif
_audit_creation_date              2012-12-11T17:44:03-0500
_audit_creation_method            fapswitch 2.2
_symmetry_space_group_name_H-M    P1
_symmetry_Int_Tables_number       1
_space_group_crystal_system       triclinic
_cell_length_a                    20.253865
_cell_length_b                    22.713053
_cell_length_c                    6.939593
_cell_angle_alpha                 90.004099
_cell_angle_beta                  87.072835
_cell_angle_gamma                 89.99993
_cell_volume                      3188.23563868

loop_
_atom_site_label
_atom_site_type_symbol
_atom_type_description
_atom_site_fract_x
_atom_site_fract_y
_atom_site_fract_z
_atom_type_partial_charge
O1    O     O_R   0.751270 0.447300 0.600030 -0.543968
O2    O     O_R   0.248730 0.947300 0.399970 -0.543968
O3    O     O_R   0.613530 0.440160 0.952150 -0.539454
O4    O     O_R   0.386470 0.940160 0.047850 -0.539429
O5    O     O_R   0.613050 0.552700 0.122560 -0.535736
O6    O     O_R   0.386950 0.052700 0.877440 -0.535664
C1    C     C_R   0.591497 0.425413 0.786692 0.695317
C2    C     C_R   0.408504 0.925413 0.213290 0.695287
O7    O     O_R   0.750780 0.440350 0.929820 -0.546855
O8    O     O_R   0.249220 0.940350 0.070180 -0.546856
O9    O     O_R   0.751280 0.552900 0.100070 -0.546188
O10   O     O_R   0.248720 0.052900 0.899930 -0.546162
C3    C     C_R   0.773991 0.426228 0.757726 0.691453
C4    C     C_R   0.226009 0.926228 0.242267 0.691464
O11   O     O_R   0.613040 0.447100 0.622520 -0.538464
O12   O     O_R   0.386960 0.947100 0.377480 -0.538507
O13   O     O_3   0.682160 0.536920 0.777780 -0.352884
O14   O     O_3   0.317840 0.036920 0.222220 -0.352869
V1    V     V_3+5 0.682160 0.493150 0.052630 1.427909
V2    V     V_3+5 0.317840 0.993150 0.947370 1.428024
O15   O     O_R   0.750790 0.559840 0.429870 -0.505774
O16   O     O_R   0.249210 0.059840 0.570130 -0.505778
C5    C     C_R   0.773298 0.574791 0.257880 0.730916
C6    C     C_R   0.226703 0.074792 0.742127 0.730915
O17   O     O_R   0.613540 0.559650 0.452200 -0.533058
O18   O     O_R   0.386460 0.059650 0.547800 -0.533145
C7    C     C_R   0.591507 0.574327 0.286783 0.677559
C8    C     C_R   0.408493 0.074325 0.713234 0.677517
V3    V     V_3+5 0.682160 0.506850 0.552630 1.478349
V4    V     V_3+5 0.317840 0.006850 0.447370 1.478212
O19   O     O_3   0.682150 0.463080 0.277610 -0.377367
O20   O     O_3   0.317850 0.963080 0.722390 -0.377374
C9    C     C_R   0.579864 0.861334 0.173168 -0.141708
C10   C     C_R   0.420092 0.361397 0.825205 -0.141707
H1    H     H_    0.538088 0.947650 0.152561 0.128022
H2    H     H_    0.461864 0.447717 0.845764 0.128012
H3    H     H_    0.629090 0.878797 0.145297 0.136186
H4    H     H_    0.370841 0.378892 0.852272 0.136170
C11   C     C_R   0.463014 0.882251 0.213158 -0.051132
C12   C     C_R   0.536988 0.382253 0.786710 -0.051116
C13   C     C_R   0.469984 0.594782 0.321584 0.348167
C14   C     C_R   0.530046 0.094735 0.679534 0.348132
C15   C     C_R   0.417343 0.634186 0.328178 -0.102356
C16   C     C_R   0.582708 0.134115 0.673593 -0.102328
C17   C     C_R   0.427260 0.694269 0.301496 -0.235070
C18   C     C_R   0.572783 0.194212 0.699900 -0.235076
C19   C     C_R   0.491277 0.717908 0.266573 0.076382
C20   C     C_R   0.508735 0.217893 0.733756 0.076376
C21   C     C_R   0.545864 0.677970 0.259578 -0.010909
C22   C     C_R   0.454129 0.177979 0.740128 -0.010920
C23   C     C_R   0.502588 0.779814 0.238574 0.057366
C24   C     C_R   0.497414 0.279815 0.761330 0.057375
C25   C     C_R   0.568622 0.800516 0.203083 0.108713
C26   C     C_R   0.431349 0.300558 0.795786 0.108701
C27   C     C_R   0.622135 0.760279 0.197661 0.133050
C28   C     C_R   0.377820 0.260342 0.800651 0.133041
C29   C     C_R   0.610105 0.700214 0.225861 -0.152376
C30   C     C_R   0.389860 0.200261 0.772873 -0.152339
C31   C     C_R   0.450417 0.822114 0.243948 -0.198539
C32   C     C_R   0.549602 0.322094 0.756470 -0.198538
C33   C     C_R   0.527768 0.901370 0.177349 -0.153551
C34   C     C_R   0.472200 0.401417 0.821477 -0.153549
C35   C     C_R   0.535307 0.616263 0.287508 -0.169970
C36   C     C_R   0.464696 0.116255 0.712623 -0.169932
H5    H     H_    0.399342 0.810043 0.270091 0.094111
H6    H     H_    0.600699 0.309994 0.731039 0.094081
H7    H     H_    0.383274 0.720897 0.309177 0.127442
H8    H     H_    0.616787 0.220818 0.692805 0.127447
H9    H     H_    0.367441 0.617845 0.354467 0.144158
H10   H     H_    0.632633 0.117742 0.648117 0.144173
H11   H     H_    0.652021 0.670562 0.220790 0.115631
H12   H     H_    0.347931 0.170627 0.777481 0.115601
C37   C     C_R   0.170477 0.883179 0.259494 -0.046620
C38   C     C_R   0.829524 0.383179 0.740491 -0.046620
C39   C     C_R   0.145175 0.857206 0.094291 -0.218188
C40   C     C_R   0.854820 0.357206 0.905693 -0.218197
C41   C     C_R   0.092080 0.817610 0.110613 -0.143045
C42   C     C_R   0.907916 0.317612 0.889373 -0.143053
C43   C     C_R   0.062827 0.803069 0.293602 0.426618
C44   C     C_R   0.937177 0.303070 0.706389 0.426615
C45   C     C_R   0.088223 0.828882 0.457618 -0.182773
C46   C     C_R   0.911787 0.328882 0.542373 -0.182770
C47   C     C_R   0.141337 0.868307 0.441421 -0.199023
C48   C     C_R   0.858672 0.368306 0.558567 -0.199014
C49   C     C_R   0.898088 0.694662 0.376970 -0.239052
C50   C     C_R   0.101927 0.194671 0.623056 -0.239057
C51   C     C_R   0.844677 0.654748 0.398776 0.310688
C52   C     C_R   0.155337 0.154757 0.601255 0.310513
C53   C     C_R   0.934606 0.700342 0.199166 0.401764
C54   C     C_R   0.065396 0.200347 0.800843 0.401761
N1    N     N_2   0.008068 0.763622 0.320545 -0.304245
N2    N     N_2   0.991938 0.263624 0.679454 -0.304245
N3    N     N_2   0.989432 0.739722 0.170349 -0.298158
N4    N     N_2   0.010568 0.239726 0.829650 -0.298161
C55   C     C_R   0.827722 0.619279 0.240543 -0.085363
C56   C     C_R   0.172282 0.119283 0.759474 -0.085368
H13   H     H_    0.910676 0.721338 0.499091 0.136191
H14   H     H_    0.089348 0.221350 0.500946 0.136205
H15   H     H_    0.066529 0.818435 0.599386 0.121383
H16   H     H_    0.933487 0.318434 0.400607 0.121384
H17   H     H_    0.159221 0.887427 0.571851 0.131657
H18   H     H_    0.840792 0.387426 0.428139 0.131653
C57   C     C_R   0.863769 0.626192 0.063095 -0.276192
C58   C     C_R   0.136225 0.126194 0.936910 -0.276077
C59   C     C_R   0.916114 0.666242 0.042997 -0.198160
C60   C     C_R   0.083879 0.166244 0.957004 -0.198154
H19   H     H_    0.852067 0.599941 0.939116 0.178152
H20   H     H_    0.147919 0.099940 0.060879 0.178119
H21   H     H_    0.073975 0.798819 0.980038 0.134914
H22   H     H_    0.926014 0.298822 0.019949 0.134917
H23   H     H_    0.943044 0.670234 0.904686 0.138569
H24   H     H_    0.056939 0.170235 0.095303 0.138570
H25   H     H_    0.166228 0.867583 0.951777 0.132474
H26   H     H_    0.833760 0.367584 0.048205 0.132483
C61   C     C_3   0.692940 0.780161 0.161944 -0.769942
H27   H     H_    0.728382 0.742826 0.163448 0.213708
H28   H     H_    0.699024 0.801684 0.018487 0.210675
H29   H     H_    0.706350 0.811555 0.276196 0.211871
C62   C     C_3   0.306985 0.280266 0.835300 -0.769898
H30   H     H_    0.271536 0.242942 0.833507 0.213754
H31   H     H_    0.300682 0.301867 0.978592 0.210610
H32   H     H_    0.293778 0.311604 0.720672 0.211890
O21   O     O_3   0.454664 0.535929 0.349683 -0.648445
H33   H     H_    0.494805 0.511323 0.333963 0.279420
O22   O     O_3   0.545379 0.035865 0.651866 -0.648444
H34   H     H_    0.505178 0.011297 0.666398 0.279426
O23   O     O_3   0.808287 0.650547 0.572161 -0.638132
H35   H     H_    0.825847 0.678836 0.665594 0.283933
O24   O     O_3   0.191740 0.150559 0.427887 -0.638131
H36   H     H_    0.174185 0.178848 0.334460 0.283964

loop_
_geom_bond_atom_site_label_1
_geom_bond_atom_site_label_2
_ccdc_geom_bond_type
C52   C56   A    
C21   C35   A    
C54   N4    S    
C22   C36   A    
O4    C2    A    
V1    O19   S    
C58   C60   A    
C12   C34   A    
O21   H33   S    
C19   C21   A    
C60   H24   S    
O9    V1    S    
C38   C40   A    
C12   C32   A    
C40   C42   A    
O3    C1    A    
C6    C56   S    
C42   C44   A    
O12   V4    S    
C61   H27   S    
C10   C34   A    
C48   H18   S    
C17   C19   A    
O7    C3    A    
C24   C32   A    
C14   O22   S    
O5    C7    A    
O7    V1    S    
O6    C8    A    
C24   C26   A    
C61   H28   S    
C51   C55   A    
C17   H7    S    
C40   H26   S    
C1    C12   S    
O3    V1    S    
C39   H25   S    
C2    C11   S    
C28   C30   A    
O16   V4    S    
C43   N1    S    
C25   C27   A    
C59   H23   S    
C32   H6    S    
C2    O12   A    
O17   V3    S    
C13   C15   A    
C14   C16   A    
C52   O24   S    
H2    C34   S    
C51   O23   S    
C45   C47   A    
C55   C57   A    
O11   V3    S    
C50   H14   S    
C18   C20   A    
C62   H31   S    
C9    C25   A    
C11   C33   A    
C26   C28   A    
C49   C51   A    
C22   C30   A    
C4    C37   S    
C54   C60   A    
C44   C46   A    
C50   C54   A    
O8    V2    S    
C43   C45   A    
C49   C53   A    
C19   C23   A    
C1    O11   A    
C45   H15   S    
O15   V3    S    
C9    H3    S    
C23   C25   A    
C44   N2    S    
C18   H8    S    
N1    N3    D    
C39   C41   A    
C61   H29   S    
C11   C31   A    
O10   V2    S    
O1    V3    S    
C41   C43   A    
C57   C59   A    
C29   H11   S    
C41   H21   S    
C20   C22   A    
C15   C17   A    
C7    C35   S    
O14   V4    S    
C8    C36   S    
C9    C33   A    
C10   C26   A    
C46   C48   A    
C27   C29   A    
O8    C4    A    
O22   H34   S    
C28   C62   S    
O16   C6    A    
O1    C3    A    
C37   C39   A    
O23   H35   S    
C14   C36   A    
C58   H20   S    
C16   H10   S    
O24   H36   S    
V2    O20   S    
C62   H32   S    
C56   C58   A    
C47   H17   S    
C10   H4    S    
C46   H16   S    
C38   C48   A    
C21   C29   A    
C62   H30   S    
O18   V4    S    
O5    V1    S    
O17   C7    A    
O6    V2    S    
O10   C6    A    
O18   C8    A    
C42   H22   S    
O2    V4    S    
C13   O21   S    
O15   C5    A    
V3    O19   S    
O13   V3    S    
C31   H5    S    
V4    O20   S    
C30   H12   S    
N2    N4    D    
C27   C61   S    
H1    C33   S    
C50   C52   A    
O9    C5    A    
O13   V1    S    
C5    C55   S    
O14   V2    S    
C53   N3    S    
O2    C4    A    
C49   H13   S    
O4    V2    S    
C20   C24   A    
C23   C31   A    
C3    C38   S    
C15   H9    S    
C53   C59   A    
C13   C35   A    
C57   H19   S    
C37   C47   A    
C16   C18   A    
