data_mof_unit_17828.cif
_audit_creation_date              2012-12-10T17:38:49-0500
_audit_creation_method            fapswitch 2.2
_symmetry_space_group_name_H-M    P1
_symmetry_Int_Tables_number       1
_space_group_crystal_system       triclinic
_cell_length_a                    12.37927
_cell_length_b                    13.189085
_cell_length_c                    23.51101
_cell_angle_alpha                 76.618475
_cell_angle_beta                  101.028468
_cell_angle_gamma                 116.809134
_cell_volume                      3316.31153106

loop_
_atom_site_label
_atom_site_type_symbol
_atom_type_description
_atom_site_fract_x
_atom_site_fract_y
_atom_site_fract_z
_atom_type_partial_charge
C1    C     C_R   0.854995 0.286385 0.506101 0.787285
C2    C     C_R   0.807923 0.322149 0.033820 -0.144176
C3    C     C_R   0.807346 0.322256 0.974543 -0.139470
C4    C     C_R   0.902175 0.408135 0.942501 -0.016590
C5    C     C_R   0.998498 0.495753 0.970354 -0.018894
C6    C     C_R   0.094185 0.583335 0.938275 -0.085190
C7    C     C_R   0.187546 0.672995 0.967070 -0.028760
C8    C     C_R   0.187600 0.668975 0.027139 -0.190898
C9    C     C_R   0.902918 0.408430 0.883047 0.553716
C10   C     C_R   0.093335 0.575077 0.879225 0.565146
C11   C     C_R   0.941675 0.551789 0.750529 -0.164610
C12   C     C_R   0.000871 0.501977 0.608743 0.830537
C13   C     C_R   0.944997 0.561072 0.690392 -0.043450
C14   C     C_R   0.000778 0.502874 0.671460 -0.187568
C15   C     C_R   0.054317 0.439892 0.713693 -0.186065
C16   C     C_R   0.053003 0.432822 0.773682 0.482315
C17   C     C_R   0.995949 0.489702 0.792081 0.219704
C18   C     C_R   0.087297 0.474314 0.251505 -0.101859
C19   C     C_R   0.087887 0.476123 0.310595 -0.176482
C20   C     C_R   0.999895 0.498332 0.328740 -0.048223
C21   C     C_R   0.911320 0.518477 0.286703 -0.188067
C22   C     C_R   0.910976 0.516613 0.227643 -0.089969
C23   C     C_R   0.144581 0.714131 0.492793 0.863120
C24   C     C_R   0.998931 0.494597 0.209842 0.341202
C25   C     C_R   0.276846 0.031552 0.431492 -0.142294
C26   C     C_R   0.225668 0.838377 0.485175 -0.150022
C27   C     C_R   0.811152 0.086081 0.552948 -0.278314
C28   C     C_R   0.727802 0.973930 0.572359 0.477441
C29   C     C_R   0.604762 0.939778 0.552926 -0.144804
C30   C     C_R   0.562635 0.013614 0.510737 0.008389
C31   C     C_R   0.649539 0.123794 0.488224 0.052805
C32   C     C_R   0.437350 0.982105 0.490347 0.101718
C33   C     C_R   0.401097 0.062717 0.449870 0.014345
C34   C     C_R   0.000140 0.499855 0.391163 0.834712
C35   C     C_R   0.490067 0.169905 0.426214 -0.020538
C36   C     C_R   0.612165 0.194036 0.442011 -0.214888
C37   C     C_R   0.347175 0.871312 0.507681 -0.273108
C38   C     C_R   0.189002 0.922367 0.450320 0.404465
C39   C     C_R   0.772242 0.162803 0.513154 -0.121028
C40   C     C_R   0.334119 0.312928 0.588717 -0.225650
C41   C     C_R   0.755192 0.637653 0.416427 0.635011
C42   C     C_R   0.647405 0.646646 0.391242 -0.317965
C43   C     C_R   0.542473 0.583461 0.419544 -0.187331
C44   C     C_R   0.544517 0.517769 0.475967 0.030391
C45   C     C_R   0.092618 0.579171 0.118828 0.554333
C46   C     C_R   0.650988 0.499832 0.496512 0.192376
C47   C     C_R   0.442059 0.463133 0.510466 -0.048009
C48   C     C_R   0.437079 0.371097 0.556888 0.096630
C49   C     C_R   0.537882 0.343478 0.572306 -0.057626
C50   C     C_R   0.644964 0.413211 0.545206 -0.203705
C51   C     C_R   0.347090 0.500067 0.502517 0.132279
C52   C     C_R   0.238730 0.345696 0.575216 0.057504
C53   C     C_R   0.905544 0.409178 0.122063 0.542922
C54   C     C_R   0.903225 0.408054 0.062319 -0.016348
C55   C     C_R   0.998688 0.495149 0.030547 -0.009116
C56   C     C_R   0.094206 0.581278 0.059022 -0.033395
Cu1   Cu    Cu3+1 0.098270 0.475410 0.513370 0.989525
Cu2   Cu    Cu3+1 0.901730 0.524590 0.486630 1.015936
H1    H     H_    0.733487 0.254454 0.057212 0.198104
H2    H     H_    0.157160 0.460090 0.341948 0.178497
H3    H     H_    0.842354 0.535748 0.299348 0.185077
H4    H     H_    0.842720 0.532830 0.195581 0.156040
H5    H     H_    0.245753 0.090057 0.400882 0.198325
H6    H     H_    0.369243 0.805992 0.536759 0.184490
H7    H     H_    0.905255 0.115185 0.571495 0.154016
H8    H     H_    0.545279 0.854807 0.572489 0.181857
H9    H     H_    0.732490 0.254462 0.953976 0.200134
H10   H     H_    0.678220 0.271084 0.418532 0.184169
H11   H     H_    0.159072 0.298583 0.599069 0.133838
H12   H     H_    0.326843 0.243427 0.624929 0.184551
H13   H     H_    0.459429 0.583486 0.395226 0.176665
H14   H     H_    0.643598 0.699700 0.348881 0.160318
H15   H     H_    0.720152 0.392424 0.561488 0.215069
H16   H     H_    0.259513 0.737429 0.048595 0.205991
H17   H     H_    0.900377 0.596594 0.765631 0.185858
H18   H     H_    0.096688 0.394338 0.700135 0.184063
H19   H     H_    0.155420 0.457040 0.238018 0.151889
N1    N     N_R   0.999211 0.494036 0.148959 -0.470687
N2    N     N_R   0.997660 0.490508 0.853086 -0.479772
N3    N     N_R   0.246280 0.438190 0.533650 -0.221523
N4    N     N_R   0.754320 0.561190 0.466710 -0.215202
O1    O     O_R   0.972510 0.318130 0.516820 -0.585037
O2    O     O_2   0.815443 0.325812 0.153167 -0.520045
O3    O     O_2   0.810329 0.326885 0.855332 -0.495642
O4    O     O_2   0.187930 0.648368 0.848211 -0.486797
O5    O     O_R   0.806530 0.359650 0.494230 -0.616578
O6    O     O_R   0.082990 0.479200 0.593420 -0.591215
O7    O     O_R   0.917010 0.520720 0.570830 -0.580607
O8    O     O_R   0.193470 0.640350 0.505770 -0.574919
O9    O     O_R   0.027490 0.681870 0.483180 -0.516630
O10   O     O_R   0.082990 0.479280 0.429170 -0.551594
O11   O     O_R   0.917010 0.520800 0.406580 -0.549910
O12   O     O_2   0.182939 0.662230 0.146551 -0.519276
O13   O     O_3   0.069498 0.899904 0.431169 -0.686740
H20   H     H_    0.023222 0.862146 0.466030 0.360296
C57   C     C_2   0.460368 0.260640 0.385760 0.826526
O14   O     O_2   0.514237 0.311608 0.341937 -0.582071
O15   O     O_R   0.375916 0.292322 0.399448 -0.774235
H21   H     H_    0.365401 0.356608 0.369145 0.331703
O16   O     O_3   0.762741 0.897211 0.612688 -0.711647
H22   H     H_    0.852329 0.933787 0.621959 0.334270
C58   C     C_2   0.535491 0.241831 0.616426 0.844281
O17   O     O_2   0.622996 0.250695 0.652815 -0.566595
O18   O     O_R   0.435937 0.134676 0.614452 -0.758257
H23   H     H_    0.446324 0.071687 0.645848 0.349902
C59   C     C_2   0.368670 0.615995 0.469133 0.850201
O19   O     O_2   0.305207 0.628121 0.423835 -0.592926
O20   O     O_R   0.470053 0.711413 0.486953 -0.779335
H24   H     H_    0.481624 0.785272 0.458433 0.335523
O21   O     O_3   0.860515 0.698733 0.388979 -0.672071
H25   H     H_    0.845818 0.749340 0.352992 0.315151
C60   C     C_2   0.282343 0.776662 0.936183 0.940076
O22   O     O_2   0.389308 0.807080 0.955499 -0.568310
O23   O     O_R   0.248816 0.842958 0.886856 -0.704225
H26   H     H_    0.321472 0.912483 0.870190 0.352589
C61   C     C_2   0.893764 0.636132 0.649680 0.890462
O24   O     O_2   0.951687 0.707971 0.610506 -0.588549
O25   O     O_R   0.780450 0.627071 0.657543 -0.730832
H27   H     H_    0.753909 0.681210 0.626584 0.368846
O26   O     O_3   0.108287 0.369977 0.812389 -0.695806
H28   H     H_    0.098953 0.370006 0.853248 0.338857

loop_
_geom_bond_atom_site_label_1
_geom_bond_atom_site_label_2
_ccdc_geom_bond_type
C55   C56   A    
C10   O4    S    
C41   C42   A    
C35   C36   A    
C45   O12   S    
C8    C56   A    
C60   O23   S    
O23   H26   S    
C7    C8    A    
C35   C57   S    
O20   H24   S    
C40   H12   S    
C18   C24   A    
C28   C29   A    
C16   O26   S    
C9    N2    A    
C5    C6    A    
C59   O19   D    
C15   C16   A    
C17   N2    S    
C61   O24   D    
C18   C19   A    
C25   H5    S    
C23   C26   S    
C34   O10   A    
O18   H23   S    
C52   H11   S    
O25   H27   S    
C19   C20   A    
C45   C56   A    
C27   C39   A    
C16   C17   A    
C57   O15   S    
C23   O8    A    
C45   N1    A    
C31   C36   A    
C21   H3    S    
C44   C47   A    
C20   C34   S    
C28   O16   S    
C15   H18   S    
C13   C14   A    
Cu1   N3    S    
O13   H20   S    
Cu2   O5    S    
C42   H14   S    
C60   O22   D    
C44   C46   A    
C12   O7    A    
C2    C54   A    
C50   H15   S    
C49   C58   S    
C2    H1    S    
C26   C38   A    
C47   C51   A    
C1    O1    A    
C40   C52   A    
Cu1   O6    S    
C43   C44   A    
C29   C30   A    
C27   H7    S    
C25   C38   A    
C22   H4    S    
C46   N4    A    
C47   C48   A    
C41   N4    A    
C57   O14   D    
C38   O13   S    
C8    H16   S    
C23   O9    A    
O21   H25   S    
C32   C37   A    
C58   O18   S    
Cu2   O9    S    
Cu1   O8    S    
C24   N1    S    
C48   C49   A    
C12   C14   S    
O15   H21   S    
C41   O21   S    
C22   C24   A    
Cu2   N4    S    
C42   C43   A    
C3    C4    A    
C37   H6    S    
O26   H28   S    
C7    C60   S    
C1    O5    A    
C40   C48   A    
C54   C55   A    
C11   C17   A    
C43   H13   S    
Cu1   O10   S    
C12   O6    A    
C14   C15   A    
C52   N3    A    
C5    C55   A    
C3    H9    S    
C4    C5    A    
Cu2   O7    S    
C6    C10   A    
C10   N2    A    
C36   H10   S    
C26   C37   A    
C53   C54   A    
C6    C7    A    
C19   H2    S    
C46   C50   A    
C53   O2    S    
C32   C33   A    
C2    C3    A    
C11   H17   S    
C30   C32   A    
C11   C13   A    
Cu1   Cu2   S    
C30   C31   A    
C59   O20   S    
C51   C59   S    
C51   N3    A    
O16   H22   S    
C33   C35   A    
C61   O25   S    
C53   N1    A    
C18   H19   S    
C58   O17   D    
C34   O11   A    
C13   C61   S    
C1    C39   S    
C9    O3    S    
C29   H8    S    
C20   C21   A    
C49   C50   A    
C27   C28   A    
C31   C39   A    
Cu1   O1    S    
C4    C9    A    
C21   C22   A    
Cu2   O11   S    
C25   C33   A    
