data_mof_unit_32866.cif
_audit_creation_date              2013-03-05T16:06:42-0500
_audit_creation_method            fapswitch 2.2
_symmetry_space_group_name_H-M    P1
_symmetry_Int_Tables_number       1
_space_group_crystal_system       triclinic
_cell_length_a                    10.830198
_cell_length_b                    9.517785
_cell_length_c                    15.093782
_cell_angle_alpha                 90.0
_cell_angle_beta                  90.152517
_cell_angle_gamma                 90.000041
_cell_volume                      1555.85393009

loop_
_atom_site_label
_atom_site_type_symbol
_atom_site_description
_atom_site_fract_x
_atom_site_fract_y
_atom_site_fract_z
_atom_type_partial_charge
O1    O     O_R   0.319640 0.618740 0.499990 -0.587576
O2    O     O_R   0.680360 0.381260 0.500010 -0.588698
O3    O     O_R   0.680360 0.618740 0.500010 -0.587550
O4    O     O_R   0.319640 0.381260 0.499990 -0.588682
N1    N     N_R   0.500000 0.852070 0.500000 -0.171772
N2    N     N_R   0.500000 0.147930 0.500000 -0.182915
C1    C     C_R   0.262058 0.499999 0.499905 0.885471
C2    C     C_R   0.737942 0.499999 0.500090 0.885479
O5    O     O_R   0.499990 0.618780 0.371460 -0.565469
O6    O     O_R   0.500010 0.381220 0.628540 -0.564660
O7    O     O_R   0.500010 0.618780 0.628540 -0.565486
O8    O     O_R   0.499990 0.381220 0.371460 -0.564643
C3    C     C_R   0.499958 0.499988 0.329997 0.932813
C4    C     C_R   0.500042 0.499988 0.670002 0.932890
Cu1   Cu    Cu3+1 0.500000 0.640660 0.500000 1.035457
Cu2   Cu    Cu3+1 0.500000 0.359340 0.500000 1.031222
H1    H     H_    0.359814 0.130551 0.402144 0.167304
H2    H     H_    0.640215 0.869480 0.597823 0.136153
H3    H     H_    0.640186 0.130551 0.597855 0.167261
H4    H     H_    0.359785 0.869480 0.402177 0.136151
C5    C     C_R   0.422156 0.074432 0.445672 0.004811
C6    C     C_R   0.577852 0.925586 0.554316 0.014535
C7    C     C_R   0.577844 0.074432 0.554327 0.004779
C8    C     C_R   0.422148 0.925586 0.445684 0.014557
C9    C     C_R   0.063860 0.372312 0.499918 -0.116098
C10   C     C_R   0.936140 0.627684 0.500045 -0.117213
C11   C     C_R   0.936140 0.372312 0.500075 -0.116123
C12   C     C_R   0.063860 0.627684 0.499946 -0.117242
C13   C     C_R   0.589229 0.576143 0.094051 -0.176981
C14   C     C_R   0.589260 0.422871 0.906167 -0.173365
C15   C     C_R   0.410726 0.576075 0.905947 -0.176973
C16   C     C_R   0.410785 0.422803 0.093831 -0.173369
C17   C     C_R   0.591025 0.576721 0.186551 0.289741
C18   C     C_R   0.591124 0.422775 0.813667 0.293220
C19   C     C_R   0.408932 0.576654 0.813447 0.289727
C20   C     C_R   0.408923 0.422707 0.186331 0.293263
C21   C     C_R   0.499929 0.499885 0.233248 -0.270718
C22   C     C_R   0.500073 0.499885 0.766751 -0.270711
C23   C     C_R   0.500028 0.499364 0.048205 -0.004874
C24   C     C_R   0.499972 0.499364 0.951794 -0.004875
C25   C     C_R   0.871787 0.499998 0.500099 0.007132
C26   C     C_R   0.128213 0.499998 0.499894 0.007134
H5    H     H_    0.658710 0.633856 0.057473 0.197610
H6    H     H_    0.658752 0.365028 0.942918 0.198408
H7    H     H_    0.341212 0.633737 0.942525 0.197613
H8    H     H_    0.341327 0.364906 0.057082 0.198400
N3    N     N_R   0.687918 0.651741 0.231595 0.139312
O9    O     O_R   0.745842 0.594330 0.297960 -0.371264
O10   O     O_R   0.730968 0.767868 0.198236 -0.317500
N4    N     N_R   0.687927 0.347804 0.768849 0.128067
O11   O     O_R   0.745808 0.405303 0.702713 -0.386700
O12   O     O_R   0.730697 0.231323 0.802065 -0.331155
N5    N     N_R   0.312000 0.651607 0.768402 0.139299
O13   O     O_R   0.254119 0.594165 0.702029 -0.371276
O14   O     O_R   0.268878 0.767697 0.801765 -0.317491
N6    N     N_R   0.312163 0.347663 0.231150 0.128068
O15   O     O_R   0.254224 0.405136 0.297268 -0.386698
O16   O     O_R   0.269491 0.231124 0.197949 -0.331188
H9    H     H_    0.111915 0.272491 0.499820 0.160526
H10   H     H_    0.888085 0.727505 0.500056 0.161172
H11   H     H_    0.888085 0.272491 0.500175 0.160524
H12   H     H_    0.111915 0.727505 0.499934 0.161165

loop_
_geom_bond_atom_site_label_1
_geom_bond_atom_site_label_2
_geom_bond_distance
_ccdc_geom_bond_type
C9    C26   1.400954 A    
O4    Cu2   1.964444 S    
N4    O12   1.301449 A    
O1    Cu1   1.964444 S    
C19   N5    1.438555 S    
C4    C22   1.460308 S    
O2    Cu2   1.964443 S    
C11   C25   1.400954 A    
C10   C12   1.383229 A    
N3    O9    1.300830 A    
N1    Cu1   2.012155 S    
C13   C23   1.393776 A    
H2    C6    1.081765 S    
N4    O11   1.300868 A    
O5    Cu1   1.951299 S    
C14   C24   1.393900 A    
N3    O10   1.301451 A    
O6    Cu2   1.951299 S    
N5    O13   1.300830 A    
C13   H5    1.083984 S    
O8    C3    1.292082 A    
C14   H6    1.083976 S    
N1    C8    1.367089 A    
O7    Cu1   1.951299 S    
C3    C21   1.460315 S    
O4    C1    1.290778 A    
C20   N6    1.438645 S    
N2    C7    1.367057 A    
C16   C20   1.396376 A    
C12   C26   1.400956 A    
C20   C21   1.417313 A    
N6    O16   1.301447 A    
C17   C21   1.417275 A    
N5    O14   1.301460 A    
O6    C4    1.292077 A    
C17   N3    1.438558 S    
O7    C4    1.292284 A    
C15   C19   1.396265 A    
C18   N4    1.438651 S    
C9    C11   1.383236 A    
N6    O15   1.300870 A    
C5    C8    1.416684 A    
N2    Cu2   2.012156 S    
Cu1   Cu2   2.677543 S    
C13   C17   1.396266 A    
C19   C22   1.417273 A    
O3    Cu1   1.964443 S    
C2    C25   1.449568 S    
C10   H10   1.083289 S    
O3    C2    1.290792 A    
C15   H7    1.083984 S    
C1    C26   1.449568 S    
O2    C2    1.290778 A    
C23   C24   1.455205 S    
C16   C23   1.393900 A    
C14   C18   1.396378 A    
H3    C7    1.081876 S    
O5    C3    1.292288 A    
C9    H9    1.083289 S    
O1    C1    1.290792 A    
C15   C24   1.393777 A    
C18   C22   1.417314 A    
N2    C5    1.367060 A    
C16   H8    1.083975 S    
H4    C8    1.081766 S    
C6    C7    1.416685 A    
H1    C5    1.081875 S    
N1    C6    1.367088 A    
O8    Cu2   1.951299 S    
C10   C25   1.400956 A    
C12   H12   1.083288 S    
C11   H11   1.083289 S    
