data_mof_unit_68028.cif
_audit_creation_date              2012-12-11T14:03:36-0500
_audit_creation_method            fapswitch 2.2
_symmetry_space_group_name_H-M    P1
_symmetry_Int_Tables_number       1
_space_group_crystal_system       triclinic
_cell_length_a                    7.017081
_cell_length_b                    11.355308
_cell_length_c                    18.607871
_cell_angle_alpha                 90.091424
_cell_angle_beta                  92.890717
_cell_angle_gamma                 89.817744
_cell_volume                      1480.80023745

loop_
_atom_site_label
_atom_site_type_symbol
_atom_type_description
_atom_site_fract_x
_atom_site_fract_y
_atom_site_fract_z
_atom_type_partial_charge
O1    O     O_R   0.330540 0.606360 0.598870 -0.544793
O2    O     O_R   0.669460 0.106360 0.401130 -0.544644
O3    O     O_R   0.026770 0.620470 0.750430 -0.528330
O4    O     O_R   0.973230 0.120470 0.249570 -0.529985
O5    O     O_R   0.856460 0.393640 0.750930 -0.535718
O6    O     O_R   0.143540 0.893640 0.249070 -0.535201
C1    C     C_R   0.199281 0.648374 0.775105 0.786823
C2    C     C_R   0.799695 0.149027 0.225408 0.785128
O7    O     O_R   0.000920 0.620350 0.599420 -0.538594
O8    O     O_R   0.999080 0.120350 0.400580 -0.541030
O9    O     O_R   0.830430 0.393520 0.598850 -0.510891
O10   O     O_R   0.169570 0.893520 0.401150 -0.510139
C3    C     C_R   0.166005 0.647460 0.574720 0.725278
C4    C     C_R   0.833771 0.147804 0.425040 0.718365
O11   O     O_R   0.356570 0.606480 0.750960 -0.531366
O12   O     O_R   0.643430 0.106480 0.249040 -0.530805
O13   O     O_3   0.176990 0.425580 0.674890 -0.373588
O14   O     O_3   0.823010 0.925580 0.325110 -0.373626
V1    V     V_3+5 0.902170 0.513810 0.674910 1.464476
V2    V     V_3+5 0.097830 0.013810 0.325090 1.462339
O15   O     O_R   0.500800 0.379530 0.599380 -0.556642
O16   O     O_R   0.499200 0.879530 0.400620 -0.559425
C5    C     C_R   0.666845 0.354768 0.573387 0.761729
C6    C     C_R   0.333315 0.854917 0.426753 0.757125
O17   O     O_R   0.526650 0.379650 0.750390 -0.556159
O18   O     O_R   0.473350 0.879650 0.249610 -0.552309
C7    C     C_R   0.697952 0.348527 0.773041 0.739148
C8    C     C_R   0.302942 0.846598 0.227735 0.744873
V3    V     V_3+5 0.402160 0.486190 0.674900 1.416354
V4    V     V_3+5 0.597840 0.986190 0.325100 1.419556
O19   O     O_3   0.677210 0.574420 0.674910 -0.366360
O20   O     O_3   0.322790 0.074420 0.325090 -0.366248
C9    C     C_R   0.685617 0.063905 0.882217 0.273429
C10   C     C_R   0.296720 0.556293 0.119278 0.268596
H1    H     H_    0.614807 0.949524 0.005406 0.168567
H2    H     H_    0.355314 0.441484 0.993588 0.163607
C11   C     C_R   0.708449 0.261563 0.832238 -0.115665
C12   C     C_R   0.295361 0.756422 0.169520 -0.136339
C13   C     C_R   0.772816 0.357784 0.183806 0.047248
C14   C     C_R   0.208112 0.857536 0.819099 0.026519
C15   C     C_R   0.759852 0.442890 0.128246 0.336455
C16   C     C_R   0.213004 0.941289 0.876812 0.336069
C17   C     C_R   0.754828 0.406153 0.055103 0.025677
C18   C     C_R   0.220635 0.899465 0.949182 0.030120
C19   C     C_R   0.727132 0.283707 0.036481 0.036072
C20   C     C_R   0.256489 0.777422 0.965663 0.047106
C21   C     C_R   0.727809 0.201374 0.094767 0.036165
C22   C     C_R   0.258738 0.697282 0.906520 0.029134
C23   C     C_R   0.704654 0.236767 0.963791 0.075535
C24   C     C_R   0.281510 0.729386 0.037888 0.074117
C25   C     C_R   0.684104 0.113227 0.952566 0.076974
C26   C     C_R   0.293514 0.605462 0.048577 0.071587
C27   C     C_R   0.652237 0.041272 0.011605 -0.127649
C28   C     C_R   0.319573 0.533627 0.988608 -0.112187
C29   C     C_R   0.678909 0.083324 0.080918 -0.122302
C30   C     C_R   0.299636 0.577760 0.919600 -0.126740
C31   C     C_R   0.687574 0.306764 0.901542 -0.260900
C32   C     C_R   0.311726 0.799346 0.099708 -0.256432
C33   C     C_R   0.711172 0.137282 0.822022 0.224279
C34   C     C_R   0.294042 0.631820 0.180487 0.223771
C35   C     C_R   0.773732 0.237318 0.166597 -0.189291
C36   C     C_R   0.220203 0.736009 0.834820 -0.172805
H3    H     H_    0.639031 0.395636 0.904394 0.166382
H4    H     H_    0.366646 0.886725 0.095376 0.165031
H5    H     H_    0.664558 0.020238 0.123756 0.124054
H6    H     H_    0.314212 0.515211 0.876309 0.115494
C37   C     C_2   0.836434 0.236077 0.483185 0.112520
C38   C     C_2   0.163119 0.734691 0.515966 0.112806
C39   C     C_2   0.672335 0.269891 0.513354 -0.361711
C40   C     C_2   0.327787 0.770230 0.486928 -0.364220
H7    H     H_    0.536678 0.233010 0.493835 0.120919
H8    H     H_    0.463952 0.735239 0.507653 0.121375
N1    N     N_2   0.726771 0.079696 0.753635 -0.546405
H9    H     H_    0.801009 0.001169 0.753968 0.294268
C41   C     C_3   0.706888 0.137251 0.684731 -0.533302
H10   H     H_    0.704754 0.069856 0.641363 0.198056
H11   H     H_    0.830980 0.195228 0.677240 0.201661
H12   H     H_    0.569173 0.185137 0.679527 0.202350
N2    N     N_2   0.299462 0.576119 0.250142 -0.521378
H13   H     H_    0.226763 0.497703 0.253679 0.275182
C42   C     C_3   0.322246 0.637882 0.317561 -0.498300
H14   H     H_    0.333934 0.573152 0.362295 0.191728
H15   H     H_    0.194693 0.693171 0.325669 0.185855
H16   H     H_    0.456864 0.688611 0.319675 0.212239
N3    N     N_2   0.629342 0.944115 0.869742 -0.549552
H17   H     H_    0.561555 0.927384 0.820504 0.298010
C43   C     C_3   0.757969 0.850066 0.891580 -0.510779
H18   H     H_    0.843752 0.823962 0.845871 0.212235
H19   H     H_    0.672668 0.772826 0.906729 0.231344
H20   H     H_    0.851318 0.874826 0.938542 0.232829
N4    N     N_2   0.340256 0.433715 0.130518 -0.538354
H21   H     H_    0.409023 0.410085 0.178375 0.304865
C44   C     C_3   0.214933 0.342824 0.101959 -0.531574
H22   H     H_    0.138744 0.302213 0.146224 0.216371
H23   H     H_    0.302012 0.273574 0.077146 0.231302
H24   H     H_    0.112677 0.376989 0.060385 0.230851
I1    I     I_    0.749515 0.405456 0.294811 -0.515673
I2    I     I_    0.197528 0.899807 0.705948 -0.543107
I3    I     I_    0.831220 0.545615 0.983243 -0.560378
I4    I     I_    0.132612 0.029164 0.026421 -0.547313
N5    N     N_2   0.717192 0.563605 0.144215 -0.495950
H25   H     H_    0.649942 0.613012 0.104287 0.280346
C45   C     C_3   0.840733 0.633467 0.191225 -0.434588
H26   H     H_    0.910746 0.702094 0.159492 0.192280
H27   H     H_    0.948873 0.578680 0.219428 0.217886
H28   H     H_    0.754400 0.677876 0.231697 0.216921
N6    N     N_2   0.215626 0.067735 0.867620 -0.497542
H29   H     H_    0.298904 0.111353 0.906159 0.279536
C46   C     C_3   0.212952 0.130895 0.800375 -0.464168
H30   H     H_    0.211575 0.227133 0.811330 0.187789
H31   H     H_    0.082159 0.112099 0.767555 0.238674
H32   H     H_    0.342621 0.111352 0.771189 0.226628
N7    N     N_2   0.017164 0.283029 0.507551 -0.480787
H33   H     H_    0.122426 0.220066 0.515457 0.245220
C47   C     C_3   0.080058 0.382091 0.466122 -0.445636
H34   H     H_    0.213691 0.418164 0.491778 0.172331
H35   H     H_    0.970314 0.453002 0.464229 0.194179
H36   H     H_    0.109030 0.353954 0.410477 0.196881
N8    N     N_2   0.981625 0.778253 0.489492 -0.480817
H37   H     H_    0.880316 0.713422 0.480900 0.243676
C48   C     C_3   0.910177 0.876899 0.529589 -0.445542
H38   H     H_    0.779272 0.912208 0.501420 0.176967
H39   H     H_    0.017737 0.948551 0.533818 0.195084
H40   H     H_    0.873592 0.848460 0.584276 0.198893

loop_
_geom_bond_atom_site_label_1
_geom_bond_atom_site_label_2
_ccdc_geom_bond_type
C43   H18   S    
C34   N2    S    
C44   H22   S    
H1    C27   S    
O13   V3    S    
N1    H9    S    
C5    C39   S    
O4    C2    A    
V1    O19   S    
C42   H14   S    
C6    C40   S    
C13   C15   A    
N3    H17   S    
O9    V1    S    
N5    H25   S    
C17   I3    S    
O3    C1    A    
C46   H31   S    
C38   N8    S    
C14   I2    S    
C13   I1    S    
O12   V4    S    
C47   H34   S    
C14   C36   A    
C19   C21   A    
C39   H7    S    
O7    C3    A    
C10   N4    S    
C48   H40   S    
C9    N3    S    
C42   H15   S    
O5    C7    A    
O7    V1    S    
O6    C8    A    
C18   C20   A    
C23   C25   A    
C24   C26   A    
C4    C37   S    
O3    V1    S    
O14   V4    S    
C8    C12   S    
C16   N6    S    
C33   N1    S    
C2    C35   S    
N3    C43   S    
C9    C33   A    
N5    C45   S    
C12   C32   A    
C10   C34   A    
N6    C46   S    
C16   C18   A    
C29   H5    S    
C26   C28   A    
O11   V3    S    
C20   C22   A    
C27   C29   A    
O17   V3    S    
C13   C35   A    
C28   C30   A    
C24   C32   A    
O8    C4    A    
C46   H32   S    
O8    V2    S    
N4    H21   S    
N2    C42   S    
C1    O11   A    
C32   H4    S    
C47   H35   S    
O15   V3    S    
C9    C25   A    
C37   C39   D    
C41   H10   S    
C1    C36   S    
N4    C44   S    
C41   H11   S    
C22   C36   A    
C19   C23   A    
N6    H29   S    
C47   H36   S    
O10   V2    S    
O1    V3    S    
C45   H27   S    
C17   C19   A    
C48   H38   S    
C11   C33   A    
N8    C48   S    
C12   C34   A    
C38   C40   D    
O18   V4    S    
C44   H24   S    
O15   C5    A    
O16   C6    A    
O1    C3    A    
N1    C41   S    
C42   H16   S    
C21   C29   A    
N7    H33   S    
V2    O20   S    
C22   C30   A    
O10   C6    A    
O16   V4    S    
O18   C8    A    
C15   C17   A    
C31   H3    S    
C14   C16   A    
C21   C35   A    
C23   C31   A    
N8    H37   S    
O5    V1    S    
O17   C7    A    
O6    V2    S    
C20   C24   A    
C10   C26   A    
O2    V4    S    
C43   H19   S    
C37   N7    S    
V3    O19   S    
C46   H30   S    
V4    O20   S    
C18   I4    S    
C44   H23   S    
C7    C11   S    
C30   H6    S    
O9    C5    A    
O13   V1    S    
C15   N5    S    
C45   H28   S    
O14   V2    S    
O2    C4    A    
C41   H12   S    
C48   H39   S    
H2    C28   S    
N2    H13   S    
O4    V2    S    
C2    O12   A    
C43   H20   S    
C45   H26   S    
C40   H8    S    
C25   C27   A    
C11   C31   A    
N7    C47   S    
C3    C38   S    
