data_mof_unit_7090.cif
_audit_creation_date              2012-12-10T20:36:39-0500
_audit_creation_method            fapswitch 2.2
_symmetry_space_group_name_H-M    P1
_symmetry_Int_Tables_number       1
_space_group_crystal_system       triclinic
_cell_length_a                    10.568725
_cell_length_b                    10.836127
_cell_length_c                    9.959031
_cell_angle_alpha                 89.6664
_cell_angle_beta                  92.851955
_cell_angle_gamma                 89.51613
_cell_volume                      1139.07300552

loop_
_atom_site_label
_atom_site_type_symbol
_atom_type_description
_atom_site_fract_x
_atom_site_fract_y
_atom_site_fract_z
_atom_type_partial_charge
C1    C     C_R   0.502380 0.260183 0.499913 0.911789
C2    C     C_R   0.505127 0.934643 0.616675 -0.006054
C3    C     C_3   0.421839 0.926299 0.735374 0.377166
C4    C     C_R   0.258048 0.510437 0.498410 0.860068
C5    C     C_3   0.421319 0.070332 0.734093 0.368299
C6    C     C_R   0.388852 0.513269 0.063159 0.110568
C7    C     C_R   0.610078 0.502207 0.077058 -0.118407
C8    C     C_R   0.610173 0.501516 0.934027 -0.141617
C9    C     C_R   0.390898 0.510723 0.921542 0.143733
C10   C     C_3   0.283407 0.428420 0.899643 -0.525163
C11   C     C_3   0.271507 0.431822 0.050968 0.324980
C12   C     C_3   0.948139 0.614661 0.510737 0.178746
C13   C     C_R   0.497399 0.739389 0.498933 0.905881
C14   C     C_R   0.742167 0.491098 0.503129 0.877499
C15   C     C_3   0.054007 0.389346 0.504829 -0.196089
C16   C     C_3   0.958789 0.442621 0.397624 0.232819
C17   C     C_3   0.877657 0.491289 0.509443 -0.102646
C18   C     C_3   0.972174 0.438787 0.618192 -0.228679
C19   C     C_3   0.045281 0.562377 0.617162 -0.195525
C20   C     C_3   0.968758 0.249251 0.268532 -0.846707
C21   C     C_3   0.619037 0.839904 0.863120 -0.768150
C22   C     C_3   0.195334 0.127212 0.780541 -0.832492
C23   C     C_3   0.026721 0.566430 0.396777 0.237212
C24   C     C_3   0.487785 0.133989 0.856212 -0.874909
C25   C     C_3   0.037675 0.453839 0.020682 -0.727243
C26   C     C_3   0.288779 0.306361 0.121131 -0.800357
C27   C     C_3   0.885330 0.740843 0.525160 -0.928505
C28   C     C_3   0.954612 0.706534 0.212793 -0.828208
C29   C     C_3   0.671762 0.149747 0.225908 -0.782718
C30   C     C_3   0.363596 0.859951 0.198231 -0.785768
C31   C     C_3   0.292981 0.863932 0.704078 -0.935064
C32   C     C_3   0.122825 0.513391 0.500706 -0.120444
C33   C     C_R   0.507542 0.060935 0.617767 -0.072949
C34   C     C_R   0.512204 0.127684 0.497791 -0.209031
C35   C     C_R   0.523371 0.063726 0.374790 0.153316
C36   C     C_R   0.509239 0.935942 0.372746 0.140574
C37   C     C_R   0.500554 0.871199 0.495635 -0.193855
H1    H     H_    0.699286 0.505146 0.133487 0.133790
H2    H     H_    0.940276 0.189612 0.352735 0.235582
H3    H     H_    0.073357 0.252899 0.269378 0.262995
H4    H     H_    0.448463 0.897688 0.944874 0.225273
H5    H     H_    0.646212 0.801546 0.964210 0.223411
H6    H     H_    0.677537 0.922109 0.845453 0.219598
H7    H     H_    0.641004 0.768748 0.788471 0.273910
H8    H     H_    0.272047 0.123325 0.591424 0.204437
H9    H     H_    0.146371 0.218177 0.776771 0.246395
H10   H     H_    0.226954 0.105747 0.885889 0.244747
H11   H     H_    0.124393 0.058214 0.745372 0.234222
H12   H     H_    0.699514 0.501310 0.885594 0.146306
H13   H     H_    0.436049 0.114975 0.947508 0.204789
H14   H     H_    0.587030 0.102543 0.873898 0.224857
H15   H     H_    0.491667 0.234820 0.841657 0.269530
H16   H     H_    0.163867 0.591268 0.074002 0.220540
H17   H     H_    0.956797 0.488813 0.075398 0.262035
H18   H     H_    0.034246 0.351741 0.017173 0.251312
H19   H     H_    0.023160 0.491795 0.917557 0.192488
H20   H     H_    0.216026 0.240401 0.083201 0.206557
H21   H     H_    0.383074 0.268159 0.100751 0.224238
H22   H     H_    0.282386 0.316104 0.231152 0.264910
H23   H     H_    0.208466 0.475428 0.837144 0.206709
H24   H     H_    0.956823 0.814426 0.515864 0.238415
H25   H     H_    0.807838 0.753659 0.446887 0.247400
H26   H     H_    0.844323 0.747292 0.625371 0.242578
H27   H     H_    0.136027 0.696783 0.303160 0.211196
H28   H     H_    0.980061 0.726141 0.108101 0.235957
H29   H     H_    0.936550 0.796246 0.261691 0.241837
H30   H     H_    0.866994 0.650545 0.209656 0.249587
H31   H     H_    0.489889 0.095193 0.169538 0.217780
H32   H     H_    0.718612 0.195794 0.313867 0.257650
H33   H     H_    0.677059 0.210802 0.136450 0.239795
H34   H     H_    0.312444 0.338366 0.860073 0.235803
H35   H     H_    0.721478 0.061300 0.206720 0.220219
H36   H     H_    0.555273 0.898763 0.174271 0.221671
H37   H     H_    0.326095 0.948001 0.153967 0.207031
H38   H     H_    0.303422 0.831951 0.281192 0.235592
H39   H     H_    0.357806 0.786876 0.120639 0.235780
H40   H     H_    0.230830 0.877048 0.789379 0.234790
H41   H     H_    0.245607 0.900323 0.609787 0.220516
H42   H     H_    0.304201 0.762897 0.693769 0.263660
H43   H     H_    0.102801 0.298138 0.506536 0.147320
H44   H     H_    0.946243 0.385523 0.708118 0.150694
H45   H     H_    0.083485 0.615189 0.705071 0.144708
H46   H     H_    0.821140 0.377536 0.255788 0.234145
H47   H     H_    0.934177 0.207972 0.171939 0.240199
N1    N     N_R   0.499140 0.499140 0.142800 -0.097371
N2    N     N_R   0.499140 0.499180 0.857150 -0.098195
N3    N     N_2   0.916112 0.372210 0.280769 -0.302219
N4    N     N_2   0.484659 0.870565 0.855734 -0.278202
N5    N     N_2   0.300205 0.129530 0.691874 -0.274134
N6    N     N_2   0.156163 0.496882 0.084287 -0.232962
N7    N     N_2   0.058511 0.641745 0.283403 -0.286406
N8    N     N_2   0.541000 0.127761 0.252012 -0.277394
N9    N     N_2   0.494128 0.873993 0.246974 -0.270049
O1    O     O_R   0.500020 0.316790 0.614690 -0.613136
O2    O     O_R   0.500000 0.316760 0.385350 -0.591583
O3    O     O_R   0.313960 0.499990 0.614650 -0.621184
O4    O     O_R   0.313940 0.499950 0.385310 -0.619834
O5    O     O_R   0.500000 0.683240 0.614650 -0.618497
O6    O     O_R   0.499980 0.683210 0.385310 -0.580793
O7    O     O_R   0.686060 0.500050 0.614690 -0.624468
O8    O     O_R   0.686040 0.500010 0.385350 -0.650212
Zn1   Zn    Zn3+2 0.500010 0.500020 0.653130 0.934418
Zn2   Zn    Zn3+2 0.499990 0.499980 0.346870 0.947194

loop_
_geom_bond_atom_site_label_1
_geom_bond_atom_site_label_2
_ccdc_geom_bond_type
C24   H15   S    
C15   C18   S    
H46   N3    S    
O3    Zn1   S    
O6    Zn2   S    
C35   C36   A    
C11   N6    S    
C25   H19   S    
H36   N9    S    
C6    C9    A    
C7    C8    A    
C12   C23   S    
C25   N6    S    
C6    N1    A    
C36   C37   A    
C18   C19   S    
C30   N9    S    
C20   H3    S    
C15   C16   S    
C20   N3    S    
C18   H44   S    
C34   C35   A    
C13   O5    A    
C27   H24   S    
C21   H6    S    
C36   N9    S    
C7    H1    S    
C1    O1    A    
C5    C33   S    
C12   C17   S    
C16   N3    S    
C19   H45   S    
H8    N5    S    
C9    C10   S    
C13   C37   S    
N1    Zn2   S    
C29   H35   S    
C10   H34   S    
C24   H14   S    
C22   H10   S    
C21   N4    S    
O8    Zn2   S    
C4    O3    A    
C4    O4    A    
C14   C17   S    
C19   C32   S    
O2    Zn2   S    
C1    C34   S    
C31   H40   S    
C29   H32   S    
C24   H13   S    
C12   C27   S    
C15   C32   S    
C28   H30   S    
C25   H17   S    
C6    C11   S    
C20   H2    S    
C16   C17   S    
C14   O8    A    
C11   C26   S    
O5    Zn1   S    
C13   O6    A    
C28   H29   S    
C27   H25   S    
C9    N2    A    
C21   H7    S    
C30   H39   S    
C15   H43   S    
C1    O2    A    
O7    Zn1   S    
C17   C18   S    
C14   O7    A    
O4    Zn2   S    
C3    C31   S    
C26   H21   S    
C4    C32   S    
C27   H26   S    
C2    C33   A    
C22   H9    S    
C22   H11   S    
C16   C23   S    
C20   H47   S    
C23   N7    S    
N2    Zn1   S    
C31   H41   S    
C29   H33   S    
C26   H22   S    
H4    N4    S    
C10   H23   S    
C3    N4    S    
C25   H18   S    
C3    C5    S    
C31   H42   S    
C23   C32   S    
C2    C3    S    
C35   N8    S    
C30   H38   S    
C2    C37   A    
C7    N1    A    
C5    C24   S    
C30   H37   S    
C12   C19   S    
H31   N8    S    
C22   N5    S    
C33   C34   A    
C28   H28   S    
C28   N7    S    
C8    N2    A    
C26   H20   S    
C10   C11   S    
C21   H5    S    
O1    Zn1   S    
H16   N6    S    
H27   N7    S    
C8    H12   S    
C29   N8    S    
C5    N5    S    
