data_mof_unit_9131.cif
_audit_creation_date              2013-03-05T16:07:29-0500
_audit_creation_method            fapswitch 2.2
_symmetry_space_group_name_H-M    P1
_symmetry_Int_Tables_number       1
_space_group_crystal_system       triclinic
_cell_length_a                    8.355084
_cell_length_b                    15.044567
_cell_length_c                    18.797142
_cell_angle_alpha                 101.747318
_cell_angle_beta                  91.975944
_cell_angle_gamma                 98.751445
_cell_volume                      2281.11755456

loop_
_atom_site_label
_atom_site_type_symbol
_atom_site_description
_atom_site_fract_x
_atom_site_fract_y
_atom_site_fract_z
_atom_type_partial_charge
P1    P     P_3+3 0.039440 0.410950 0.333260 0.566508
O1    O     O_2   0.871970 0.437290 0.322980 -0.336884
O2    O     O_3   0.121420 0.444460 0.412460 -0.360173
O3    O     O_3   0.661430 0.607560 0.372520 -0.336821
O4    O     O_2   0.734391 0.521729 0.245552 -0.411740
O5    O     O_3   0.039084 0.290086 0.298392 -0.579369
O6    O     O_3   0.742319 0.696082 0.256096 -0.537772
C1    C     C_3   0.697690 0.807700 0.186606 -0.883326
H1    H     H_    0.818127 0.851100 0.203688 0.278437
H2    H     H_    0.708623 0.756433 0.136157 0.204701
P2    P     P_3+3 0.676740 0.714970 0.563520 0.491212
P3    P     P_3+3 0.128929 0.775122 0.416387 0.522800
O7    O     O_2   0.852280 0.726960 0.542370 -0.362581
O8    O     O_3   0.083990 0.657360 0.410240 -0.402528
O9    O     O_2   0.004932 0.821068 0.464064 -0.311479
O10   O     O_3   0.690359 0.752507 0.658265 -0.530660
O11   O     O_3   0.089695 0.796144 0.329818 -0.454954
C2    C     C_3   0.161403 0.734548 0.279137 0.491259
H3    H     H_    0.087703 0.664618 0.269710 0.107544
H4    H     H_    0.287776 0.731607 0.298018 0.012683
C3    C     C_3   0.167089 0.766288 0.207305 -0.896012
H5    H     H_    0.042096 0.764050 0.184277 0.264146
H6    H     H_    0.234465 0.837658 0.215910 0.296190
C4    C     C_3   0.252509 0.742201 0.627599 0.278507
H7    H     H_    0.369845 0.718757 0.616769 0.107693
H8    H     H_    0.167060 0.718828 0.578384 0.131806
C5    C     C_3   0.279014 0.846789 0.647403 -0.674349
H9    H     H_    0.354499 0.872173 0.699493 0.280085
H10   H     H_    0.341437 0.876533 0.604704 0.194671
H11   H     H_    0.159723 0.870397 0.653138 0.295269
Ba1   Ba    Ba6+2 0.853510 0.540900 0.466480 1.660473
C6    C     C_3   0.955068 0.224506 0.333857 0.784141
C7    C     C_3   0.998221 0.126260 0.304748 0.508738
H12   H     H_    0.931316 0.096635 0.250894 0.125581
C8    C     C_3   0.736035 0.684368 0.691359 0.420301
H13   H     H_    0.856689 0.670088 0.674323 0.088488
H14   H     H_    0.644322 0.620635 0.677419 0.096833
C9    C     C_3   0.746998 0.719842 0.773504 -0.934887
H15   H     H_    0.836811 0.784202 0.788722 0.293961
H16   H     H_    0.785767 0.668347 0.801976 0.193102
H17   H     H_    0.626542 0.734032 0.791644 0.258275
P4    P     P_3+3 0.150270 0.589130 0.666750 0.477374
O12   O     O_2   0.317740 0.562750 0.677070 -0.368955
O13   O     O_3   0.068290 0.555610 0.587550 -0.403291
O14   O     O_3   0.528280 0.392520 0.627490 -0.359922
O15   O     O_3   0.189141 0.709501 0.686811 -0.568776
P5    P     P_3+3 0.060594 0.225478 0.592000 0.674636
O16   O     O_3   0.609300 0.386850 0.459730 -0.402217
O17   O     O_3   0.105720 0.342720 0.589770 -0.284951
O18   O     O_2   0.159808 0.179597 0.531241 -0.267356
O19   O     O_3   0.160818 0.201967 0.668731 -0.449403
Ba2   Ba    Ba6+2 0.336320 0.459170 0.533530 1.679676
P6    P     P_3+3 0.635169 0.596548 0.278610 0.450375
C10   C     C_3   0.638147 0.759283 0.247059 0.854655
H18   H     H_    0.511420 0.725992 0.230548 -0.108053
H19   H     H_    0.610570 0.852333 0.174308 0.256246
O20   O     O_3   0.580410 0.613230 0.540280 -0.425106
C11   C     C_3   0.440215 0.323525 0.313936 0.343436
H20   H     H_    0.322667 0.336681 0.334185 0.079137
H21   H     H_    0.530538 0.386192 0.335987 0.064931
C12   C     C_3   0.433489 0.311422 0.229670 -0.020774
H22   H     H_    0.341468 0.349869 0.212758 0.062029
H23   H     H_    0.549924 0.344634 0.213324 0.145167
P7    P     P_3+3 0.515206 0.271550 0.433137 0.557356
O21   O     O_2   0.337420 0.273080 0.457680 -0.320867
O22   O     O_3   0.481567 0.246431 0.337882 -0.428859
H24   H     H_    0.229683 0.720498 0.167691 0.207114
C13   C     C_3   0.066217 0.208644 0.729514 0.634228
H25   H     H_    0.937750 0.178031 0.713218 -0.041589
C14   C     C_3   0.130675 0.155997 0.783542 0.114244
H26   H     H_    0.261171 0.182485 0.799198 0.160436
H27   H     H_    0.062392 0.165660 0.833468 0.094169
P8    P     P_3+3 0.550973 0.412336 0.722842 0.508682
C15   C     C_3   0.603608 0.247701 0.733481 0.821600
H28   H     H_    0.705197 0.273978 0.702595 -0.050308
O23   O     O_2   0.418847 0.468069 0.753068 -0.337379
O24   O     O_3   0.489542 0.307805 0.749318 -0.523346
H29   H     H_    0.744177 0.174543 0.796127 0.251526
C16   C     C_3   0.675956 0.233064 0.805560 -0.957979
H30   H     H_    0.578029 0.218208 0.842067 0.278081
H31   H     H_    0.760790 0.295452 0.833399 0.245342
C17   C     C_R   0.976613 0.491457 0.053345 -0.015623
C18   C     C_R   0.883846 0.439096 0.095912 -0.253729
C19   C     C_R   0.749353 0.473090 0.959804 -0.199927
C20   C     C_R   0.915433 0.499317 0.983372 0.082978
C21   C     C_R   0.695142 0.467611 0.888010 -0.187889
C22   C     C_R   0.803356 0.490121 0.836692 -0.009988
C23   C     C_R   0.966661 0.528460 0.860914 0.074976
C24   C     C_R   0.023248 0.532677 0.934552 0.060310
C25   C     C_R   0.753457 0.475059 0.761861 0.136470
C26   C     C_R   0.862946 0.503238 0.713020 -0.423711
C27   C     C_R   0.021717 0.546824 0.736200 0.293796
C28   C     C_R   0.074097 0.560760 0.811271 0.006679
C29   C     C_R   0.141511 0.524181 0.076689 0.047767
C30   C     C_R   0.201065 0.516653 0.147536 -0.006209
C31   C     C_R   0.100337 0.468552 0.192076 -0.176652
C32   C     C_R   0.953277 0.415416 0.157050 0.413690
H32   H     H_    0.823820 0.490981 0.655873 0.149258
H33   H     H_    0.567310 0.444015 0.873217 0.201702
C33   C     C_R   0.230376 0.605441 0.838505 -0.062792
C34   C     C_R   0.286715 0.608004 0.909707 -0.183392
C35   C     C_R   0.188060 0.567633 0.958116 0.057111
C36   C     C_R   0.248186 0.561723 0.028985 0.075967
C37   C     C_R   0.414377 0.585742 0.051999 -0.196646
C38   C     C_R   0.365427 0.550548 0.171017 0.026035
C39   C     C_R   0.471270 0.579127 0.120737 -0.198658
C40   C     C_R   0.420210 0.553805 0.243609 0.108759
C41   C     C_R   0.312482 0.519810 0.291205 -0.534821
C42   C     C_R   0.156002 0.472321 0.266847 0.249050
H34   H     H_    0.312948 0.638059 0.805065 0.157556
H35   H     H_    0.600531 0.596786 0.133687 0.162654
H36   H     H_    0.356308 0.523314 0.346701 0.170296
H37   H     H_    0.657524 0.456257 0.996035 0.149244
H38   H     H_    0.766847 0.400616 0.074447 0.172736
H39   H     H_    0.408954 0.643127 0.925377 0.125500
H40   H     H_    0.505431 0.607976 0.017357 0.133227
C43   C     C_R   0.337924 0.820120 0.455451 0.134586
H41   H     H_    0.368499 0.687526 0.475350 0.167264
H42   H     H_    0.205762 0.953543 0.410100 0.211745
C44   C     C_R   0.578337 0.788627 0.514424 0.288857
C45   C     C_R   0.750387 0.232533 0.529723 -0.349818
C46   C     C_R   0.843646 0.177345 0.559778 0.072085
C47   C     C_R   0.783115 0.083760 0.553687 0.218891
C48   C     C_R   0.635541 0.041954 0.510152 0.022776
C49   C     C_R   0.549497 0.099848 0.476423 0.009423
C50   C     C_R   0.567782 0.945592 0.498813 0.086719
C51   C     C_R   0.408773 0.913612 0.464215 0.017118
C52   C     C_R   0.325877 0.974519 0.436781 -0.034496
C53   C     C_R   0.397315 0.064037 0.440278 0.036944
C54   C     C_R   0.652087 0.878884 0.519116 -0.103886
C55   C     C_R   0.424402 0.758372 0.479851 -0.508766
C56   C     C_R   0.611426 0.194246 0.483245 0.245188
H43   H     H_    0.777773 0.892089 0.536151 0.211904
H44   H     H_    0.795367 0.305375 0.536943 0.180013
H45   H     H_    0.326482 0.105953 0.416943 0.202439
N1    N     N_R   0.639512 0.828035 0.314156 0.223412
O25   O     O_R   0.540620 0.887697 0.318083 -0.415225
O26   O     O_R   0.755708 0.839853 0.364872 -0.296362
N2    N     N_R   0.782911 0.215873 0.317164 0.201711
O27   O     O_R   0.687076 0.141596 0.324109 -0.352579
O28   O     O_R   0.736661 0.263191 0.272479 -0.334952
Cl1   Cl    Cl    0.000442 0.259997 0.427487 -0.597959
Cl2   Cl    Cl    0.941006 0.047237 0.362751 -0.529297
Cl3   Cl    Cl    0.201103 0.120735 0.287587 -0.516288
N3    N     N_R   0.396550 0.215997 0.188518 0.330848
O29   O     O_R   0.284772 0.194097 0.135316 -0.279467
O30   O     O_R   0.493307 0.157437 0.194137 -0.184304
N4    N     N_R   0.075292 0.305173 0.764802 0.196956
O31   O     O_R   0.004549 0.357218 0.731668 -0.471910
O32   O     O_R   0.157148 0.341123 0.827009 -0.417994
Cl4   Cl    Cl    0.109323 0.035886 0.747337 -0.481867
N5    N     N_R   0.519561 0.160744 0.688750 0.232476
O33   O     O_R   0.454156 0.160782 0.625068 -0.379640
O34   O     O_R   0.495331 0.085144 0.713528 -0.337013
N6    N     N_R   0.907793 0.321474 0.162715 0.260210
O35   O     O_R   0.022089 0.271717 0.161290 -0.319826
O36   O     O_R   0.762745 0.278630 0.138628 -0.347580
N7    N     N_R   0.862769 0.036793 0.599606 0.208134
O37   O     O_R   0.788859 0.010719 0.653543 -0.361950
O38   O     O_R   0.005277 0.015501 0.585304 -0.325424

loop_
_geom_bond_atom_site_label_1
_geom_bond_atom_site_label_2
_geom_bond_distance
_ccdc_geom_bond_type
O5    C6    1.414196 S    
C22   C23   1.418594 A    
C33   H34   1.079045 S    
C50   C51   1.427569 A    
C17   C29   1.413168 A    
O3    P6    1.742078 S    
C5    H10   1.104790 S    
C2    C3    1.521024 S    
N2    O28   1.290903 A    
C10   H18   1.104956 S    
C30   C31   1.429285 A    
C4    C5    1.520921 S    
O8    Ba1   2.786312 S    
C52   C53   1.375129 A    
C1    H19   1.111079 S    
C37   C39   1.389144 A    
N3    O29   1.299471 A    
C47   C48   1.438888 A    
P5    O17   1.756104 S    
C35   C36   1.431969 A    
C7    Cl2   1.794849 S    
C38   C40   1.413044 A    
C19   H37   1.078770 S    
C44   C54   1.387144 A    
O4    P6    1.541122 D    
C8    H14   1.111517 S    
N4    O32   1.304740 A    
P8    C25   1.854002 S    
P1    O1    1.527570 D    
O10   C8    1.394940 S    
C9    H15   1.110754 S    
C24   C35   1.418328 A    
O12   Ba2   2.850062 S    
O16   P7    1.755486 S    
N6    O36   1.301834 A    
C50   C54   1.414745 A    
C11   H21   1.110403 S    
C44   C55   1.388324 A    
P1    Ba1   3.421280 S    
C41   C42   1.403799 A    
O14   P8    1.754746 S    
C2    H3    1.112134 S    
P4    O15   1.749759 S    
C12   H23   1.107102 S    
C12   N3    1.466685 S    
C33   C34   1.394424 A    
H41   C55   1.081862 S    
C30   C38   1.412153 A    
P1    C42   1.907598 S    
C53   H45   1.071737 S    
C19   C20   1.413247 A    
C11   O22   1.411024 S    
P7    C56   1.887958 S    
C1    H1    1.111046 S    
C15   O24   1.409512 S    
P3    O11   1.749215 S    
C40   C41   1.404971 A    
C14   H26   1.109991 S    
C45   H44   1.082219 S    
Ba1   Ba2   4.600286 S    
C6    Cl1   1.742432 S    
C13   N4    1.457920 S    
H42   C52   1.078303 S    
O13   Ba2   2.949028 S    
C11   C12   1.555178 S    
P2    Ba1   3.432832 S    
C37   H40   1.077077 S    
C3    H5    1.109643 S    
C3    H24   1.109114 S    
C5    H11   1.109367 S    
N7    O38   1.302167 A    
C18   H38   1.076572 S    
C15   N5    1.464028 S    
C12   H22   1.104583 S    
P4    O13   1.568015 S    
P2    C44   1.843079 S    
N3    O30   1.299835 A    
O11   C2    1.405020 S    
P5    O18   1.544790 D    
C39   H35   1.079085 S    
C7    Cl3   1.747565 S    
C15   H28   1.113153 S    
P1    O5    1.802469 S    
C34   C35   1.414468 A    
C8    C9    1.522256 S    
C4    H7    1.103034 S    
C6    N2    1.442127 S    
N1    O26   1.302898 A    
Ba1   O13   2.800142 S    
C1    C10   1.528098 S    
C26   C27   1.399519 A    
C16   H31   1.108686 S    
C20   C24   1.418603 A    
H29   C16   1.107963 S    
C13   H25   1.107917 S    
P5    C46   1.876990 S    
P5    O19   1.766693 S    
O14   Ba2   2.777104 S    
C11   H20   1.096757 S    
C41   H36   1.081863 S    
O1    Ba1   2.849427 S    
P1    O2    1.568002 S    
C8    H13   1.106822 S    
P7    O22   1.756477 S    
P2    O10   1.749432 S    
P6    C40   1.861927 S    
P3    O9    1.544015 D    
N2    O27   1.304315 A    
O17   Ba2   2.786834 S    
C10   N1    1.457713 S    
C31   C32   1.418883 A    
C7    H12   1.112348 S    
N4    O31   1.290090 A    
O2    Ba1   2.948181 S    
C21   H33   1.080752 S    
C43   C51   1.414738 A    
C28   C33   1.401970 A    
C45   C46   1.404694 A    
C9    H17   1.110917 S    
C13   C14   1.538959 S    
N5    O34   1.305233 A    
C29   C36   1.423236 A    
C15   C16   1.534634 S    
C3    H6    1.111319 S    
N7    O37   1.301731 A    
C34   H39   1.077371 S    
P8    O23   1.541234 D    
C54   H43   1.064041 S    
P4    O12   1.527936 D    
O6    P6    1.760440 S    
C45   C56   1.401676 A    
C51   C52   1.395048 A    
N6    O35   1.297739 A    
N5    O33   1.298772 A    
C48   C50   1.443511 A    
C38   C39   1.402701 A    
C23   C28   1.422083 A    
P4    C27   1.868134 S    
C21   C22   1.400951 A    
O7    Ba1   2.873037 S    
C14   Cl4   1.775689 S    
C4    H8    1.111195 S    
N1    O25   1.302584 A    
O2    Ba2   2.800748 S    
C47   N7    1.427940 S    
C17   C20   1.428501 A    
C31   C42   1.452371 A    
Ba1   O16   2.823843 S    
C4    O15   1.394806 S    
C6    C7    1.568604 S    
Ba1   O20   2.945197 S    
P3    O8    1.733329 S    
P7    O21   1.572625 D    
C9    H16   1.106696 S    
P2    O7    1.526618 D    
C49   C56   1.413762 A    
C25   C26   1.399216 A    
C27   C28   1.426813 A    
C2    H4    1.112432 S    
O19   C13   1.407105 S    
C32   N6    1.433136 S    
C26   H32   1.082388 S    
C29   C30   1.437618 A    
C43   C55   1.396522 A    
O3    Ba1   2.777804 S    
Ba2   O20   2.823350 S    
C16   H30   1.111674 S    
C49   C53   1.396955 A    
O16   Ba2   2.944288 S    
C23   C24   1.433015 A    
C1    H2    1.109986 S    
C17   C18   1.405391 A    
C18   C32   1.402763 A    
C22   C25   1.415886 A    
C36   C37   1.409966 A    
P8    O24   1.753555 S    
C19   C21   1.390794 A    
C14   H27   1.110836 S    
P3    C43   1.842833 S    
O6    C10   1.413452 S    
C46   C47   1.401751 A    
P2    O20   1.584319 S    
Ba2   O21   2.873025 S    
P4    Ba2   3.421921 S    
C48   C49   1.435756 A    
C5    H9    1.110943 S    
