data_mof_unit_31648.cif
_audit_creation_date              2012-12-10T20:07:05-0500
_audit_creation_method            fapswitch 2.2
_symmetry_space_group_name_H-M    P1
_symmetry_Int_Tables_number       1
_space_group_crystal_system       triclinic
_cell_length_a                    18.901904
_cell_length_b                    18.553686
_cell_length_c                    10.72412
_cell_angle_alpha                 89.540794
_cell_angle_beta                  95.008782
_cell_angle_gamma                 90.556442
_cell_volume                      3746.31331958

loop_
_atom_site_label
_atom_site_type_symbol
_atom_type_description
_atom_site_fract_x
_atom_site_fract_y
_atom_site_fract_z
_atom_type_partial_charge
C1    C     C_R   0.364073 0.499389 0.504786 0.852840
C2    C     C_R   0.933123 0.481140 0.629438 0.140422
C3    C     C_R   0.541618 0.727357 0.590880 0.260196
C4    C     C_R   0.457544 0.271963 0.411302 0.265414
C5    C     C_R   0.457396 0.727972 0.411425 0.267189
C6    C     C_R   0.542732 0.272718 0.589213 0.256540
C7    C     C_R   0.536762 0.802993 0.598209 -0.262793
C8    C     C_R   0.458881 0.195797 0.411631 -0.263368
C9    C     C_R   0.458677 0.804160 0.411625 -0.262718
C10   C     C_R   0.538749 0.196908 0.596080 -0.266236
C11   C     C_R   0.496928 0.842356 0.506671 0.018565
C12   C     C_R   0.635443 0.500188 0.493901 0.839850
C13   C     C_R   0.497822 0.157504 0.505972 0.021505
C14   C     C_R   0.434258 0.961782 0.474372 -0.190321
C15   C     C_R   0.559759 0.037972 0.542512 -0.189264
C16   C     C_R   0.559501 0.962378 0.542746 -0.189935
C17   C     C_R   0.434490 0.037411 0.474290 -0.191245
C18   C     C_R   0.497290 0.076678 0.508059 0.144642
C19   C     C_R   0.496794 0.923128 0.508405 0.144238
C20   C     C_R   0.511876 0.500350 0.263099 0.900127
C21   C     C_R   0.492690 0.499580 0.740182 0.900454
C22   C     C_R   0.546991 0.632586 0.115937 -0.161819
C23   C     C_R   0.714096 0.498796 0.497260 -0.091729
C24   C     C_R   0.474844 0.365177 0.893692 -0.147988
C25   C     C_R   0.464407 0.630444 0.888929 -0.148262
C26   C     C_R   0.553620 0.370524 0.123995 -0.164740
C27   C     C_R   0.528465 0.697269 0.054849 -0.178076
C28   C     C_R   0.495930 0.301374 0.955249 -0.182573
C29   C     C_R   0.482533 0.696134 0.946268 -0.180244
C30   C     C_R   0.539489 0.304255 0.066358 -0.176845
C31   C     C_R   0.491104 0.564980 0.941343 0.091972
C32   C     C_R   0.526876 0.434955 0.067422 0.097698
C33   C     C_R   0.522883 0.566048 0.064157 0.096415
C34   C     C_R   0.289253 0.496569 0.541999 -0.161623
C35   C     C_R   0.496219 0.433019 0.943729 0.093848
C36   C     C_R   0.486235 0.498752 0.876159 -0.259499
C37   C     C_R   0.528495 0.500830 0.131874 -0.274272
C38   C     C_R   0.748923 0.431453 0.497448 0.179772
C39   C     C_R   0.250261 0.560706 0.561803 0.149484
C40   C     C_R   0.258738 0.429002 0.576269 0.158033
C41   C     C_R   0.756448 0.562065 0.516626 0.150650
C42   C     C_R   0.816737 0.425686 0.558496 -0.233842
C43   C     C_R   0.185871 0.555957 0.617421 -0.201139
C44   C     C_R   0.198251 0.427795 0.641725 -0.218152
C45   C     C_R   0.969272 0.528862 0.714757 -0.193013
C46   C     C_R   0.826628 0.555355 0.569319 -0.219123
C47   C     C_R   0.856262 0.487365 0.594545 0.045910
C48   C     C_R   0.158762 0.489707 0.653452 0.029735
C49   C     C_3   0.723929 0.370944 0.408875 -0.414103
C50   C     C_3   0.730614 0.394154 0.273426 -0.882262
C51   C     C_3   0.267719 0.633665 0.508299 -0.392668
C52   C     C_3   0.307411 0.682071 0.605977 -0.826548
C53   C     C_3   0.277615 0.356871 0.523700 -0.385050
C54   C     C_3   0.323206 0.311031 0.617621 -0.828574
C55   C     C_3   0.734256 0.634418 0.460187 -0.409887
C56   C     C_R   0.045221 0.431884 0.581435 -0.188133
C57   C     C_3   0.730056 0.631561 0.317495 -0.860377
C58   C     C_3   0.593281 0.691259 0.687525 -0.365949
C59   C     C_3   0.666478 0.728403 0.702807 -0.983035
C60   C     C_3   0.412761 0.308854 0.305538 -0.347967
C61   C     C_3   0.342583 0.270142 0.263952 -0.995198
C62   C     C_3   0.412429 0.691190 0.305958 -0.349217
C63   C     C_3   0.342199 0.728794 0.264441 -0.990887
C64   C     C_3   0.596177 0.308610 0.682890 -0.364426
C65   C     C_3   0.671481 0.279743 0.676881 -0.941840
C66   C     C_R   0.043538 0.529459 0.730149 -0.192122
C67   C     C_R   0.972043 0.431934 0.564955 -0.184891
C68   C     C_R   0.081863 0.481653 0.661555 0.134500
H1    H     H_    0.558504 0.255010 0.111969 0.141668
H2    H     H_    0.153547 0.603657 0.622414 0.138758
H3    H     H_    0.175666 0.376245 0.666996 0.142925
H4    H     H_    0.859924 0.603043 0.582417 0.133987
H5    H     H_    0.940248 0.567370 0.765434 0.130188
H6    H     H_    0.073230 0.396224 0.523567 0.129690
H7    H     H_    0.070996 0.568770 0.791340 0.131054
H8    H     H_    0.946573 0.396495 0.494624 0.131481
H9    H     H_    0.565684 0.831563 0.674455 0.158080
H10   H     H_    0.429773 0.165778 0.337606 0.161148
H11   H     H_    0.429907 0.834279 0.337191 0.160405
H12   H     H_    0.463602 0.746120 0.903233 0.142006
H13   H     H_    0.569160 0.168516 0.671058 0.152311
H14   H     H_    0.384764 0.933489 0.449167 0.130378
H15   H     H_    0.609413 0.066132 0.566898 0.130809
H16   H     H_    0.608939 0.934625 0.567397 0.131654
H17   H     H_    0.385129 0.065196 0.449105 0.130136
H18   H     H_    0.714922 0.348771 0.209703 0.247707
H19   H     H_    0.695675 0.440768 0.248013 0.250056
H20   H     H_    0.786439 0.409637 0.260422 0.268701
H21   H     H_    0.757359 0.322379 0.427219 0.193386
H22   H     H_    0.669028 0.352600 0.418955 0.239529
H23   H     H_    0.480394 0.249814 0.914399 0.140041
H24   H     H_    0.278957 0.683983 0.692234 0.244806
H25   H     H_    0.361910 0.662338 0.629681 0.275323
H26   H     H_    0.311268 0.737709 0.568296 0.237175
H27   H     H_    0.297048 0.627703 0.424857 0.224887
H28   H     H_    0.217907 0.661256 0.472696 0.188077
H29   H     H_    0.377596 0.333358 0.631505 0.279300
H30   H     H_    0.299665 0.308228 0.708888 0.243303
H31   H     H_    0.326798 0.255457 0.581246 0.237852
H32   H     H_    0.228089 0.325924 0.495764 0.182092
H33   H     H_    0.302093 0.364151 0.435190 0.225783
H34   H     H_    0.545658 0.748159 0.096467 0.141132
H35   H     H_    0.783161 0.619679 0.286068 0.263654
H36   H     H_    0.691926 0.589125 0.281654 0.248032
H37   H     H_    0.712092 0.684367 0.277523 0.242361
H38   H     H_    0.683059 0.652229 0.489606 0.251093
H39   H     H_    0.773227 0.677253 0.491434 0.195196
H40   H     H_    0.666196 0.773298 0.770650 0.261955
H41   H     H_    0.707370 0.689292 0.739827 0.263669
H42   H     H_    0.681732 0.750827 0.612626 0.262979
H43   H     H_    0.571433 0.692687 0.779175 0.219667
H44   H     H_    0.601464 0.634623 0.666941 0.265002
H45   H     H_    0.578885 0.635045 0.204524 0.160017
H46   H     H_    0.305930 0.308372 0.211568 0.259842
H47   H     H_    0.351842 0.225080 0.200000 0.264342
H48   H     H_    0.316529 0.248667 0.345458 0.273128
H49   H     H_    0.399782 0.363874 0.330382 0.256852
H50   H     H_    0.443601 0.312721 0.223513 0.226040
H51   H     H_    0.351385 0.774901 0.201019 0.262643
H52   H     H_    0.305758 0.690408 0.211392 0.258775
H53   H     H_    0.315939 0.748574 0.345911 0.274785
H54   H     H_    0.443095 0.689134 0.224120 0.223580
H55   H     H_    0.399783 0.635521 0.329898 0.257665
H56   H     H_    0.440616 0.360817 0.808629 0.156029
H57   H     H_    0.711053 0.319763 0.716990 0.262462
H58   H     H_    0.678452 0.229082 0.732240 0.253155
H59   H     H_    0.682354 0.268114 0.579321 0.259024
H60   H     H_    0.598364 0.367008 0.671771 0.271324
H61   H     H_    0.580813 0.297959 0.778235 0.205021
H62   H     H_    0.429521 0.631233 0.804010 0.153242
H63   H     H_    0.584001 0.370810 0.214096 0.167490
H64   H     H_    0.841111 0.373107 0.567701 0.131048
N1    N     N_R   0.500000 0.689440 0.500000 -0.147378
N2    N     N_R   0.500000 0.310560 0.500000 -0.150117
O1    O     O_R   0.398180 0.560840 0.499970 -0.623468
O2    O     O_R   0.601820 0.439160 0.500030 -0.632614
O3    O     O_R   0.601820 0.560840 0.500030 -0.634193
O4    O     O_R   0.398180 0.439160 0.499970 -0.623331
O5    O     O_R   0.499990 0.560810 0.316770 -0.636876
O6    O     O_R   0.500010 0.439190 0.683230 -0.642552
O7    O     O_R   0.500010 0.560810 0.683230 -0.637632
O8    O     O_R   0.499990 0.439190 0.316770 -0.639492
Zn1   Zn    Zn3+2 0.500000 0.581210 0.500000 0.898669
Zn2   Zn    Zn3+2 0.500000 0.418790 0.500000 0.895038

loop_
_geom_bond_atom_site_label_1
_geom_bond_atom_site_label_2
_ccdc_geom_bond_type
C25   C31   A    
C15   C18   A    
C57   H37   S    
C26   C32   A    
C8    C13   A    
C20   C37   S    
C27   C29   A    
C39   C51   S    
C35   C36   A    
C24   H56   S    
C49   H22   S    
C4    C8    A    
C38   C49   S    
C53   C54   S    
C7    C11   A    
C12   C23   S    
C11   C19   S    
C13   C18   S    
C58   H44   S    
C65   H59   S    
C20   O5    A    
C38   C42   A    
C3    C7    A    
O7    Zn1   S    
C66   C68   A    
C15   C16   A    
C16   H16   S    
C59   H42   S    
C44   H3    S    
C45   H5    S    
C9    H11   S    
C6    C64   S    
C57   H36   S    
C41   C55   S    
O5    Zn1   S    
C22   H45   S    
C53   H33   S    
C64   H60   S    
C61   H47   S    
C41   C46   A    
C31   C33   A    
C54   H29   S    
C52   H26   S    
C43   C48   A    
C46   H4    S    
C50   H20   S    
C51   H28   S    
C7    H9    S    
O1    Zn1   S    
O3    Zn1   S    
C2    C45   A    
C8    H10   S    
C45   C66   A    
C14   C17   A    
C25   H62   S    
C17   H17   S    
C62   H55   S    
C63   H53   S    
C1    C34   S    
C53   H32   S    
C25   C29   A    
C57   H35   S    
N1    Zn1   S    
C24   C35   A    
C56   H6    S    
C55   H38   S    
C51   C52   S    
C32   C35   A    
C20   O8    A    
C52   H25   S    
C2    C67   A    
C21   C36   S    
C15   H15   S    
C58   C59   S    
C56   C68   A    
C33   C37   A    
C34   C39   A    
C55   H39   S    
C60   C61   S    
C3    N1    A    
C65   H57   S    
C5    N1    A    
C5    C9    A    
C62   C63   S    
C63   H51   S    
C4    C60   S    
C61   H48   S    
C17   C18   A    
C60   H49   S    
C32   C37   A    
C48   C68   S    
C60   H50   S    
C9    C11   A    
C50   H19   S    
C26   C30   A    
C43   H2    S    
C22   C27   A    
C55   C57   S    
C34   C40   A    
C54   H31   S    
C52   H24   S    
C14   H14   S    
C23   C38   A    
C62   H54   S    
C30   H1    S    
C4    N2    A    
C22   C33   A    
C46   C47   A    
C27   H34   S    
C31   C36   A    
C14   C19   A    
C24   C28   A    
C49   H21   S    
C10   C13   A    
C6    C10   A    
C39   C43   A    
C58   H43   S    
C40   C53   S    
C2    C47   S    
C56   C67   A    
C10   H13   S    
C59   H40   S    
C23   C41   A    
C64   C65   S    
O6    Zn2   S    
C21   O7    A    
C6    N2    A    
O4    Zn2   S    
C65   H58   S    
C63   H52   S    
C29   H12   S    
C26   H63   S    
C16   C19   A    
C66   H7    S    
C28   C30   A    
C59   H41   S    
C5    C62   S    
C28   H23   S    
O8    Zn2   S    
C42   C47   A    
C50   H18   S    
N2    Zn2   S    
C3    C58   S    
C40   C44   A    
C64   H61   S    
O2    Zn2   S    
C49   C50   S    
C12   O2    A    
C61   H46   S    
C12   O3    A    
C54   H30   S    
C42   H64   S    
C67   H8    S    
C21   O6    A    
C1    O1    A    
C1    O4    A    
C44   C48   A    
C51   H27   S    
