data_mof_unit_25141.cif
_audit_creation_date              2012-12-10T17:50:40-0500
_audit_creation_method            fapswitch 2.2
_symmetry_space_group_name_H-M    P1
_symmetry_Int_Tables_number       1
_space_group_crystal_system       triclinic
_cell_length_a                    15.720556
_cell_length_b                    10.626445
_cell_length_c                    9.924
_cell_angle_alpha                 89.496969
_cell_angle_beta                  90.485626
_cell_angle_gamma                 92.187547
_cell_volume                      1656.51316675

loop_
_atom_site_label
_atom_site_type_symbol
_atom_type_description
_atom_site_fract_x
_atom_site_fract_y
_atom_site_fract_z
_atom_type_partial_charge
C1    C     C_R   0.511084 0.261419 0.501068 0.888407
C2    C     C_R   0.522792 0.049524 0.872701 -0.212775
C3    C     C_R   0.464442 0.947819 0.868378 -0.200846
C4    C     C_R   0.338101 0.499082 0.499491 0.903317
C5    C     C_R   0.442638 0.892065 0.745052 0.037070
C6    C     C_R   0.480449 0.939872 0.624262 0.043403
C7    C     C_R   0.520613 0.059474 0.627082 0.049007
C8    C     C_R   0.523333 0.127668 0.503689 -0.111369
C9    C     C_R   0.515531 0.065195 0.380650 -0.206775
C10   C     C_R   0.498798 0.938013 0.379492 -0.199126
C11   C     C_R   0.482922 0.873875 0.500715 -0.120663
C12   C     C_3   0.083131 0.491017 0.501190 0.100028
C13   C     C_R   0.370664 0.371321 0.144098 -0.212560
C14   C     C_R   0.291548 0.347851 0.085144 -0.053420
C15   C     C_R   0.283079 0.361916 0.946032 -0.078504
C16   C     C_R   0.491400 0.739462 0.499889 0.877126
C17   C     C_R   0.357479 0.379933 0.868568 -0.038572
C18   C     C_R   0.432797 0.438019 0.928899 0.095392
C19   C     C_R   0.435336 0.436788 0.073350 0.133305
C20   C     C_R   0.562603 0.559855 0.071503 -0.111890
C21   C     C_R   0.562979 0.558969 0.928597 -0.096044
C22   C     C_R   0.661945 0.500259 0.500555 0.903127
C23   C     C_3   0.975827 0.610534 0.493966 0.002628
C24   C     C_3   0.970777 0.438364 0.618507 -0.236117
C25   C     C_3   0.023895 0.373843 0.510587 0.037050
C26   C     C_1   0.249261 0.495341 0.498810 -0.150450
C27   C     C_1   0.750767 0.497696 0.501941 -0.163847
C28   C     C_3   0.030787 0.556599 0.607253 -0.017119
C29   C     C_1   0.051736 0.243830 0.519701 0.215463
C30   C     C_1   0.372811 0.799588 0.743798 0.192881
C31   C     C_1   0.221555 0.302189 0.167990 0.193359
C32   C     C_1   0.200988 0.336316 0.881450 0.203729
C33   C     C_1   0.358217 0.290883 0.759780 0.282033
C34   C     C_3   0.916797 0.493038 0.503271 0.117464
C35   C     C_1   0.948007 0.740686 0.484957 0.173622
C36   C     C_1   0.066567 0.627169 0.722363 0.194776
C37   C     C_1   0.620294 0.199988 0.761934 0.176901
C38   C     C_3   0.028774 0.545504 0.386405 -0.211993
C39   C     C_3   0.968393 0.426354 0.395743 -0.188482
C40   C     C_1   0.174002 0.492392 0.499508 -0.025715
C41   C     C_1   0.825975 0.495218 0.502947 -0.037779
C42   C     C_R   0.551472 0.106249 0.752940 0.032345
H1    H     H_    0.437456 0.911108 0.961559 0.149310
H2    H     H_    0.544082 0.085821 0.969510 0.145061
H3    H     H_    0.613626 0.609429 0.125160 0.149764
H4    H     H_    0.614273 0.607700 0.875190 0.151618
H5    H     H_    0.520844 0.114627 0.284913 0.167652
H6    H     H_    0.498867 0.890172 0.283497 0.170170
H7    H     H_    0.379950 0.339040 0.245180 0.215074
H8    H     H_    0.945679 0.394549 0.712823 0.163676
H9    H     H_    0.941035 0.371989 0.309616 0.156485
H10   H     H_    0.054044 0.589507 0.292309 0.163254
N1    N     N_R   0.499210 0.498800 0.142780 -0.111570
N2    N     N_1   0.675765 0.274386 0.769907 -0.195450
N3    N     N_R   0.499180 0.498720 0.857170 -0.113842
N4    N     N_1   0.073744 0.141307 0.526978 -0.167960
N5    N     N_1   0.316364 0.726444 0.743741 -0.181392
N6    N     N_1   0.165489 0.265677 0.234228 -0.197856
N7    N     N_1   0.135604 0.316031 0.830088 -0.204520
N8    N     N_1   0.352353 0.215834 0.675973 -0.212413
N9    N     N_1   0.926089 0.843264 0.477901 -0.184183
N10   N     N_1   0.094856 0.682668 0.813083 -0.180717
O1    O     O_R   0.500000 0.316780 0.614690 -0.618011
O2    O     O_R   0.499990 0.316750 0.385360 -0.645592
O3    O     O_R   0.376780 0.500000 0.614650 -0.611951
O4    O     O_R   0.376770 0.499980 0.385310 -0.632695
O5    O     O_R   0.500010 0.683250 0.614640 -0.617694
O6    O     O_R   0.500000 0.683220 0.385310 -0.617080
O7    O     O_R   0.623230 0.500020 0.614690 -0.607919
O8    O     O_R   0.623220 0.500000 0.385350 -0.618568
Zn1   Zn    Zn3+2 0.500010 0.500020 0.653130 0.968483
Zn2   Zn    Zn3+2 0.499990 0.499980 0.346870 0.940478

loop_
_geom_bond_atom_site_label_1
_geom_bond_atom_site_label_2
_ccdc_geom_bond_type
C39   H9    S    
C1    C8    S    
C14   C31   S    
C7    C8    A    
C3    H1    S    
C12   C28   S    
C31   N6    T    
C5    C30   S    
C5    C6    A    
C38   H10   S    
C30   N5    T    
C18   C19   A    
C7    C42   A    
C37   C42   S    
O7    Zn1   S    
O4    Zn2   S    
C2    H2    S    
C8    C9    A    
C16   O6    A    
C9    C10   A    
C22   O7    A    
C20   H3    S    
C19   N1    A    
C13   C14   A    
C25   C29   S    
C34   C41   S    
C17   C33   S    
C36   N10   T    
C1    O1    A    
C24   H8    S    
C38   C39   S    
C13   C19   A    
C34   C39   S    
C15   C32   S    
C24   C25   S    
C6    C11   A    
C21   N3    A    
O3    Zn1   S    
C24   C34   S    
C12   C40   S    
C11   C16   S    
C27   C41   T    
O6    Zn2   S    
C23   C34   S    
C17   C18   A    
C35   N9    T    
C16   O5    A    
C23   C28   S    
C18   N3    A    
C13   H7    S    
C37   N2    T    
O1    Zn1   S    
C9    H5    S    
C33   N8    T    
C23   C35   S    
C22   C27   S    
C10   H6    S    
C1    O2    A    
C21   H4    S    
C15   C17   A    
C24   C28   S    
C20   N1    A    
C3    C5    A    
C4    C26   S    
C6    C7    A    
C29   N4    T    
C23   C38   S    
C12   C25   S    
C2    C3    A    
C25   C39   S    
C4    O4    A    
C26   C40   T    
C4    O3    A    
C2    C42   A    
O5    Zn1   S    
O2    Zn2   S    
C12   C38   S    
C10   C11   A    
C20   C21   A    
C28   C36   S    
C14   C15   A    
O8    Zn2   S    
C32   N7    T    
N1    Zn2   S    
C22   O8    A    
N3    Zn1   S    
