data_mof_unit_18508.cif
_audit_creation_date              2013-03-05T15:44:37-0500
_audit_creation_method            fapswitch 2.2
_symmetry_space_group_name_H-M    P1
_symmetry_Int_Tables_number       1
_space_group_crystal_system       triclinic
_cell_length_a                    18.940295
_cell_length_b                    11.071805
_cell_length_c                    18.737612
_cell_angle_alpha                 89.624123
_cell_angle_beta                  90.669631
_cell_angle_gamma                 90.248874
_cell_volume                      3928.94950959

loop_
_atom_site_label
_atom_site_type_symbol
_atom_site_description
_atom_site_fract_x
_atom_site_fract_y
_atom_site_fract_z
_atom_type_partial_charge
O1    O     O_R   0.787540 0.042690 0.170470 -0.428296
O2    O     O_R   0.212460 0.042690 0.829530 -0.480114
O3    O     O_R   0.287540 0.542690 0.170470 -0.425449
O4    O     O_R   0.712460 0.542690 0.829530 -0.479862
O5    O     O_R   0.765660 0.292160 0.175050 -0.435701
O6    O     O_R   0.234340 0.292160 0.824950 -0.479767
O7    O     O_R   0.265660 0.792160 0.175050 -0.456382
O8    O     O_R   0.734340 0.792160 0.824950 -0.478292
C1    C     C_R   0.711319 0.332702 0.138305 0.512758
C2    C     C_R   0.270130 0.375942 0.854273 0.559999
C3    C     C_R   0.229526 0.876804 0.146007 0.559915
C4    C     C_R   0.770150 0.875837 0.854292 0.565761
O9    O     O_R   0.670190 0.408980 0.168550 -0.493696
O10   O     O_R   0.329810 0.408980 0.831450 -0.518567
O11   O     O_R   0.170190 0.908980 0.168550 -0.513578
O12   O     O_R   0.829810 0.908980 0.831450 -0.518933
O13   O     O_R   0.556580 0.251450 0.175160 -0.539173
O14   O     O_R   0.443420 0.251450 0.824840 -0.526056
O15   O     O_R   0.056580 0.751450 0.175160 -0.526099
O16   O     O_R   0.943420 0.751450 0.824840 -0.527722
C5    C     C_R   0.529763 0.154931 0.147531 0.548697
C6    C     C_R   0.469222 0.154554 0.853154 0.580178
C7    C     C_R   0.029728 0.654922 0.147534 0.553121
C8    C     C_R   0.969202 0.654662 0.853145 0.573256
O17   O     O_R   0.545920 0.049510 0.170320 -0.445030
O18   O     O_R   0.454080 0.049510 0.829680 -0.432869
O19   O     O_R   0.045920 0.549510 0.170320 -0.444436
O20   O     O_R   0.954080 0.549510 0.829680 -0.433963
O21   O     O_R   0.681390 0.957840 0.176710 -0.479940
O22   O     O_R   0.318610 0.957840 0.823290 -0.469570
O23   O     O_R   0.181390 0.457840 0.176710 -0.481709
O24   O     O_R   0.818610 0.457840 0.823290 -0.469818
C9    C     C_R   0.728109 0.019911 0.139978 0.524111
C10   C     C_R   0.258618 0.969464 0.852054 0.613301
C11   C     C_R   0.228021 0.520219 0.140007 0.540371
C12   C     C_R   0.757813 0.467101 0.851029 0.607837
O25   O     O_R   0.787500 0.044280 0.330990 -0.473069
O26   O     O_R   0.212500 0.044280 0.669010 -0.469850
O27   O     O_R   0.287500 0.544280 0.330990 -0.472636
O28   O     O_R   0.712500 0.544280 0.669010 -0.468226
O29   O     O_R   0.765610 0.293630 0.323860 -0.483904
O30   O     O_R   0.234390 0.293630 0.676140 -0.485526
O31   O     O_R   0.265610 0.793630 0.323860 -0.487754
O32   O     O_R   0.734390 0.793630 0.676140 -0.485851
C13   C     C_R   0.732770 0.385566 0.349305 0.584158
C14   C     C_R   0.267194 0.386203 0.650858 0.580650
C15   C     C_R   0.232764 0.885550 0.349318 0.574466
C16   C     C_R   0.767192 0.886206 0.650860 0.581361
O33   O     O_R   0.670140 0.410570 0.329080 -0.440685
O34   O     O_R   0.329860 0.410570 0.670920 -0.444931
O35   O     O_R   0.170140 0.910570 0.329080 -0.443563
O36   O     O_R   0.829860 0.910570 0.670920 -0.445101
O37   O     O_R   0.556540 0.252920 0.323970 -0.447946
O38   O     O_R   0.443460 0.252920 0.676030 -0.447319
O39   O     O_R   0.056540 0.752920 0.323970 -0.448478
O40   O     O_R   0.943460 0.752920 0.676030 -0.447730
C17   C     C_R   0.532682 0.157080 0.353493 0.574821
C18   C     C_R   0.467212 0.157569 0.646374 0.580518
C19   C     C_R   0.032682 0.657080 0.353492 0.573347
C20   C     C_R   0.967206 0.657570 0.646371 0.578605
O41   O     O_R   0.545870 0.051100 0.330840 -0.501453
O42   O     O_R   0.454130 0.051100 0.669160 -0.504129
O43   O     O_R   0.045870 0.551100 0.330840 -0.502582
O44   O     O_R   0.954130 0.551100 0.669160 -0.504439
O45   O     O_R   0.681340 0.959300 0.325510 -0.445668
O46   O     O_R   0.318660 0.959300 0.674490 -0.452847
O47   O     O_R   0.181340 0.459300 0.325510 -0.447116
O48   O     O_R   0.818660 0.459300 0.674490 -0.452405
C21   C     C_R   0.728568 0.020181 0.362243 0.545293
C22   C     C_R   0.271277 0.019785 0.637629 0.543541
C23   C     C_R   0.228570 0.520176 0.362243 0.544859
C24   C     C_R   0.771275 0.519778 0.637628 0.544064
Cr1   Cr    Cr6+3 0.772000 0.169640 0.250110 1.174324
Cr2   Cr    Cr6+3 0.228000 0.169640 0.749890 1.147369
Cr3   Cr    Cr6+3 0.272000 0.669640 0.250110 1.173276
Cr4   Cr    Cr6+3 0.728000 0.669640 0.749890 1.149929
Cr5   Cr    Cr6+3 0.614960 0.323350 0.249260 1.119843
Cr6   Cr    Cr6+3 0.385040 0.323350 0.750740 1.129878
Cr7   Cr    Cr6+3 0.114960 0.823350 0.249260 1.120045
Cr8   Cr    Cr6+3 0.885040 0.823350 0.750740 1.128927
Cr9   Cr    Cr6+3 0.616670 0.010620 0.250840 1.148399
Cr10  Cr    Cr6+3 0.383330 0.010620 0.749160 1.169760
Cr11  Cr    Cr6+3 0.116670 0.510620 0.250840 1.152837
Cr12  Cr    Cr6+3 0.883330 0.510620 0.749160 1.169002
O49   O     O_3   0.667880 0.167870 0.250070 -0.379238
O50   O     O_3   0.332120 0.167870 0.749930 -0.349792
O51   O     O_3   0.167880 0.667870 0.250070 -0.364316
O52   O     O_3   0.832120 0.667870 0.749930 -0.348433
C25   C     C_R   0.499009 0.159736 0.926144 0.006576
C26   C     C_R   0.496461 0.161280 0.075975 -0.044740
C27   C     C_R   0.998853 0.660256 0.926140 0.015121
C28   C     C_R   0.996302 0.661276 0.075993 -0.047865
C29   C     C_R   0.502549 0.271202 0.962633 -0.029497
C30   C     C_R   0.496084 0.272340 0.037698 -0.047326
C31   C     C_R   0.001972 0.771688 0.962750 -0.016188
C32   C     C_R   0.995691 0.772497 0.037847 -0.045465
C33   C     C_R   0.490356 0.050792 0.038505 0.148223
C34   C     C_R   0.500812 0.049875 0.965231 0.176997
C35   C     C_R   0.990584 0.550869 0.038324 0.149277
C36   C     C_R   0.001224 0.550406 0.965069 0.186460
C37   C     C_R   0.512944 0.381998 0.926093 -0.061510
C38   C     C_R   0.490447 0.385084 0.072336 -0.058435
C39   C     C_R   0.012123 0.882695 0.926339 -0.055001
C40   C     C_R   0.990055 0.885099 0.072656 -0.061017
C41   C     C_R   0.008441 0.991855 0.962122 -0.094589
C42   C     C_R   0.998634 0.993092 0.035229 -0.061695
C43   C     C_R   0.509123 0.491330 0.961678 -0.093647
C44   C     C_R   0.499065 0.492916 0.034750 -0.062604
H1    H     H_    0.526080 0.385642 0.870155 0.188113
H2    H     H_    0.477804 0.391473 0.128279 0.180031
H3    H     H_    0.025159 0.886676 0.870386 0.187765
H4    H     H_    0.977541 0.891263 0.128638 0.176709
H5    H     H_    0.012703 0.075842 0.932822 0.198857
H6    H     H_    0.998208 0.078265 0.063017 0.219976
H7    H     H_    0.513407 0.575175 0.932238 0.198703
H8    H     H_    0.498454 0.578233 0.062379 0.219981
C45   C     C_R   0.694325 0.897201 0.037425 -0.144042
C46   C     C_R   0.286778 0.015619 0.974134 -0.127045
C47   C     C_R   0.194213 0.397681 0.037356 -0.136275
C48   C     C_R   0.778576 0.493196 0.976578 -0.122574
H9    H     H_    0.658391 0.847252 0.071291 0.194129
H10   H     H_    0.316818 0.092465 0.954445 0.087451
H11   H     H_    0.158390 0.347560 0.071238 0.191936
H12   H     H_    0.810006 0.572180 0.962928 0.085588
C49   C     C_R   0.702043 0.859889 0.967908 -0.012834
C50   C     C_R   0.278739 0.000303 0.047082 -0.002296
C51   C     C_R   0.201871 0.360465 0.967807 -0.010905
C52   C     C_R   0.765725 0.467206 0.047647 0.029267
C53   C     C_R   0.748988 0.922517 0.923011 0.020793
C54   C     C_R   0.240136 0.900891 0.071403 0.038515
C55   C     C_R   0.248932 0.422915 0.922949 0.018307
C56   C     C_R   0.724899 0.365173 0.064820 0.022470
C57   C     C_R   0.787100 0.021439 0.949094 -0.068882
C58   C     C_R   0.204319 0.824635 0.023355 -0.090727
C59   C     C_R   0.287215 0.521662 0.949121 -0.058904
C60   C     C_R   0.692612 0.296366 0.010927 -0.130312
H13   H     H_    0.823436 0.069730 0.914805 0.194767
H14   H     H_    0.171851 0.751520 0.043748 0.118328
H15   H     H_    0.323786 0.569658 0.914945 0.193586
H16   H     H_    0.658819 0.221025 0.025345 0.105628
C61   C     C_R   0.784580 0.053398 0.020209 0.162418
C62   C     C_R   0.210227 0.841303 0.949793 0.203821
C63   C     C_R   0.284338 0.554093 0.020185 0.174294
C64   C     C_R   0.703841 0.323883 0.938842 0.204846
C65   C     C_R   0.736053 0.990751 0.065073 -0.030667
C66   C     C_R   0.253335 0.936551 0.925885 0.053081
C67   C     C_R   0.235828 0.491378 0.065017 -0.019835
C68   C     C_R   0.748429 0.422241 0.922528 0.052486
C69   C     C_R   0.504315 0.058738 0.464395 -0.153893
C70   C     C_R   0.495102 0.058955 0.536103 -0.152932
C71   C     C_R   0.004316 0.558739 0.464394 -0.153697
C72   C     C_R   0.995101 0.558957 0.536101 -0.152993
H17   H     H_    0.512830 0.973143 0.439320 0.248686
H18   H     H_    0.486515 0.973279 0.561853 0.248727
H19   H     H_    0.012840 0.473144 0.439322 0.248628
H20   H     H_    0.986521 0.473281 0.561853 0.248816
C73   C     C_R   0.493097 0.166437 0.573728 -0.021628
C74   C     C_R   0.506464 0.165919 0.425895 -0.023607
C75   C     C_R   0.993086 0.666442 0.573723 -0.022146
C76   C     C_R   0.006459 0.665918 0.425892 -0.023065
C77   C     C_R   0.498989 0.277370 0.536962 0.166244
C78   C     C_R   0.500727 0.277174 0.461719 0.167373
C79   C     C_R   0.998966 0.777375 0.536954 0.166315
C80   C     C_R   0.000711 0.777174 0.461712 0.167674
C81   C     C_R   0.789139 0.046428 0.482475 -0.089975
C82   C     C_R   0.211166 0.045753 0.516923 -0.089075
C83   C     C_R   0.289150 0.546404 0.482468 -0.089717
C84   C     C_R   0.711163 0.545745 0.516923 -0.089203
C85   C     C_R   0.785728 0.040864 0.557168 0.161732
C86   C     C_R   0.214696 0.039915 0.442250 0.162879
C87   C     C_R   0.285741 0.540845 0.557161 0.161554
C88   C     C_R   0.714693 0.539915 0.442249 0.161629
C89   C     C_R   0.739974 0.954920 0.588004 0.011146
C90   C     C_R   0.260018 0.953689 0.412143 0.008713
C91   C     C_R   0.239980 0.454912 0.587999 0.010343
C92   C     C_R   0.760018 0.453695 0.412139 0.007874
C93   C     C_R   0.679558 0.918812 0.548935 0.147339
C94   C     C_R   0.320026 0.917370 0.451777 0.146276
C95   C     C_R   0.179564 0.418804 0.548930 0.147247
C96   C     C_R   0.820024 0.417374 0.451774 0.145413
C97   C     C_R   0.676589 0.942887 0.475318 -0.124824
C98   C     C_R   0.322867 0.941559 0.525237 -0.123702
C99   C     C_R   0.176596 0.442876 0.475314 -0.124756
C100  C     C_R   0.822865 0.441556 0.525235 -0.123458
H21   H     H_    0.630808 0.915388 0.444585 0.209127
H22   H     H_    0.368414 0.913985 0.556297 0.209621
H23   H     H_    0.130814 0.415379 0.444582 0.209083
H24   H     H_    0.868412 0.413987 0.556294 0.209680
C101  C     C_R   0.733062 0.998819 0.440528 -0.089649
C102  C     C_R   0.266711 0.997996 0.559455 -0.087120
C103  C     C_R   0.233069 0.498804 0.440524 -0.089286
C104  C     C_R   0.766707 0.497988 0.559454 -0.086901
N1    N     N_R   0.477523 0.937983 0.075322 0.141981
O53   O     O_R   0.520541 0.847608 0.068388 -0.297253
O54   O     O_R   0.427839 0.930219 0.122487 -0.264888
N2    N     N_R   0.511767 0.936233 0.930135 0.118304
O55   O     O_R   0.464054 0.851559 0.933471 -0.246492
O56   O     O_R   0.562856 0.925694 0.884810 -0.270089
N3    N     N_R   0.978105 0.437795 0.074935 0.139279
O57   O     O_R   0.021486 0.347930 0.068049 -0.297767
O58   O     O_R   0.928387 0.429405 0.122003 -0.258847
N4    N     N_R   0.013721 0.437459 0.929785 0.117882
O59   O     O_R   0.967138 0.350906 0.932880 -0.248727
O60   O     O_R   0.064777 0.429661 0.884194 -0.274653
C105  C     C_1   0.854554 0.080677 0.449843 0.383490
N5    N     N_1   0.906971 0.103883 0.421984 -0.007907
C106  C     C_1   0.146050 0.080804 0.549129 0.381638
N6    N     N_1   0.093769 0.104611 0.576617 -0.008924
C107  C     C_1   0.354563 0.580658 0.449834 0.383780
N7    N     N_1   0.406978 0.603872 0.421973 -0.007712
C108  C     C_1   0.646049 0.580801 0.549133 0.381698
N8    N     N_1   0.593771 0.604614 0.576625 -0.008887
N9    N     N_R   0.825672 0.122744 0.602351 0.109336
O61   O     O_R   0.800828 0.152219 0.664327 -0.274872
O62   O     O_R   0.880646 0.181019 0.579208 -0.255005
N10   N     N_R   0.175576 0.122369 0.396406 0.111999
O63   O     O_R   0.200667 0.151265 0.334154 -0.285421
O64   O     O_R   0.121643 0.182414 0.419354 -0.258115
N11   N     N_R   0.325694 0.622720 0.602338 0.109407
O65   O     O_R   0.300859 0.652199 0.664317 -0.277531
O66   O     O_R   0.380666 0.680993 0.579188 -0.254744
N12   N     N_R   0.675570 0.622371 0.396409 0.111701
O67   O     O_R   0.621648 0.682434 0.419365 -0.258388
O68   O     O_R   0.700650 0.651252 0.334150 -0.279280
N13   N     N_R   0.619073 0.867505 0.583354 0.065710
O69   O     O_R   0.568044 0.823074 0.544549 -0.299640
O70   O     O_R   0.607343 0.889024 0.650374 -0.277655
N14   N     N_R   0.380443 0.866239 0.418005 0.064343
O71   O     O_R   0.431064 0.821728 0.457374 -0.298007
O72   O     O_R   0.392708 0.888296 0.350962 -0.281518
N15   N     N_R   0.119077 0.367499 0.583349 0.065797
O73   O     O_R   0.068048 0.323074 0.544542 -0.299519
O74   O     O_R   0.107347 0.389013 0.650369 -0.279529
N16   N     N_R   0.880444 0.366250 0.418002 0.063877
O75   O     O_R   0.931065 0.321740 0.457371 -0.298290
O76   O     O_R   0.892710 0.388312 0.350960 -0.277976
C109  C     C_1   0.664984 0.751620 0.947349 0.294490
N17   N     N_1   0.635066 0.664616 0.931504 -0.263017
C110  C     C_1   0.306321 0.090667 0.095288 0.236332
N18   N     N_1   0.328155 0.163400 0.133856 -0.236830
C111  C     C_1   0.164462 0.252610 0.947080 0.295324
N19   N     N_1   0.134255 0.165988 0.931040 -0.260966
C112  C     C_1   0.791366 0.549917 0.101497 0.283510
N20   N     N_1   0.811659 0.616547 0.144513 -0.211928
N21   N     N_R   0.832165 0.148087 0.043712 0.072300
O77   O     O_R   0.877301 0.128160 0.095063 -0.281647
O78   O     O_R   0.846969 0.235711 0.999747 -0.307856
N22   N     N_R   0.174685 0.759421 0.901532 0.059432
O79   O     O_R   0.152924 0.654806 0.924462 -0.359824
O80   O     O_R   0.162230 0.788414 0.835173 -0.299020
N23   N     N_R   0.332071 0.648417 0.043870 0.072484
O81   O     O_R   0.377406 0.627607 0.094921 -0.283273
O82   O     O_R   0.347056 0.736126 0.000045 -0.305665
N24   N     N_R   0.671559 0.250195 0.884159 0.059478
O83   O     O_R   0.651364 0.140665 0.898998 -0.339028
O84   O     O_R   0.660417 0.291591 0.819891 -0.292978
N25   N     N_R   0.502605 0.388104 0.575742 0.100980
O85   O     O_R   0.543846 0.396474 0.631604 -0.290405
O86   O     O_R   0.458698 0.474717 0.561075 -0.247389
N26   N     N_R   0.497522 0.387903 0.422055 0.102705
O87   O     O_R   0.456050 0.396345 0.366339 -0.300639
O88   O     O_R   0.541746 0.474726 0.436042 -0.244954
N27   N     N_R   0.002568 0.888116 0.575728 0.101235
O89   O     O_R   0.043809 0.896512 0.631589 -0.293542
O90   O     O_R   0.958662 0.974723 0.561047 -0.247197
N28   N     N_R   0.997507 0.887901 0.422046 0.102902
O91   O     O_R   0.956034 0.896344 0.366331 -0.301597
O92   O     O_R   0.041736 0.974720 0.436030 -0.244686

loop_
_geom_bond_atom_site_label_1
_geom_bond_atom_site_label_2
_geom_bond_distance
_ccdc_geom_bond_type
C18   O42   1.275380 A    
Cr11  O51   1.989355 S    
C17   C74   1.454162 S    
O4    C12   1.262658 A    
N21   O78   1.300388 A    
C57   H13   1.083962 S    
C29   C30   1.413419 A    
C70   C73   1.388043 A    
O39   C19   1.276775 A    
O20   Cr12  2.052720 S    
O5    Cr1   1.950662 S    
C35   N3    1.443523 S    
O29   C13   1.291946 A    
C62   C66   1.405100 A    
O15   C7    1.290425 A    
C31   C32   1.413633 A    
C51   C111  1.439144 S    
C20   C75   1.454773 S    
C28   C32   1.419787 A    
C60   H16   1.083937 S    
C69   H17   1.074169 S    
Cr7   O51   1.995632 S    
C77   C78   1.410659 A    
C8    C27   1.474058 S    
C97   C101  1.399202 A    
N23   O81   1.298109 A    
C105  N5    1.154244 T    
O45   C21   1.309473 A    
O7    C3    1.277877 A    
C83   C103  1.415891 A    
C63   N23   1.446865 S    
C42   H6    1.080313 S    
C76   C80   1.411873 A    
C39   H3    1.080495 S    
C110  N18   1.157377 T    
N10   O64   1.300093 A    
N25   O85   1.302267 A    
O25   C21   1.292540 A    
C97   H21   1.079124 S    
O45   Cr9   1.932953 S    
O30   C14   1.286830 A    
C48   C52   1.384681 A    
Cr3   O51   1.972067 S    
O3    C11   1.281757 A    
C56   C60   1.402049 A    
N23   O82   1.300199 A    
O47   C23   1.309464 A    
O46   Cr10  1.935219 S    
C50   C54   1.395701 A    
C37   H1    1.080549 S    
C112  N20   1.157467 T    
O21   C9    1.315971 A    
O8    Cr4   1.962733 S    
O23   Cr11  1.957080 S    
C107  N7    1.154244 T    
C45   C65   1.398645 A    
C111  N19   1.154327 T    
C98   H22   1.079035 S    
C33   N1    1.443938 S    
O32   Cr4   1.945876 S    
C1    O9    1.289792 A    
C2    C55   1.452673 S    
O44   Cr12  2.068587 S    
O17   Cr9   2.051008 S    
N24   O84   1.300922 A    
C79   C80   1.410642 A    
C3    O11   1.258932 A    
C12   C68   1.438474 S    
O11   Cr7   2.071175 S    
C72   H20   1.074041 S    
C31   C39   1.415270 A    
N1    O54   1.300651 A    
C41   H5    1.079951 S    
C81   C101  1.415898 A    
C43   C44   1.384815 A    
C100  C104  1.399930 A    
C38   C44   1.392116 A    
O6    Cr2   1.962733 S    
C7    O19   1.277488 A    
C27   C36   1.414695 A    
O3    Cr3   2.080979 S    
C69   C74   1.385399 A    
Cr4   O52   1.972237 S    
C26   C33   1.418070 A    
C94   N14   1.434446 S    
O2    Cr2   2.065972 S    
O48   C24   1.309798 A    
C33   C34   1.389582 A    
Cr6   O50   1.988279 S    
C93   N13   1.434521 S    
C59   C63   1.383169 A    
O42   Cr10  2.068587 S    
C72   C75   1.388037 A    
C96   N16   1.434445 S    
N3    O57   1.301148 A    
C78   N26   1.430621 S    
C109  N17   1.154243 T    
Cr8   O52   1.988279 S    
C81   C85   1.402763 A    
C84   C108  1.435448 S    
O27   Cr3   2.067582 S    
C54   C58   1.405096 A    
N16   O76   1.301549 A    
C50   C110  1.444320 S    
C52   C56   1.403964 A    
C40   C42   1.392059 A    
N14   O71   1.299658 A    
N22   O80   1.301266 A    
C14   O34   1.269248 A    
C26   C30   1.419454 A    
C95   C99   1.403715 A    
C5    C26   1.476449 S    
N9    O62   1.299823 A    
O31   Cr3   1.959363 S    
O24   Cr12  1.948440 S    
C95   N15   1.434524 S    
O9    Cr5   2.071175 S    
O30   Cr2   1.945876 S    
N4    O59   1.301256 A    
O22   C10   1.270689 A    
O1    C9    1.281204 A    
C106  N6    1.153796 T    
O48   Cr12  1.935219 S    
C4    O12   1.265040 A    
N27   O89   1.302256 A    
O36   Cr8   2.053056 S    
C98   C102  1.399935 A    
N10   O63   1.302148 A    
C83   C107  1.436430 S    
N2    O56   1.301038 A    
C5    O17   1.277438 A    
C4    C53   1.452022 S    
C13   C92   1.488473 S    
C21   C101  1.485790 S    
N11   O65   1.302145 A    
C40   H4    1.080782 S    
O16   Cr8   1.934277 S    
N2    O55   1.301030 A    
C46   C66   1.406092 A    
C15   O35   1.272161 A    
C1    C56   1.446488 S    
O6    C2    1.270587 A    
C82   C106  1.435445 S    
N9    O61   1.302156 A    
C87   C91   1.409845 A    
O13   C5    1.290111 A    
O28   Cr4   2.079186 S    
C48   H12   1.086568 S    
C91   C95   1.409064 A    
O12   Cr8   2.084373 S    
O22   Cr10  1.948440 S    
O37   Cr5   1.951016 S    
C29   C37   1.415064 A    
O5    C1    1.310811 A    
N24   O83   1.299337 A    
C99   H23   1.079127 S    
C58   C62   1.395198 A    
O39   Cr7   1.951016 S    
C19   C76   1.454145 S    
C92   C96   1.409012 A    
C61   N21   1.447033 S    
C35   C36   1.389719 A    
C13   O33   1.272149 A    
O40   Cr8   1.962169 S    
O8    C4    1.270095 A    
C43   H7    1.079970 S    
O13   Cr5   1.937819 S    
N13   O69   1.299604 A    
C100  H24   1.079037 S    
C34   N2    1.440467 S    
C39   C41   1.388373 A    
C11   C67   1.452387 S    
O47   Cr11  1.932953 S    
Cr2   O50   1.972237 S    
C86   N10   1.449480 S    
O15   Cr7   1.937819 S    
Cr1   O49   1.972067 S    
C94   C98   1.404368 A    
C46   H10   1.086425 S    
N4    O60   1.301301 A    
C53   C57   1.396928 A    
N26   O88   1.298291 A    
O26   C22   1.295634 A    
N15   O73   1.299605 A    
O21   Cr9   1.957080 S    
C82   C86   1.403503 A    
O31   C15   1.291949 A    
C62   N22   1.443620 S    
N15   O74   1.301554 A    
C32   C40   1.415815 A    
C49   C53   1.408406 A    
C2    O10   1.264925 A    
N14   O72   1.301550 A    
N28   O91   1.302240 A    
C75   C79   1.408940 A    
C19   O43   1.277089 A    
C38   H2    1.080790 S    
C81   C105  1.436421 S    
N16   O75   1.299659 A    
C45   H9    1.083490 S    
C3    C54   1.437655 S    
C73   C77   1.408924 A    
C63   C67   1.427173 A    
O34   Cr6   2.053056 S    
C96   C100  1.404372 A    
C49   C109  1.438910 S    
N22   O79   1.299838 A    
C22   C102  1.487543 S    
C8    O20   1.277357 A    
O14   Cr6   1.934277 S    
C16   C89   1.486331 S    
O38   C18   1.281923 A    
C84   C88   1.403516 A    
C77   N25   1.430261 S    
N27   O90   1.298005 A    
O25   Cr1   2.067582 S    
N12   O68   1.302134 A    
O37   C17   1.276773 A    
O28   C24   1.295624 A    
C48   C68   1.400687 A    
O14   C6    1.289289 A    
C57   C61   1.382361 A    
C90   C94   1.409003 A    
Cr12  O52   1.996881 S    
N26   O87   1.302243 A    
C18   C73   1.454780 S    
C99   C103  1.399190 A    
C23   C103  1.485748 S    
C58   H14   1.084708 S    
O7    Cr3   1.950662 S    
O24   C12   1.273712 A    
C17   O41   1.277092 A    
C86   C90   1.411390 A    
C47   H11   1.083301 S    
C87   N11   1.449173 S    
C85   N9    1.449165 S    
C41   C42   1.384699 A    
C6    O18   1.276403 A    
C55   C59   1.397645 A    
C71   H19   1.074171 S    
C84   C104  1.414624 A    
C83   C87   1.402738 A    
C25   C34   1.416047 A    
C20   O44   1.275386 A    
C59   H15   1.083950 S    
O1    Cr1   2.080979 S    
C71   C76   1.385401 A    
C44   H8    1.080332 S    
C51   C55   1.408426 A    
O19   Cr11  2.051008 S    
C36   N4    1.440145 S    
C60   C64   1.401125 A    
O32   C16   1.286830 A    
Cr10  O50   1.996881 S    
C69   C70   1.356948 A    
C24   C104  1.487547 S    
C10   C66   1.432824 S    
C85   C89   1.409824 A    
O2    C10   1.262045 A    
O46   C22   1.309802 A    
C80   N28   1.430622 S    
Cr5   O49   1.995632 S    
C93   C97   1.403732 A    
C61   C65   1.427392 A    
N13   O70   1.301557 A    
C6    C25   1.474721 S    
O26   Cr2   2.079186 S    
C79   N27   1.430266 S    
O23   C11   1.316311 A    
O33   Cr5   2.058008 S    
O10   Cr6   2.084373 S    
C25   C29   1.415745 A    
N12   O67   1.300089 A    
C82   C102  1.414626 A    
O35   Cr7   2.058008 S    
O4    Cr4   2.065972 S    
C15   C90   1.488443 S    
C88   N12   1.449486 S    
N28   O92   1.298294 A    
C74   C78   1.411879 A    
C64   N24   1.442681 S    
O29   Cr1   1.959363 S    
C108  N8    1.153795 T    
C14   C91   1.486315 S    
C88   C92   1.411406 A    
C16   O36   1.269261 A    
O40   C20   1.281910 A    
C30   C38   1.415717 A    
C27   C31   1.416233 A    
O18   Cr10  2.052720 S    
N1    O53   1.301241 A    
C70   H18   1.074040 S    
O43   Cr11  2.075362 S    
C37   C43   1.388383 A    
N3    O58   1.300292 A    
C52   C112  1.445471 S    
O27   C23   1.292518 A    
C7    C28   1.477185 S    
O41   Cr9   2.075362 S    
C46   C50   1.386323 A    
N25   O86   1.298008 A    
C89   C93   1.409059 A    
N21   O77   1.298058 A    
C45   C49   1.378681 A    
C47   C67   1.398749 A    
C71   C72   1.356938 A    
O16   C8    1.288085 A    
N11   O66   1.299822 A    
Cr9   O49   1.989355 S    
C9    C65   1.451922 S    
C28   C35   1.418637 A    
O38   Cr6   1.962169 S    
C64   C68   1.409355 A    
C47   C51   1.378789 A    
