data_mof_unit_49734.cif
_audit_creation_date              2012-12-11T16:50:49-0500
_audit_creation_method            fapswitch 2.2
_symmetry_space_group_name_H-M    P1
_symmetry_Int_Tables_number       1
_space_group_crystal_system       triclinic
_cell_length_a                    6.950393
_cell_length_b                    28.821679
_cell_length_c                    32.110992
_cell_angle_alpha                 100.923215
_cell_angle_beta                  89.403132
_cell_angle_gamma                 90.551656
_cell_volume                      6315.45876166

loop_
_atom_site_label
_atom_site_type_symbol
_atom_type_description
_atom_site_fract_x
_atom_site_fract_y
_atom_site_fract_z
_atom_type_partial_charge
O1    O     O_R   0.494350 0.453170 0.452520 -0.540352
O2    O     O_R   0.820980 0.455850 0.538220 -0.544346
O3    O     O_R   0.994300 0.546830 0.547480 -0.540024
C1    C     C_R   0.651073 0.446012 0.551722 0.724824
O4    O     O_R   0.823860 0.447590 0.452270 -0.544892
O5    O     O_R   0.997200 0.538510 0.460920 -0.535857
C2    C     C_R   0.655180 0.434786 0.436578 0.711406
O6    O     O_R   0.491440 0.461490 0.539080 -0.538821
O7    O     O_3   0.661790 0.529840 0.502940 -0.363747
V1    V     V_3+5 0.935470 0.494460 0.499450 1.406724
O8    O     O_R   0.327090 0.544150 0.461780 -0.540574
C3    C     C_R   0.159246 0.554248 0.448244 0.732693
O9    O     O_R   0.324210 0.552410 0.547730 -0.537372
C4    C     C_R   0.154986 0.565292 0.563327 0.712776
V2    V     V_3+5 0.435840 0.505540 0.500550 1.424228
O10   O     O_3   0.159650 0.470160 0.497060 -0.372179
C5    C     C_R   0.223537 0.873750 0.886199 -0.126964
H1    H     H_    0.351755 0.883267 0.904870 0.117915
C6    C     C_R   0.236507 0.838377 0.849815 -0.091195
H2    H     H_    0.373212 0.821101 0.841758 0.118666
C7    C     C_R   0.074924 0.825270 0.824178 0.118449
C8    C     C_R   0.897988 0.847076 0.836787 -0.099522
H3    H     H_    0.770594 0.837367 0.817889 0.156412
C9    C     C_R   0.884175 0.882070 0.873534 -0.144471
H4    H     H_    0.746226 0.898543 0.882001 0.137778
C10   C     C_R   0.047341 0.896203 0.898507 -0.050026
C11   C     C_R   0.956680 0.749972 0.779358 -0.182622
H5    H     H_    0.846680 0.747877 0.803091 0.122204
C12   C     C_R   0.966095 0.714067 0.743316 -0.093964
H6    H     H_    0.863252 0.685145 0.739881 0.129730
C13   C     C_R   0.107573 0.715259 0.712044 0.052969
C14   C     C_R   0.240031 0.752907 0.717546 -0.117196
H7    H     H_    0.348307 0.754569 0.693363 0.201286
C15   C     C_R   0.230771 0.789283 0.753392 0.280791
C16   C     C_R   0.088811 0.787911 0.785128 0.010804
C17   C     C_R   0.963599 0.668274 0.644813 0.300970
C18   C     C_R   0.976308 0.631582 0.609320 -0.178612
H8    H     H_    0.856467 0.625277 0.587621 0.161223
C19   C     C_R   0.143490 0.604104 0.601074 -0.106962
C20   C     C_R   0.298166 0.613945 0.629310 -0.130795
H9    H     H_    0.428662 0.593341 0.623951 0.129948
C21   C     C_R   0.284403 0.649829 0.665350 -0.143751
H10   H     H_    0.403988 0.656001 0.687109 0.150819
C22   C     C_R   0.117487 0.677287 0.673621 0.033858
C23   C     C_R   0.102147 0.659361 0.284390 0.586655
N1    N     N_R   0.117917 0.678181 0.326617 -0.554295
C24   C     C_R   0.114752 0.726168 0.340778 0.751786
C25   C     C_R   0.110146 0.757989 0.311680 -0.177722
C26   C     C_R   0.091317 0.738554 0.268016 -0.053344
C27   C     C_R   0.084444 0.688909 0.254505 0.010039
C28   C     C_R   0.121952 0.808062 0.324404 0.274775
C29   C     C_R   0.109924 0.837759 0.294011 0.264022
C30   C     C_R   0.092201 0.818047 0.250005 -0.164445
C31   C     C_R   0.079436 0.768359 0.237517 -0.053452
C32   C     C_R   0.054330 0.748063 0.194214 -0.005360
C33   C     C_R   0.044116 0.698749 0.181687 -0.147880
C34   C     C_R   0.060834 0.669593 0.211338 -0.135556
C35   C     C_R   0.089184 0.845840 0.217595 0.644594
N2    N     N_R   0.060460 0.825334 0.175904 -0.552238
C36   C     C_R   0.040067 0.777412 0.164089 0.610434
O11   O     O_2   0.103910 0.612023 0.271276 -0.522851
O12   O     O_2   0.112352 0.742444 0.382924 -0.435068
O13   O     O_2   0.119596 0.892826 0.227058 -0.474639
O14   O     O_2   0.006117 0.758072 0.123160 -0.528242
H11   H     H_    0.025218 0.682362 0.148718 0.164458
H12   H     H_    0.054167 0.631709 0.200240 0.168300
C37   C     C_R   0.191665 0.850402 0.111003 0.481194
C38   C     C_R   0.182262 0.880038 0.080691 -0.304251
H13   H     H_    0.284691 0.875631 0.054655 0.128754
C39   C     C_R   0.038432 0.914374 0.083194 -0.096706
C40   C     C_R   0.902429 0.918742 0.116257 -0.216657
H14   H     H_    0.790430 0.945048 0.118957 0.143299
C41   C     C_R   0.911174 0.889721 0.146545 -0.188064
H15   H     H_    0.805062 0.893893 0.171882 0.160771
C42   C     C_R   0.053404 0.854941 0.144015 0.280853
C43   C     C_R   0.300739 0.644948 0.380575 0.309000
C44   C     C_R   0.309974 0.614583 0.409962 -0.208813
H16   H     H_    0.441017 0.613625 0.427727 0.165490
C45   C     C_R   0.151127 0.586166 0.416790 -0.105963
C46   C     C_R   0.983736 0.588214 0.392947 -0.186019
H17   H     H_    0.859370 0.566509 0.396969 0.141443
C47   C     C_R   0.975362 0.617774 0.363112 -0.082944
H18   H     H_    0.846025 0.618123 0.344737 0.173006
C48   C     C_R   0.132018 0.646859 0.356892 0.312901
C49   C     C_R   0.542018 0.219438 0.834315 0.564522
N3    N     N_R   0.539531 0.171202 0.820406 -0.525216
C50   C     C_R   0.540493 0.152990 0.777425 0.632209
C51   C     C_R   0.544107 0.182963 0.747516 -0.122120
C52   C     C_R   0.556403 0.231968 0.761487 -0.011599
C53   C     C_R   0.556806 0.250488 0.805316 -0.019418
C54   C     C_R   0.539783 0.164590 0.703860 -0.185643
C55   C     C_R   0.547260 0.194112 0.673992 0.319010
C56   C     C_R   0.562522 0.243943 0.687559 -0.116831
C57   C     C_R   0.569258 0.262492 0.731655 -0.056420
C58   C     C_R   0.589923 0.311574 0.746188 -0.020520
C59   C     C_R   0.591816 0.329679 0.790045 -0.147228
C60   C     C_R   0.573136 0.299591 0.819216 -0.145673
C61   C     C_R   0.570823 0.276145 0.659171 0.621418
N4    N     N_R   0.596604 0.323708 0.673918 -0.553446
C62   C     C_R   0.609096 0.341514 0.716540 0.613675
O15   O     O_2   0.528824 0.237620 0.876169 -0.534343
O16   O     O_2   0.542344 0.105924 0.763043 -0.495209
H19   H     H_    0.530360 0.126773 0.692529 0.205316
O17   O     O_2   0.550644 0.260521 0.617184 -0.473867
O18   O     O_2   0.641123 0.388110 0.730281 -0.526213
H20   H     H_    0.606489 0.367271 0.802032 0.163915
H21   H     H_    0.574392 0.314941 0.852719 0.167065
C63   C     C_R   0.475084 0.391529 0.644291 0.481727
C64   C     C_R   0.491106 0.421256 0.614188 -0.302634
H22   H     H_    0.391687 0.450170 0.615513 0.127823
C65   C     C_R   0.637374 0.414639 0.583173 -0.102357
C66   C     C_R   0.770090 0.378240 0.582717 -0.220639
H23   H     H_    0.884208 0.372411 0.559123 0.146684
C67   C     C_R   0.755813 0.348697 0.612498 -0.186463
H24   H     H_    0.859807 0.320771 0.611537 0.160914
C68   C     C_R   0.610490 0.355275 0.643789 0.281187
C69   C     C_R   0.410716 0.102014 0.849624 0.441840
C70   C     C_R   0.418003 0.072137 0.879513 0.110244
C71   C     C_R   0.546149 0.081893 0.913870 -0.254345
C72   C     C_R   0.678112 0.119670 0.915902 0.334232
C73   C     C_R   0.677585 0.147659 0.884497 -0.285010
H25   H     H_    0.784714 0.175418 0.885825 0.176841
C74   C     C_R   0.541501 0.140221 0.851582 0.151085
C75   C     C_R   0.724758 0.117678 0.120322 -0.153337
H26   H     H_    0.855954 0.099956 0.108065 0.121204
C76   C     C_R   0.736269 0.153909 0.155997 -0.137330
H27   H     H_    0.875322 0.162653 0.170422 0.104556
C77   C     C_R   0.570106 0.177816 0.173386 0.100086
C78   C     C_R   0.392040 0.164727 0.153957 -0.139015
H28   H     H_    0.261607 0.182836 0.166196 0.100709
C79   C     C_R   0.380465 0.128516 0.118146 -0.164521
H29   H     H_    0.241088 0.119496 0.103965 0.118794
C80   C     C_R   0.546724 0.104405 0.100921 -0.050449
C81   C     C_R   0.442270 0.219437 0.244203 -0.141563
H30   H     H_    0.323129 0.194600 0.241592 0.117350
C82   C     C_R   0.456559 0.254438 0.280789 -0.160559
H31   H     H_    0.348353 0.255787 0.305399 0.130444
C83   C     C_R   0.611008 0.286778 0.286016 0.091910
C84   C     C_R   0.750383 0.283519 0.253566 -0.097863
H32   H     H_    0.868860 0.308542 0.256196 0.145495
C85   C     C_R   0.736887 0.248351 0.217053 -0.176226
H33   H     H_    0.845896 0.247051 0.192526 0.113021
C86   C     C_R   0.582754 0.215797 0.211921 0.082874
C87   C     C_R   0.799440 0.333574 0.347489 0.435407
C88   C     C_R   0.809314 0.370254 0.383117 -0.224298
H34   H     H_    0.945745 0.377664 0.399108 0.133180
C89   C     C_R   0.644953 0.396360 0.398457 -0.111162
C90   C     C_R   0.470450 0.385627 0.376817 -0.160100
H35   H     H_    0.340967 0.405075 0.387549 0.139124
C91   C     C_R   0.461083 0.350252 0.340479 -0.209547
H36   H     H_    0.325572 0.343777 0.323984 0.177187
C92   C     C_R   0.624811 0.324017 0.325084 -0.015974
O19   O     O_R   0.699170 0.038480 0.960880 -0.510842
O20   O     O_R   0.366800 0.052460 0.047690 -0.547445
O21   O     O_R   0.193520 0.961530 0.039110 -0.540455
C93   C     C_R   0.535644 0.065524 0.063184 0.672467
O22   O     O_R   0.369630 0.044100 0.961740 -0.524474
O23   O     O_R   0.196370 0.953120 0.952550 -0.527200
C94   C     C_R   0.538831 0.052911 0.947426 0.826581
O24   O     O_R   0.696320 0.046890 0.047450 -0.546615
O25   O     O_3   0.528890 0.970170 0.997080 -0.379549
V3    V     V_3+5 0.255190 0.005530 0.000540 1.459958
O26   O     O_R   0.866460 0.947530 0.952310 -0.546962
C95   C     C_R   0.035705 0.934602 0.936688 0.738274
O27   O     O_R   0.863630 0.955880 0.038270 -0.547464
C96   C     C_R   0.031407 0.945883 0.051703 0.707743
V4    V     V_3+5 0.754830 0.994440 0.999470 1.441162
O28   O     O_3   0.031000 0.029830 0.002920 -0.360944
Br1   Br    Br    0.165925 0.838265 0.382950 -0.223879
Br2   Br    Br    0.108087 0.905522 0.315111 -0.291737
O29   O     O_3   0.323472 0.813996 0.106793 -0.544675
C97   C     C_3   0.515317 0.830947 0.106776 0.108506
H37   H     H_    0.591827 0.819629 0.133335 0.146609
H38   H     H_    0.529308 0.870226 0.112156 0.069391
C98   C     C_3   0.617300 0.809629 0.065116 -0.320610
H39   H     H_    0.549839 0.822625 0.038347 0.168159
H40   H     H_    0.770181 0.821404 0.066817 0.177086
C99   C     C_3   0.610236 0.755667 0.056359 -0.592821
H41   H     H_    0.668711 0.741811 0.083586 0.246124
H42   H     H_    0.697815 0.741775 0.027670 0.191454
H43   H     H_    0.459846 0.742852 0.050647 0.243912
Br3   Br    Br    0.522267 0.682757 0.373088 -0.480742
Br4   Br    Br    0.542043 0.161850 0.615726 -0.360403
O30   O     O_3   0.339481 0.399905 0.676763 -0.543782
C100  C     C_3   0.149658 0.398787 0.661010 0.108337
H44   H     H_    0.067346 0.371449 0.674041 0.145463
H45   H     H_    0.139374 0.388731 0.625796 0.069002
C101  C     C_3   0.052265 0.446625 0.675779 -0.321942
H46   H     H_    0.127178 0.474213 0.661656 0.168000
H47   H     H_    0.901257 0.444180 0.664501 0.174635
C102  C     C_3   0.051337 0.461477 0.724033 -0.598851
H48   H     H_    0.983155 0.433654 0.738986 0.245340
H49   H     H_    0.968606 0.494645 0.733383 0.191474
H50   H     H_    0.200549 0.467940 0.735920 0.245702
O31   O     O_3   0.289434 0.090260 0.815654 -0.504158
C103  C     C_3   0.107122 0.109524 0.826746 0.094182
H51   H     H_    0.112597 0.148871 0.832134 0.105955
H52   H     H_    0.049794 0.098582 0.855996 0.131336
C104  C     C_3   0.971420 0.090388 0.790570 -0.227613
H53   H     H_    0.991099 0.051623 0.780523 0.249593
H54   H     H_    0.823032 0.095948 0.802505 0.184762
C105  C     C_3   0.004309 0.114451 0.752539 -0.613187
H55   H     H_    0.978315 0.153032 0.761675 0.186420
H56   H     H_    0.903820 0.099386 0.726754 0.242326
H57   H     H_    0.153759 0.108596 0.740277 0.265422
Br5   Br    Br    0.262392 0.015267 0.869846 -0.471945
O32   O     O_3   0.815465 0.127813 0.947312 -0.556470
C106  C     C_3   0.744558 0.161782 0.981418 0.101044
H58   H     H_    0.599781 0.151382 0.992113 0.087477
H59   H     H_    0.734926 0.196861 0.971819 0.143303
C107  C     C_3   0.882702 0.165676 0.018670 -0.288262
H60   H     H_    0.891925 0.130845 0.028571 0.202971
H61   H     H_    0.028630 0.175517 0.008607 0.197965
C108  C     C_3   0.815796 0.202663 0.056407 -0.837774
H62   H     H_    0.812387 0.238121 0.047649 0.239170
H63   H     H_    0.916993 0.203895 0.083140 0.231990
H64   H     H_    0.669897 0.193600 0.067009 0.241341
O33   O     O_3   0.963409 0.307963 0.334301 -0.592966
C109  C     C_3   0.961397 0.265513 0.350442 0.054679
H65   H     H_    0.021189 0.237251 0.325415 0.147967
H66   H     H_    0.814297 0.253175 0.357938 0.120707
C110  C     C_3   0.088671 0.270964 0.389740 -0.354293
H67   H     H_    0.233939 0.283728 0.382223 0.207957
H68   H     H_    0.024787 0.297429 0.415748 0.195314
C111  C     C_3   0.108678 0.224183 0.404871 -0.737471
H69   H     H_    0.965245 0.211007 0.413143 0.243710
H70   H     H_    0.200578 0.229398 0.433487 0.244955
H71   H     H_    0.176866 0.197405 0.379748 0.233114
Br6   Br    Br    0.406680 0.841437 0.755394 -0.448253
Br7   Br    Br    0.738986 0.707215 0.650845 -0.528656

loop_
_geom_bond_atom_site_label_1
_geom_bond_atom_site_label_2
_ccdc_geom_bond_type
C32   C33   A    
O27   C96   A    
C67   C68   A    
C11   C12   A    
C80   C93   S    
C41   H15   S    
O26   V4    S    
C65   C66   A    
C34   H12   S    
C1    O6    A    
C77   C78   A    
C43   C48   A    
C24   O12   S    
C66   C67   A    
C67   H24   S    
O33   C109  S    
C98   H40   S    
C44   H16   S    
C33   C34   A    
C78   C79   A    
C62   O18   S    
C76   H27   S    
C105  H56   S    
C75   C80   A    
C101  C102  S    
C5    C10   A    
C11   H5    S    
C17   C18   A    
C70   Br5   S    
C90   C91   A    
C64   C65   A    
C88   H34   S    
C46   H17   S    
C108  H63   S    
C100  H45   S    
O21   C96   A    
C33   H11   S    
C3    C45   S    
C35   O13   S    
C111  H71   S    
C63   C64   A    
C101  H47   S    
C15   C16   A    
O24   V4    S    
C23   O11   S    
C52   C57   A    
C70   C71   A    
C89   C90   A    
C111  H70   S    
C81   C86   A    
C31   C32   A    
O8    V2    S    
C104  H53   S    
C25   C28   A    
O26   C95   A    
C106  H58   S    
C105  H57   S    
C104  C105  S    
C39   C40   A    
O1    V2    S    
C60   H21   S    
C12   H6    S    
O7    V1    S    
C53   C60   A    
O20   C93   A    
C97   C98   S    
O23   C95   A    
C38   C39   A    
C20   C21   A    
C4    C19   S    
N2    C36   A    
O27   V4    S    
O1    C2    A    
O9    C4    A    
O19   V4    S    
C12   C13   A    
C41   C42   A    
C57   C58   A    
C21   C22   A    
C103  C104  S    
C43   Br3   S    
C8    H3    S    
C66   H23   S    
C88   C89   A    
C97   H38   S    
C99   H41   S    
C98   C99   S    
C2    C89   S    
C43   C44   A    
C44   C45   A    
O21   V3    S    
C49   C53   A    
C105  H55   S    
C63   O30   S    
O32   C106  S    
C99   H43   S    
C24   C25   A    
C28   Br1   S    
C9    H4    S    
C103  H52   S    
C13   C22   S    
C29   Br2   S    
V4    O28   S    
C40   C41   A    
C108  H62   S    
C38   H13   S    
C100  C101  S    
C81   C82   A    
C110  C111  S    
C83   C92   S    
C35   N2    A    
C49   N3    A    
C108  H64   S    
C28   C29   A    
C101  H46   S    
C14   C15   A    
O19   C94   A    
O2    C1    A    
C37   C38   A    
C102  H49   S    
C107  H60   S    
C87   O33   S    
C18   H8    S    
C69   O31   S    
C109  H66   S    
C50   O16   S    
O4    C2    A    
C99   H42   S    
C98   H39   S    
C51   C54   A    
C93   O24   A    
C84   H32   S    
C107  H61   S    
C59   C60   A    
C5    H1    S    
C56   C57   A    
C29   C30   A    
C90   H35   S    
C71   C72   A    
C110  H68   S    
O29   C97   S    
C73   H25   S    
O25   V4    S    
O3    C4    A    
V3    O28   S    
C106  H59   S    
C25   C26   A    
N3    C74   S    
C1    C65   S    
C26   C27   A    
O6    V2    S    
C47   C48   A    
O9    V2    S    
C8    C9    A    
C45   C46   A    
C17   C22   A    
C15   Br6   S    
C37   C42   A    
C21   H10   S    
C79   H29   S    
O2    V1    S    
N2    C42   S    
C54   C55   A    
C49   O15   S    
C97   H37   S    
N3    C50   A    
C82   C83   A    
C75   C76   A    
C78   H28   S    
C102  H48   S    
C109  H65   S    
C59   H20   S    
N1    C24   A    
C20   H9    S    
C76   C77   A    
C11   C16   A    
C111  H69   S    
C58   C62   A    
C27   C34   A    
O20   V3    S    
C13   C14   A    
C71   C94   S    
C54   H19   S    
C103  H51   S    
C79   C80   A    
C55   Br4   S    
O5    V1    S    
O22   C94   A    
C30   C35   A    
C30   C31   A    
C81   H30   S    
C7    C16   S    
N4    C68   S    
C69   C70   A    
C7    C8    A    
C91   H36   S    
N4    C62   A    
C36   O14   S    
C37   O29   S    
C14   H7    S    
C63   C68   A    
C6    H2    S    
C85   C86   A    
O7    V2    S    
C102  H50   S    
O4    V1    S    
C87   C92   A    
O3    V1    S    
V1    O10   S    
C85   H33   S    
C109  C110  S    
O5    C3    A    
C84   C85   A    
C9    C10   A    
C100  H44   S    
O25   V3    S    
C23   C27   A    
C106  C107  S    
C61   O17   S    
V2    O10   S    
C56   C61   A    
C72   O32   S    
C10   C95   S    
C55   C56   A    
C5    C6    A    
C46   C47   A    
N1    C48   S    
C91   C92   A    
C69   C74   A    
C110  H67   S    
C77   C86   S    
C73   C74   A    
C39   C96   S    
C83   C84   A    
O23   V3    S    
O31   C103  S    
C19   C20   A    
C23   N1    A    
C87   C88   A    
C40   H14   S    
C107  C108  S    
C51   C52   A    
C50   C51   A    
C18   C19   A    
C61   N4    A    
C64   H22   S    
C58   C59   A    
C104  H54   S    
C17   Br7   S    
C72   C73   A    
C82   H31   S    
O30   C100  S    
C47   H18   S    
C52   C53   A    
C32   C36   A    
O22   V3    S    
C26   C31   A    
O8    C3    A    
C75   H26   S    
C6    C7    A    
