data_mof_unit_44011.cif
_audit_creation_date              2013-03-05T16:30:50-0500
_audit_creation_method            fapswitch 2.2
_symmetry_space_group_name_H-M    P1
_symmetry_Int_Tables_number       1
_space_group_crystal_system       triclinic
_cell_length_a                    11.048106
_cell_length_b                    10.767264
_cell_length_c                    9.581429
_cell_angle_alpha                 90.565683
_cell_angle_beta                  102.859252
_cell_angle_gamma                 90.303163
_cell_volume                      1111.11332168

loop_
_atom_site_label
_atom_site_type_symbol
_atom_site_description
_atom_site_fract_x
_atom_site_fract_y
_atom_site_fract_z
_atom_type_partial_charge
O1    O     O_R   0.500000 0.319640 0.618810 -0.583807
O2    O     O_R   0.500010 0.319680 0.381230 -0.541378
C1    C     C_R   0.498318 0.262654 0.499397 0.865718
O3    O     O_R   0.320680 0.500000 0.575130 -0.592186
O4    O     O_R   0.320690 0.500040 0.337550 -0.532232
C2    C     C_R   0.262837 0.498583 0.441718 0.944226
Cu1   Cu    Cu3+1 0.499990 0.499980 0.640670 0.985264
Cu2   Cu    Cu3+1 0.500010 0.500020 0.359330 1.036791
O5    O     O_R   0.499990 0.680320 0.618770 -0.577093
O6    O     O_R   0.500000 0.680360 0.381190 -0.574231
O7    O     O_R   0.679310 0.499960 0.662450 -0.581030
O8    O     O_R   0.679320 0.500000 0.424870 -0.567540
C3    C     C_R   0.499731 0.737297 0.500782 0.886646
C4    C     C_R   0.737164 0.499555 0.558266 0.846765
H1    H     H_    0.882401 0.490547 0.373324 0.206330
H2    H     H_    0.117626 0.496246 0.626777 0.182704
C5    C     C_2   0.127646 0.496304 0.408907 -0.203558
C6    C     C_2   0.067391 0.495296 0.515385 -0.121728
H3    H     H_    0.922792 0.501643 0.702269 0.165122
C7    C     C_2   0.872329 0.498509 0.591059 -0.327226
C8    C     C_2   0.932608 0.494166 0.484665 -0.090871
H4    H     H_    0.077198 0.495721 0.297670 0.173915
C9    C     C_R   0.592169 0.065285 0.581719 0.072300
C10   C     C_R   0.492557 0.129286 0.500108 -0.188872
C11   C     C_R   0.381585 0.063946 0.441633 0.197190
C12   C     C_R   0.382495 0.932941 0.439107 0.269617
C13   C     C_R   0.492678 0.870488 0.503387 -0.235849
C14   C     C_R   0.591847 0.937837 0.584684 0.049976
C15   C     C_3   0.727380 0.931337 0.587642 -0.397303
C16   C     C_3   0.727410 0.072509 0.583697 -0.418024
H5    H     H_    0.781370 0.893716 0.690272 0.210167
H6    H     H_    0.746749 0.887324 0.489699 0.243562
H7    H     H_    0.781645 0.116294 0.683945 0.213615
H8    H     H_    0.746130 0.110573 0.482992 0.214063
C17   C     C_R   0.587186 0.566840 0.096623 0.182918
N1    N     N_R   0.500780 0.500930 0.148120 -0.235332
C18   C     C_R   0.421684 0.424892 0.051075 0.334758
C19   C     C_R   0.422319 0.425214 0.903426 -0.084025
H9    H     H_    0.357854 0.366578 0.829353 0.175797
N2    N     N_R   0.500790 0.500890 0.852210 -0.209668
C20   C     C_R   0.586731 0.567088 0.949393 0.200723
C21   C     C_3   0.607526 0.703901 0.949549 -0.481482
C22   C     C_3   0.608556 0.703976 0.108409 0.054036
H10   H     H_    0.698267 0.727903 0.924464 0.228060
H11   H     H_    0.526801 0.754243 0.885301 0.207387
H12   H     H_    0.529918 0.755986 0.135124 0.172315
Br1   Br    Br    0.302870 0.316523 0.103594 -0.417036
Br2   Br    Br    0.770396 0.744752 0.227418 -0.485452
Br3   Br    Br    0.227196 0.150813 0.382089 -0.379396
N3    N     N_R   0.272673 0.864422 0.372986 0.145878
O9    O     O_R   0.226564 0.782372 0.445722 -0.363807
O10   O     O_R   0.216537 0.886163 0.241163 -0.276718

loop_
_geom_bond_atom_site_label_1
_geom_bond_atom_site_label_2
_geom_bond_distance
_ccdc_geom_bond_type
O4    Cu2   1.945371 S    
N3    O10   1.301325 A    
Cu1   N2    2.024832 S    
N2    C20   1.364852 A    
C18   C19   1.416301 A    
C18   Br1   1.904527 S    
C6    C8    1.452190 S    
C17   C22   1.493301 S    
C22   Br2   1.940188 S    
C5    H4    1.087217 S    
Cu2   O8    1.940393 S    
C9    C10   1.390358 A    
C5    C6    1.336615 D    
C1    C10   1.437239 S    
Cu1   Cu2   2.695694 S    
C15   H5    1.111839 S    
H2    C6    1.087802 S    
C9    C14   1.372844 A    
C10   C11   1.410444 A    
Cu1   O7    1.945373 S    
C12   C13   1.412971 A    
C19   H9    1.082116 S    
C21   H10   1.111454 S    
O3    Cu1   1.940392 S    
O3    C2    1.295579 A    
C14   C15   1.493354 S    
C19   N2    1.358730 A    
O8    C4    1.295613 A    
O2    C1    1.297032 A    
C15   H6    1.110275 S    
O1    C1    1.289356 A    
C12   N3    1.434208 S    
Cu2   N1    2.025723 S    
O4    C2    1.299647 A    
C17   C20   1.409587 A    
C22   H12   1.111411 S    
C11   Br3   1.924579 S    
C21   C22   1.519604 S    
C16   H8    1.112435 S    
C15   C16   1.520874 S    
C9    C16   1.491658 S    
C4    C7    1.456104 S    
H1    C8    1.087583 S    
C7    C8    1.336590 D    
Cu2   O6    1.950979 S    
C20   C21   1.489641 S    
O2    Cu2   1.955132 S    
O7    C4    1.299605 A    
Cu1   O5    1.955133 S    
C2    C5    1.456286 S    
O5    C3    1.290995 A    
N1    C18   1.383563 A    
C17   N1    1.366673 A    
C16   H7    1.111660 S    
N3    O9    1.300427 A    
C11   C12   1.410664 A    
O1    Cu1   1.950978 S    
C21   H11   1.111536 S    
C3    C13   1.436896 S    
H3    C7    1.087207 S    
C13   C14   1.390534 A    
O6    C3    1.294804 A    
