data_mof_unit_31150.cif
_audit_creation_date              2012-12-10T17:49:38-0500
_audit_creation_method            fapswitch 2.2
_symmetry_space_group_name_H-M    P1
_symmetry_Int_Tables_number       1
_space_group_crystal_system       triclinic
_cell_length_a                    10.482716
_cell_length_b                    10.629437
_cell_length_c                    9.966478
_cell_angle_alpha                 89.05466
_cell_angle_beta                  90.859767
_cell_angle_gamma                 92.591555
_cell_volume                      1109.11867046

loop_
_atom_site_label
_atom_site_type_symbol
_atom_type_description
_atom_site_fract_x
_atom_site_fract_y
_atom_site_fract_z
_atom_type_partial_charge
C1    C     C_R   0.508960 0.261193 0.501849 0.969599
C2    C     C_R   0.626256 0.066250 0.551160 -0.016273
C3    C     C_R   0.515217 0.128345 0.506804 -0.110007
C4    C     C_R   0.257674 0.498874 0.499075 0.943850
C5    C     C_R   0.406299 0.062810 0.458778 -0.205628
C6    C     C_R   0.403189 0.934234 0.455592 -0.179136
C7    C     C_R   0.510797 0.871618 0.495589 -0.053953
C8    C     C_R   0.322859 0.331890 0.132132 0.630338
C9    C     C_R   0.240047 0.254196 0.056754 -0.237613
C10   C     C_R   0.244273 0.256393 0.919133 -0.319586
C11   C     C_R   0.331310 0.336965 0.855010 -0.162656
C12   C     C_3   0.961698 0.601280 0.429874 -0.311897
C13   C     C_R   0.415665 0.419550 0.926190 0.114325
C14   C     C_R   0.414086 0.418607 0.070715 0.033197
C15   C     C_R   0.581016 0.576610 0.071330 -0.119864
C16   C     C_R   0.499856 0.739136 0.498679 0.866025
C17   C     C_R   0.580968 0.576531 0.928699 -0.113201
C18   C     C_R   0.742428 0.501489 0.500899 0.913257
C19   C     C_3   0.038279 0.398235 0.569957 -0.235292
C20   C     C_3   0.950299 0.393719 0.444049 -0.084738
C21   C     C_3   0.877586 0.501211 0.502538 -0.045470
C22   C     C_3   0.962731 0.505591 0.628830 -0.198806
C23   C     C_3   0.037218 0.493657 0.371471 -0.192651
C24   C     C_3   0.048803 0.603656 0.554996 0.642828
C25   C     C_3   0.762566 0.259238 0.792234 0.124051
C26   C     C_3   0.663883 0.185522 0.879565 -0.379976
C27   C     C_3   0.685751 0.212556 0.028304 -0.931029
C28   C     C_3   0.122614 0.497988 0.497391 -0.071036
C29   C     C_R   0.737286 0.127781 0.609238 0.457905
C30   C     C_R   0.850063 0.061650 0.625104 -0.245258
C31   C     C_R   0.849842 0.933530 0.601322 -0.198907
C32   C     C_R   0.737680 0.869475 0.561637 -0.196559
C33   C     C_R   0.625149 0.934852 0.536475 0.036643
F1    F     F_    0.307580 0.314766 0.263650 -0.679153
F2    F     F_    0.105838 0.710428 0.611437 -0.697593
H1    H     H_    0.904803 0.307652 0.399044 0.148505
H2    H     H_    0.074350 0.315789 0.626194 0.139635
H3    H     H_    0.929527 0.512659 0.733533 0.142900
H4    H     H_    0.926253 0.684607 0.374659 0.155316
H5    H     H_    0.071574 0.488053 0.266977 0.179078
H6    H     H_    0.322281 0.111547 0.426210 0.188030
H7    H     H_    0.937962 0.109079 0.658783 0.140780
H8    H     H_    0.760513 0.360116 0.818698 0.179174
H9    H     H_    0.860920 0.230857 0.817305 0.110838
H10   H     H_    0.566248 0.211857 0.849722 0.250753
H11   H     H_    0.670675 0.082689 0.864673 0.217440
H12   H     H_    0.936320 0.883147 0.616673 0.221892
H13   H     H_    0.680077 0.314777 0.047057 0.265690
H14   H     H_    0.781102 0.181525 0.061561 0.259830
H15   H     H_    0.611368 0.160701 0.088297 0.276560
H16   H     H_    0.740767 0.769062 0.547295 0.133923
H17   H     H_    0.316600 0.883214 0.422848 0.167248
H18   H     H_    0.647491 0.639392 0.124498 0.146373
H19   H     H_    0.172039 0.190089 0.106520 0.175100
H20   H     H_    0.180306 0.194493 0.861502 0.174724
H21   H     H_    0.330305 0.330156 0.749099 0.215950
H22   H     H_    0.647475 0.639291 0.875410 0.143691
N1    N     N_R   0.498800 0.498800 0.142780 -0.106645
N2    N     N_R   0.498760 0.498720 0.857170 -0.107400
O1    O     O_R   0.500000 0.316780 0.614690 -0.633498
O2    O     O_R   0.499990 0.316750 0.385360 -0.553686
O3    O     O_R   0.313960 0.499980 0.614650 -0.632356
O4    O     O_R   0.313940 0.499960 0.385310 -0.558566
O5    O     O_R   0.500010 0.683250 0.614640 -0.601866
O6    O     O_R   0.500000 0.683220 0.385310 -0.628739
O7    O     O_R   0.686060 0.500040 0.614690 -0.615379
O8    O     O_R   0.686040 0.500020 0.385350 -0.636028
O9    O     O_3   0.734461 0.250649 0.652486 -0.653628
Zn1   Zn    Zn3+2 0.500010 0.500020 0.653130 0.960942
Zn2   Zn    Zn3+2 0.499990 0.499980 0.346870 0.987685

loop_
_geom_bond_atom_site_label_1
_geom_bond_atom_site_label_2
_ccdc_geom_bond_type
C27   H13   S    
O2    Zn2   S    
C20   C23   S    
C32   H16   S    
C29   C30   A    
C13   N2    A    
C4    O3    A    
C8    C9    A    
C18   O7    A    
C18   C21   S    
C11   C13   A    
C9    C10   A    
C12   C24   S    
C19   C20   S    
C12   C23   S    
O4    Zn2   S    
C30   C31   A    
C3    C5    A    
O8    Zn2   S    
C32   C33   A    
C25   H8    S    
C12   H4    S    
C17   H22   S    
C2    C3    A    
C25   C26   S    
C31   H12   S    
O5    Zn1   S    
C10   H20   S    
C7    C33   A    
C4    O4    A    
C26   C27   S    
C6    C7    A    
C25   O9    S    
C12   C21   S    
O1    Zn1   S    
N2    Zn1   S    
C2    C29   A    
C15   H18   S    
C25   H9    S    
C7    C16   S    
C4    C28   S    
C17   N2    A    
C16   O5    A    
C19   C28   S    
C5    C6    A    
C14   N1    A    
C15   N1    A    
C22   C24   S    
O7    Zn1   S    
C23   C28   S    
C10   C11   A    
C26   H11   S    
C1    O2    A    
O6    Zn2   S    
C29   O9    S    
C27   H14   S    
C19   C22   S    
C20   C21   S    
C2    C33   A    
C27   H15   S    
C1    O1    A    
C8    F1    S    
C15   C17   A    
C23   H5    S    
C5    H6    S    
N1    Zn2   S    
C20   H1    S    
C8    C14   A    
C16   O6    A    
C19   H2    S    
C26   H10   S    
C6    H17   S    
C18   O8    A    
C21   C22   S    
C9    H19   S    
C24   F2    S    
C30   H7    S    
C11   H21   S    
C31   C32   A    
O3    Zn1   S    
C24   C28   S    
C13   C14   A    
C1    C3    S    
C22   H3    S    
