data_mof_unit_62967.cif
_audit_creation_date              2012-12-10T17:09:42-0500
_audit_creation_method            fapswitch 2.2
_symmetry_space_group_name_H-M    P1
_symmetry_Int_Tables_number       1
_space_group_crystal_system       triclinic
_cell_length_a                    21.68154
_cell_length_b                    21.681671
_cell_length_c                    22.247413
_cell_angle_alpha                 118.831444
_cell_angle_beta                  120.798862
_cell_angle_gamma                 88.94581
_cell_volume                      7498.16781643

loop_
_atom_site_label
_atom_site_type_symbol
_atom_type_description
_atom_site_fract_x
_atom_site_fract_y
_atom_site_fract_z
_atom_type_partial_charge
Br1   Br    Br    0.669520 0.322181 0.097559 -0.408434
Br2   Br    Br    0.122685 0.589473 0.901605 -0.476952
Br3   Br    Br    0.613691 0.113764 0.918403 -0.433773
Br4   Br    Br    0.350197 0.926547 0.100519 -0.505932
Br5   Br    Br    0.326176 0.668060 0.892341 -0.397906
Br6   Br    Br    0.185313 0.082299 0.260664 -0.375940
Br7   Br    Br    0.814756 0.916877 0.736776 -0.352479
Br8   Br    Br    0.661426 0.366278 0.605813 -0.522447
Br9   Br    Br    0.338564 0.634563 0.397248 -0.507416
Br10  Br    Br    0.736625 0.479519 0.338367 -0.376913
Br11  Br    Br    0.264180 0.524097 0.663336 -0.379359
Br12  Br    Br    0.867760 0.402160 0.079353 -0.473921
C1    C     C_R   0.496008 0.116872 0.493480 0.837036
C2    C     C_3   0.204974 0.708864 0.916984 0.028846
C3    C     C_3   0.767368 0.208902 0.051359 -0.258250
C4    C     C_3   0.230150 0.793291 0.950670 -0.294196
C5    C     C_3   0.713488 0.158116 0.952231 0.120660
C6    C     C_3   0.265446 0.843300 0.047455 0.081919
C7    C     C_1   0.840755 0.338728 0.174817 -0.031164
C8    C     C_1   0.160503 0.661908 0.825316 0.185055
C9    C     C_1   0.664948 0.162946 0.825236 -0.075954
C10   C     C_1   0.334928 0.837293 0.174898 -0.002515
C11   C     C_1   0.627103 0.125906 0.750424 -0.065783
C12   C     C_R   0.503849 0.882988 0.506295 0.838365
C13   C     C_1   0.372935 0.874266 0.249667 -0.063790
C14   C     C_R   0.350532 0.135997 0.377628 -0.050113
C15   C     C_R   0.649351 0.863689 0.621601 -0.047696
C16   C     C_R   0.581513 0.081772 0.661863 0.883915
C17   C     C_R   0.418507 0.918259 0.338168 0.878123
C18   C     C_R   0.283440 0.156290 0.346901 0.226345
C19   C     C_R   0.716425 0.843178 0.651468 0.227038
C20   C     C_R   0.288000 0.230884 0.374895 -0.063252
C21   C     C_R   0.711751 0.768503 0.623203 -0.073905
C22   C     C_R   0.358720 0.282824 0.426480 -0.155583
C23   C     C_1   0.876673 0.376224 0.249562 -0.092475
C24   C     C_R   0.641040 0.716724 0.572238 -0.155016
C25   C     C_R   0.425607 0.263421 0.456179 0.022984
C26   C     C_R   0.574216 0.736321 0.543188 0.023484
C27   C     C_R   0.422178 0.191913 0.440238 -0.024404
C28   C     C_R   0.577664 0.807844 0.559231 -0.025523
C29   C     C_R   0.491522 0.180104 0.486718 -0.144712
C30   C     C_R   0.508292 0.819815 0.513204 -0.149946
C31   C     C_R   0.560496 0.233753 0.536215 -0.171910
C32   C     C_R   0.439259 0.766494 0.464591 -0.170182
C33   C     C_R   0.563481 0.299728 0.542321 0.253888
C34   C     C_1   0.124202 0.623988 0.750516 -0.031352
C35   C     C_R   0.436346 0.700598 0.458735 0.253044
C36   C     C_R   0.496413 0.314729 0.502229 -0.137368
C37   C     C_R   0.503463 0.685265 0.497835 -0.139855
C38   C     C_R   0.748378 0.493468 0.436312 0.259510
C39   C     C_R   0.252029 0.508373 0.564593 0.256727
C40   C     C_R   0.767713 0.513286 0.645294 -0.088602
C41   C     C_R   0.230866 0.483177 0.352596 -0.092423
C42   C     C_R   0.817166 0.503787 0.504679 -0.157129
C43   C     C_R   0.182817 0.496088 0.495381 -0.160185
C44   C     C_R   0.880070 0.500294 0.499440 0.901834
C45   C     C_3   0.710716 0.208239 0.917133 -0.072006
C46   C     C_R   0.119974 0.499740 0.500681 0.898152
C47   C     C_R   0.919271 0.419552 0.338068 0.893914
C48   C     C_R   0.080921 0.580475 0.661950 0.884525
C49   C     C_R   0.621417 0.497637 0.501487 0.886929
C50   C     C_R   0.378545 0.502489 0.498481 0.890402
C51   C     C_R   0.500194 0.380134 0.500920 0.902539
C52   C     C_R   0.499852 0.619854 0.499098 0.902752
C53   C     C_R   0.759890 0.508389 0.575602 0.139781
C54   C     C_R   0.239430 0.489761 0.423352 0.143174
C55   C     C_R   0.895268 0.526342 0.646027 -0.097410
C56   C     C_3   0.289024 0.791823 0.083111 -0.066063
C57   C     C_R   0.103449 0.468167 0.351754 -0.156291
C58   C     C_R   0.901172 0.531829 0.713758 -0.041722
C59   C     C_R   0.096637 0.459991 0.282514 -0.084136
C60   C     C_R   0.837462 0.524865 0.713163 -0.105250
C61   C     C_R   0.160330 0.468241 0.283297 -0.062438
C62   C     C_R   0.685618 0.490982 0.437229 -0.196267
C63   C     C_R   0.314736 0.511003 0.563627 -0.197969
C64   C     C_R   0.690115 0.498049 0.505321 -0.136229
C65   C     C_R   0.309774 0.502177 0.494607 -0.141151
C66   C     C_R   0.824578 0.512905 0.575476 0.053235
C67   C     C_3   0.724555 0.317613 0.047739 0.044076
C68   C     C_R   0.174785 0.484662 0.423474 0.075153
C69   C     C_3   0.676465 0.273730 0.948329 -0.153250
C70   C     C_3   0.335050 0.742715 0.051814 -0.174006
C71   C     C_3   0.794240 0.244940 0.951828 -0.304414
C72   C     C_3   0.215291 0.735611 0.047756 -0.379632
C73   C     C_3   0.843676 0.300193 0.050557 0.109399
C74   C     C_3   0.159565 0.695616 0.949614 0.071924
C75   C     C_2   0.733318 0.088163 0.912759 0.635458
C76   C     C_2   0.216530 0.885240 0.072180 0.404123
C77   C     C_2   0.591492 0.245553 0.905131 0.578151
C78   C     C_3   0.279330 0.687069 0.953320 -0.037175
C79   C     C_2   0.405219 0.791476 0.078012 0.629629
C80   C     C_2   0.829214 0.180930 0.095238 0.444774
C81   C     C_2   0.176317 0.821644 0.899766 0.558806
C82   C     C_2   0.346610 0.057039 0.334517 0.502515
C83   C     C_2   0.653249 0.942638 0.665515 0.505211
C84   C     C_2   0.219302 0.255172 0.348057 0.481525
C85   C     C_2   0.780348 0.743966 0.649185 0.493495
C86   C     C_2   0.681919 0.326824 0.923118 0.508617
C87   C     C_2   0.363650 0.697440 0.090762 0.497525
C88   C     C_2   0.828951 0.190320 0.914175 0.485220
C89   C     C_3   0.796080 0.291877 0.083056 -0.028807
C90   C     C_2   0.179430 0.764898 0.095702 0.445278
C91   C     C_2   0.922221 0.293228 0.096376 0.612240
C92   C     C_2   0.088318 0.718873 0.920739 0.581448
H1    H     H_    0.841972 0.528262 0.765513 0.179771
H2    H     H_    0.277315 0.490734 0.348920 0.197377
H3    H     H_    0.632842 0.483856 0.384130 0.201554
H4    H     H_    0.367821 0.519551 0.617427 0.204281
H5    H     H_    0.946640 0.532850 0.649764 0.144071
H6    H     H_    0.052273 0.461168 0.348270 0.128717
H7    H     H_    0.955245 0.540979 0.766619 0.207007
H8    H     H_    0.041885 0.448059 0.228515 0.193582
H9    H     H_    0.744515 0.377468 0.075293 0.237930
H10   H     H_    0.262273 0.631000 0.938757 0.227928
H11   H     H_    0.790471 0.279116 0.926546 0.153457
H12   H     H_    0.155186 0.463237 0.229975 0.182474
H13   H     H_    0.233896 0.691729 0.058396 0.228005
H14   H     H_    0.735555 0.071937 0.859800 0.070557
H15   H     H_    0.237576 0.917618 0.137911 0.137854
H16   H     H_    0.568260 0.242498 0.936783 0.158238
H17   H     H_    0.403917 0.804828 0.036392 0.122060
H18   H     H_    0.838462 0.183873 0.149478 0.093436
H19   H     H_    0.196996 0.876490 0.916356 0.122562
H20   H     H_    0.390510 0.041708 0.325487 0.018846
H21   H     H_    0.608999 0.957539 0.674042 -0.001386
H22   H     H_    0.164020 0.217459 0.312491 0.128436
H23   H     H_    0.732105 0.208670 0.073888 0.210059
H24   H     H_    0.835585 0.781558 0.684346 0.134795
H25   H     H_    0.685870 0.308650 0.870767 0.082619
H26   H     H_    0.361306 0.707534 0.142198 0.074868
H27   H     H_    0.816975 0.176200 0.854552 0.100487
H28   H     H_    0.158824 0.811973 0.102589 0.085512
H29   H     H_    0.943101 0.288567 0.149407 0.052433
H30   H     H_    0.080620 0.763790 0.964260 0.087163
H31   H     H_    0.276881 0.799261 0.944250 0.166812
H32   H     H_    0.613048 0.224578 0.571202 0.197115
H33   H     H_    0.386639 0.775887 0.430202 0.203713
H34   H     H_    0.361473 0.339473 0.444973 0.181313
H35   H     H_    0.638219 0.660058 0.553711 0.180103
H36   H     H_    0.721194 0.506889 0.649172 0.200476
O1    O     O_R   0.448260 0.091600 0.499990 -0.598341
O2    O     O_R   0.448270 0.908380 0.500020 -0.614770
O3    O     O_R   0.509690 0.061420 0.622860 -0.586233
O4    O     O_R   0.490310 0.938580 0.377140 -0.594232
O5    O     O_R   0.613170 0.061430 0.622850 -0.591626
O6    O     O_R   0.386830 0.938570 0.377150 -0.577023
O7    O     O_R   0.908550 0.551730 0.500000 -0.579947
O8    O     O_R   0.091450 0.448270 0.500000 -0.589163
O9    O     O_R   0.908530 0.448300 0.500020 -0.622763
O10   O     O_R   0.091470 0.551700 0.499980 -0.617870
O11   O     O_R   0.938770 0.490290 0.377130 -0.593120
O12   O     O_R   0.551740 0.908400 0.500010 -0.601083
O13   O     O_R   0.061230 0.509710 0.622870 -0.602284
O14   O     O_R   0.938740 0.386860 0.377150 -0.619312
O15   O     O_R   0.061260 0.613140 0.622850 -0.596862
O16   O     O_R   0.626330 0.534680 0.569330 -0.628884
O17   O     O_R   0.373670 0.465320 0.430670 -0.628943
O18   O     O_2   0.739904 0.044896 0.934446 -0.478855
O19   O     O_2   0.156111 0.886632 0.022450 -0.538442
O20   O     O_2   0.546463 0.223222 0.831245 -0.540492
O21   O     O_2   0.463431 0.820120 0.148315 -0.517621
O22   O     O_2   0.870413 0.157324 0.073242 -0.481073
O23   O     O_R   0.556960 0.465330 0.430620 -0.613058
O24   O     O_2   0.110957 0.785305 0.841096 -0.510437
O25   O     O_2   0.295750 0.008707 0.310061 -0.517188
O26   O     O_2   0.704483 0.991488 0.691356 -0.520393
O27   O     O_2   0.223518 0.318507 0.366050 -0.579886
O28   O     O_2   0.776093 0.680553 0.630913 -0.571214
O29   O     O_2   0.674539 0.388005 0.955683 -0.493798
O30   O     O_2   0.392398 0.650845 0.066642 -0.474143
O31   O     O_2   0.867579 0.159751 0.946828 -0.459485
O32   O     O_2   0.173776 0.735531 0.128431 -0.488204
O33   O     O_2   0.965770 0.298750 0.078613 -0.504525
O34   O     O_R   0.443040 0.534670 0.569380 -0.612749
O35   O     O_2   0.036764 0.685960 0.846416 -0.530597
O36   O     O_R   0.534700 0.443070 0.569370 -0.591149
O37   O     O_R   0.465300 0.556930 0.430630 -0.592853
O38   O     O_R   0.465330 0.373710 0.430660 -0.611081
O39   O     O_R   0.534670 0.626290 0.569340 -0.610188
O40   O     O_R   0.551730 0.091620 0.499980 -0.616123
Zn1   Zn    Zn3+2 0.430910 0.999990 0.500010 1.098423
Zn2   Zn    Zn3+2 0.569090 0.000010 0.499990 1.083807
Zn3   Zn    Zn3+2 0.000200 0.569060 0.499990 1.085527
Zn4   Zn    Zn3+2 0.999800 0.430940 0.500010 1.062783
Zn5   Zn    Zn3+2 0.546330 0.546310 0.592620 1.051923
Zn6   Zn    Zn3+2 0.453670 0.453690 0.407380 1.049546

loop_
_geom_bond_atom_site_label_1
_geom_bond_atom_site_label_2
_ccdc_geom_bond_type
C14   C82   S    
C72   C74   S    
Br6   C18   S    
C49   O16   A    
C32   H33   S    
C52   O37   A    
C22   C25   A    
C72   C90   S    
C70   C87   S    
C50   C65   S    
C15   C83   S    
C74   C92   S    
C1    C29   S    
C88   H27   S    
C51   O36   A    
C35   C37   A    
C26   C37   A    
O16   Zn5   S    
C16   O5    A    
C38   C42   A    
C53   C64   A    
C62   C64   A    
Br12  C73   S    
O23   Zn6   S    
O3    Zn1   S    
C39   C63   A    
C80   H18   S    
C38   C62   A    
O34   Zn5   S    
O15   Zn3   S    
C14   C27   A    
C46   O8    A    
C69   C86   S    
C6    C56   S    
C50   O34   A    
C91   O33   D    
C21   C24   A    
C12   C30   S    
C23   C47   S    
C76   O19   D    
C57   C59   A    
C48   O13   A    
C2    C78   S    
C12   O12   A    
C62   H3    S    
Br8   C33   S    
C86   O29   D    
C41   H2    S    
C55   H5    S    
C12   O2    A    
C72   H13   S    
C10   C13   T    
O14   Zn4   S    
O9    Zn4   S    
C45   C71   S    
Br3   C5    S    
C1    O1    A    
C18   C20   A    
C39   C43   A    
Br5   C78   S    
C73   C91   S    
C32   C35   A    
C69   C77   S    
C28   C30   A    
C3    C80   S    
C63   H4    S    
C37   C52   S    
C49   O23   A    
C88   O31   D    
C13   C17   S    
C29   C31   A    
C55   C66   A    
C30   C32   A    
O6    Zn1   S    
C85   H24   S    
C82   O25   D    
C24   H35   S    
C47   O14   A    
O40   Zn2   S    
C92   O35   D    
O4    Zn2   S    
C49   C64   S    
C90   O32   D    
C42   C44   S    
C50   O17   A    
Br7   C19   S    
C15   C19   A    
C56   C72   S    
C2    C8    S    
O36   Zn5   S    
O17   Zn6   S    
C2    C74   S    
C75   H14   S    
C27   C29   A    
C77   H16   S    
C17   O6    A    
C87   O30   D    
C52   O39   A    
C36   C51   S    
C81   O24   D    
C80   O22   D    
C17   O4    A    
O5    Zn2   S    
C22   H34   S    
C6    C76   S    
O37   Zn6   S    
C76   H15   S    
C20   C22   A    
C9    C45   S    
C40   C60   A    
C71   H11   S    
C63   C65   A    
C57   H6    S    
C83   H21   S    
O13   Zn4   S    
C15   C28   A    
O8    Zn4   S    
C59   H8    S    
C19   C21   A    
C4    C81   S    
C84   O27   D    
C84   H22   S    
C16   O3    A    
C11   C16   S    
C3    C89   S    
C25   C36   A    
C41   C54   A    
C31   C33   A    
C10   C56   S    
Br10  C38   S    
C92   H30   S    
C71   C73   S    
Br9   C35   S    
C71   C88   S    
C67   H9    S    
Br1   C67   S    
C2    C4    S    
O1    Zn1   S    
O12   Zn2   S    
C1    O40   A    
C83   O26   D    
C34   C48   S    
C73   C89   S    
C77   O20   D    
C67   C69   S    
C33   C36   A    
O7    Zn3   S    
C3    C5    S    
C54   C65   A    
C53   C66   A    
C87   H26   S    
C20   C84   S    
C5    C75   S    
C41   C61   A    
C81   H19   S    
C90   H28   S    
C51   O38   A    
O11   Zn3   S    
O10   Zn3   S    
O39   Zn5   S    
C47   O11   A    
C85   O28   D    
C54   C68   A    
C70   C78   S    
C75   O18   D    
C55   C58   A    
C56   C70   S    
C44   O7    A    
C9    C11   T    
C91   H29   S    
C48   O15   A    
Br4   C6    S    
C25   C27   A    
C7    C23   T    
C26   C28   A    
C43   C68   A    
C7    C89   S    
C67   C89   S    
C86   H25   S    
C24   C26   A    
C40   H36   S    
Br2   C74   S    
C61   H12   S    
C21   C85   S    
C78   H10   S    
C31   H32   S    
C45   C69   S    
Br11  C39   S    
C58   H7    S    
C70   C79   S    
O38   Zn6   S    
O2    Zn1   S    
C58   C60   A    
C60   H1    S    
C4    C6    S    
C79   H17   S    
C43   C46   S    
C59   C61   A    
C79   O21   D    
C57   C68   A    
C3    H23   S    
C44   O9    A    
C4    H31   S    
C8    C34   T    
C40   C53   A    
C46   O10   A    
C5    C45   S    
C42   C66   A    
C14   C18   A    
C82   H20   S    
