data_mof_unit_63203.cif
_audit_creation_date              2012-12-10T19:58:05-0500
_audit_creation_method            fapswitch 2.2
_symmetry_space_group_name_H-M    P1
_symmetry_Int_Tables_number       1
_space_group_crystal_system       triclinic
_cell_length_a                    21.24988
_cell_length_b                    21.233879
_cell_length_c                    14.147885
_cell_angle_alpha                 89.999962
_cell_angle_beta                  89.999944
_cell_angle_gamma                 89.997886
_cell_volume                      6383.77160758

loop_
_atom_site_label
_atom_site_type_symbol
_atom_type_description
_atom_site_fract_x
_atom_site_fract_y
_atom_site_fract_z
_atom_type_partial_charge
C1    C     C_R   0.086144 0.413806 0.500007 0.966916
C2    C     C_R   0.913855 0.586194 0.500007 0.966910
C3    C     C_R   0.913843 0.413812 0.500007 0.967165
C4    C     C_R   0.086157 0.586188 0.500007 0.967164
C5    C     C_R   0.586144 0.913806 0.500007 0.966911
C6    C     C_R   0.413855 0.086194 0.500007 0.966905
C7    C     C_R   0.413843 0.913812 0.500007 0.967162
C8    C     C_R   0.586157 0.086188 0.500007 0.967161
C9    C     C_R   0.778787 0.314747 0.577155 -0.240516
C10   C     C_R   0.185266 0.721350 0.423223 -0.233850
C11   C     C_R   0.221212 0.685253 0.577155 -0.240516
C12   C     C_R   0.814734 0.278649 0.423224 -0.233850
C13   C     C_R   0.185391 0.278834 0.422921 -0.236401
C14   C     C_R   0.778954 0.685426 0.577200 -0.239373
C15   C     C_R   0.814604 0.721162 0.422918 -0.236400
C16   C     C_R   0.221046 0.314574 0.577198 -0.239373
C17   C     C_R   0.278787 0.814747 0.577155 -0.240516
C18   C     C_R   0.685267 0.221350 0.423223 -0.233850
C19   C     C_R   0.721213 0.185253 0.577155 -0.240516
C20   C     C_R   0.314734 0.778650 0.423224 -0.233850
C21   C     C_R   0.685391 0.778834 0.422918 -0.236401
C22   C     C_R   0.278959 0.185431 0.577203 -0.239373
C23   C     C_R   0.314604 0.221162 0.422916 -0.236401
C24   C     C_R   0.721042 0.814569 0.577201 -0.239373
C25   C     C_R   0.824592 0.360853 0.577281 0.586909
C26   C     C_R   0.139160 0.675553 0.422960 0.580507
C27   C     C_R   0.175407 0.639147 0.577281 0.586911
C28   C     C_R   0.860841 0.324446 0.422960 0.580509
C29   C     C_R   0.139280 0.324634 0.422703 0.584332
C30   C     C_R   0.824794 0.639361 0.577422 0.578474
C31   C     C_R   0.860715 0.675363 0.422700 0.584333
C32   C     C_R   0.175207 0.360640 0.577419 0.578473
C33   C     C_R   0.324592 0.860854 0.577281 0.586907
C34   C     C_R   0.639160 0.175553 0.422959 0.580505
C35   C     C_R   0.675407 0.139147 0.577282 0.586909
C36   C     C_R   0.360841 0.824446 0.422960 0.580507
C37   C     C_R   0.639282 0.824635 0.422700 0.584333
C38   C     C_R   0.324797 0.139365 0.577425 0.578477
C39   C     C_R   0.360715 0.175362 0.422698 0.584336
C40   C     C_R   0.675204 0.860635 0.577422 0.578475
C41   C     C_R   0.865864 0.365821 0.500066 -0.334314
C42   C     C_R   0.134136 0.634179 0.500065 -0.334314
C43   C     C_R   0.134098 0.365801 0.500042 -0.333833
C44   C     C_R   0.865901 0.634198 0.500042 -0.333834
C45   C     C_R   0.365864 0.865821 0.500066 -0.334311
C46   C     C_R   0.634136 0.134179 0.500065 -0.334312
C47   C     C_R   0.634097 0.865800 0.500042 -0.333835
C48   C     C_R   0.365902 0.134199 0.500042 -0.333837
C49   C     C_R   0.991177 0.443970 0.105262 -0.246165
C50   C     C_R   0.978306 0.552380 0.894867 -0.243884
C51   C     C_R   0.008823 0.556030 0.105262 -0.246164
C52   C     C_R   0.021694 0.447620 0.894867 -0.243884
C53   C     C_R   0.491174 0.943970 0.105262 -0.246164
C54   C     C_R   0.478310 0.052382 0.894867 -0.243883
C55   C     C_R   0.508826 0.056030 0.105262 -0.246163
C56   C     C_R   0.521690 0.947618 0.894867 -0.243883
C57   C     C_R   0.773953 0.273912 0.500210 -0.017852
C58   C     C_R   0.226047 0.726088 0.500210 -0.017852
C59   C     C_R   0.226044 0.273921 0.500050 -0.016699
C60   C     C_R   0.773954 0.726077 0.500049 -0.016700
C61   C     C_R   0.273953 0.773912 0.500210 -0.017851
C62   C     C_R   0.726047 0.226087 0.500210 -0.017851
C63   C     C_R   0.726041 0.773918 0.500050 -0.016700
C64   C     C_R   0.273956 0.226080 0.500050 -0.016700
C65   C     C_R   0.991588 0.445000 0.204576 0.089973
C66   C     C_R   0.978951 0.551491 0.795550 0.105687
C67   C     C_R   0.008412 0.555000 0.204575 0.089977
C68   C     C_R   0.021049 0.448509 0.795550 0.105684
C69   C     C_R   0.491585 0.945000 0.204575 0.089975
C70   C     C_R   0.478955 0.051492 0.795550 0.105692
C71   C     C_R   0.508415 0.055000 0.204575 0.089979
C72   C     C_R   0.521045 0.948507 0.795550 0.105689
C73   C     C_R   0.000000 0.500000 0.053424 0.118873
C74   C     C_R   1.000000 0.500000 0.946706 0.127926
C75   C     C_R   0.500000 1.000000 0.053424 0.118874
C76   C     C_R   0.500000 0.000000 0.946706 0.127925
H1    H     H_    0.983093 0.399599 0.069696 0.161114
H2    H     H_    0.960052 0.593616 0.930440 0.153632
H3    H     H_    0.016907 0.600401 0.069695 0.161114
H4    H     H_    0.039948 0.406384 0.930441 0.153631
H5    H     H_    0.483087 0.899600 0.069696 0.161114
H6    H     H_    0.460059 0.093619 0.930440 0.153632
H7    H     H_    0.516913 0.100400 0.069695 0.161114
H8    H     H_    0.539941 0.906381 0.930440 0.153631
H9    H     H_    0.746555 0.311314 0.636301 0.192486
H10   H     H_    0.188755 0.753642 0.364129 0.191421
H11   H     H_    0.253444 0.688686 0.636302 0.192486
H12   H     H_    0.811246 0.246357 0.364130 0.191421
H13   H     H_    0.188982 0.246683 0.363668 0.191514
H14   H     H_    0.746832 0.688974 0.636465 0.191163
H15   H     H_    0.811011 0.753311 0.363663 0.191514
H16   H     H_    0.253170 0.311027 0.636460 0.191163
H17   H     H_    0.246555 0.811314 0.636301 0.192486
H18   H     H_    0.688756 0.253642 0.364129 0.191421
H19   H     H_    0.753444 0.188686 0.636302 0.192486
H20   H     H_    0.311245 0.746357 0.364130 0.191421
H21   H     H_    0.688984 0.746685 0.363664 0.191514
H22   H     H_    0.246838 0.188982 0.636470 0.191162
H23   H     H_    0.311009 0.253309 0.363659 0.191514
H24   H     H_    0.753164 0.811020 0.636466 0.191163
H25   H     H_    0.984957 0.401670 0.243491 0.212667
H26   H     H_    0.962334 0.592143 0.756882 0.154049
H27   H     H_    0.015043 0.598330 0.243490 0.212666
H28   H     H_    0.037666 0.407857 0.756882 0.154046
H29   H     H_    0.484952 0.901671 0.243490 0.212667
H30   H     H_    0.462340 0.092146 0.756881 0.154047
H31   H     H_    0.515048 0.098329 0.243490 0.212665
H32   H     H_    0.537660 0.907854 0.756882 0.154044
N1    N     N_R   0.000000 0.500000 0.252470 -0.125920
N2    N     N_R   1.000000 0.500000 0.747530 -0.101960
N3    N     N_R   0.500000 0.000000 0.252470 -0.125919
N4    N     N_R   0.500000 0.000000 0.747530 -0.101960
O1    O     O_R   0.065470 0.434530 0.579480 -0.593698
O2    O     O_R   0.934530 0.565470 0.420520 -0.579679
O3    O     O_R   0.934530 0.565470 0.579480 -0.593696
O4    O     O_R   0.065470 0.434530 0.420520 -0.579681
O5    O     O_R   0.934530 0.434530 0.420520 -0.590723
O6    O     O_R   0.065470 0.565470 0.579480 -0.575538
O7    O     O_R   0.065470 0.565470 0.420520 -0.590723
O8    O     O_R   0.934530 0.434530 0.579480 -0.575539
O9    O     O_R   0.565470 0.934530 0.579480 -0.593694
O10   O     O_R   0.434530 0.065470 0.420520 -0.579675
O11   O     O_R   0.434530 0.065470 0.579480 -0.593691
O12   O     O_R   0.565470 0.934530 0.420520 -0.579677
O13   O     O_R   0.434530 0.934530 0.420520 -0.590724
O14   O     O_R   0.565470 0.065470 0.579480 -0.575540
O15   O     O_R   0.565470 0.065470 0.420520 -0.590725
O16   O     O_R   0.434530 0.934530 0.579480 -0.575541
Zn1   Zn    Zn3+2 0.000000 0.500000 0.606140 1.065190
Zn2   Zn    Zn3+2 1.000000 0.500000 0.393860 1.051432
Zn3   Zn    Zn3+2 0.500000 0.000000 0.606140 1.065191
Zn4   Zn    Zn3+2 0.500000 0.000000 0.393860 1.051433
F1    F     F_    0.827502 0.401246 0.651603 -0.608143
F2    F     F_    0.098815 0.672783 0.348631 -0.638253
F3    F     F_    0.172497 0.598755 0.651604 -0.608142
F4    F     F_    0.901186 0.327216 0.348632 -0.638250
F5    F     F_    0.099104 0.327644 0.348159 -0.627947
F6    F     F_    0.827882 0.599194 0.652005 -0.618908
F7    F     F_    0.900890 0.672351 0.348153 -0.627948
F8    F     F_    0.172122 0.400810 0.651999 -0.618907
F9    F     F_    0.327502 0.901246 0.651603 -0.608146
F10   F     F_    0.598816 0.172782 0.348631 -0.638257
F11   F     F_    0.672497 0.098755 0.651604 -0.608144
F12   F     F_    0.401186 0.827217 0.348632 -0.638254
F13   F     F_    0.599107 0.827648 0.348153 -0.627945
F14   F     F_    0.327887 0.099200 0.652010 -0.618910
F15   F     F_    0.400887 0.172347 0.348148 -0.627946
F16   F     F_    0.672117 0.900803 0.652005 -0.618908

loop_
_geom_bond_atom_site_label_1
_geom_bond_atom_site_label_2
_ccdc_geom_bond_type
C40   C47   A    
C23   H23   S    
C72   N4    A    
C56   C76   A    
C71   H31   S    
C33   C45   A    
C15   C60   A    
C66   H26   S    
C27   C42   A    
C65   H25   S    
C53   C69   A    
C9    C25   A    
C57   C62   S    
C5    C47   S    
C5    O12   A    
C59   C64   S    
C1    O1    A    
C12   C28   A    
C60   C63   S    
C30   F6    S    
C7    C45   S    
C13   C29   A    
C10   C58   A    
C14   C30   A    
C32   F8    S    
C52   C74   A    
C50   C74   A    
C17   C61   A    
C19   C62   A    
C22   C38   A    
C5    O9    A    
C28   C41   A    
O7    Zn2   S    
C21   H21   S    
O12   Zn4   S    
N2    Zn1   S    
C53   H5    S    
C73   C74   S    
C20   C61   A    
O15   Zn4   S    
C38   F14   S    
C3    O5    A    
C9    H9    S    
C67   N1    A    
C14   H14   S    
C72   H32   S    
C11   H11   S    
C56   C72   A    
C71   N3    A    
C4    O7    A    
C34   C46   A    
C1    O4    A    
C7    O16   A    
C37   C47   A    
C11   C58   A    
C25   F1    S    
C38   C48   A    
C52   C68   A    
C55   C75   A    
C10   C26   A    
C58   C61   S    
C20   H20   S    
C28   F4    S    
C29   C43   A    
O2    Zn2   S    
C30   C44   A    
C53   C75   A    
C17   C33   A    
C6    O11   A    
O9    Zn3   S    
C50   H2    S    
O10   Zn4   S    
C70   N4    A    
C1    C43   S    
C56   H8    S    
C13   H13   S    
C31   C44   A    
C40   F16   S    
C67   H27   S    
O8    Zn1   S    
C34   F10   S    
C51   C73   A    
C70   H30   S    
C25   C41   A    
C22   H22   S    
C12   H12   S    
C18   C62   A    
C51   C67   A    
C33   F9    S    
C22   C64   A    
C29   F5    S    
C66   N2    A    
C16   C59   A    
C75   C76   S    
C26   F2    S    
C18   C34   A    
C2    O3    A    
C8    O15   A    
C54   C70   A    
C11   C27   A    
O4    Zn2   S    
C36   C45   A    
C68   N2    A    
C7    O13   A    
O5    Zn2   S    
C50   C66   A    
C51   H3    S    
C65   N1    A    
C6    C48   S    
C49   C65   A    
C54   C76   A    
C12   C57   A    
C8    O14   A    
C23   C64   A    
C16   H16   S    
C24   C63   A    
C18   H18   S    
C49   C73   A    
C17   H17   S    
C6    O10   A    
C55   H7    S    
O16   Zn3   S    
C54   H6    S    
C19   H19   S    
C2    C44   S    
C26   C42   A    
O3    Zn1   S    
C3    C41   S    
C69   H29   S    
O11   Zn3   S    
C24   H24   S    
C52   H4    S    
C68   H28   S    
C15   C31   A    
C13   C59   A    
C16   C32   A    
C14   C60   A    
C27   F3    S    
C36   F12   S    
O6    Zn1   S    
C19   C35   A    
C2    O2    A    
O13   Zn4   S    
C10   H10   S    
C4    C42   S    
O14   Zn3   S    
C23   C39   A    
C24   C40   A    
C32   C43   A    
C49   H1    S    
C9    C57   A    
N4    Zn3   S    
C69   N3    A    
C8    C46   S    
C21   C63   A    
C3    O8    A    
C15   H15   S    
C20   C36   A    
N3    Zn4   S    
C21   C37   A    
C39   F15   S    
N1    Zn2   S    
C37   F13   S    
O1    Zn1   S    
C35   C46   A    
C31   F7    S    
C55   C71   A    
C35   F11   S    
C39   C48   A    
C4    O6    A    
