data_mof_unit_56419.cif
_audit_creation_date              2012-12-11T14:08:36-0500
_audit_creation_method            fapswitch 2.2
_symmetry_space_group_name_H-M    P1
_symmetry_Int_Tables_number       1
_space_group_crystal_system       triclinic
_cell_length_a                    28.126316
_cell_length_b                    7.25199
_cell_length_c                    17.097386
_cell_angle_alpha                 89.698996
_cell_angle_beta                  101.601367
_cell_angle_gamma                 90.139608
_cell_volume                      3416.0877438

loop_
_atom_site_label
_atom_site_type_symbol
_atom_type_description
_atom_site_fract_x
_atom_site_fract_y
_atom_site_fract_z
_atom_type_partial_charge
O1    O     O_R   0.000700 0.436510 0.857920 -0.535227
O2    O     O_R   0.999300 0.563490 0.142080 -0.532908
O3    O     O_R   0.999300 0.936510 0.642080 -0.534751
O4    O     O_R   0.000700 0.063490 0.357920 -0.532604
O5    O     O_R   0.930080 0.766380 0.721890 -0.531540
O6    O     O_R   0.069920 0.233620 0.278110 -0.536694
O7    O     O_R   0.069920 0.266380 0.778110 -0.531884
O8    O     O_R   0.930080 0.733620 0.221890 -0.537441
C1    C     C_R   0.910850 0.597807 0.707222 0.688772
C2    C     C_R   0.089599 0.402794 0.288354 0.685704
C3    C     C_R   0.089194 0.097682 0.792096 0.687559
C4    C     C_R   0.910441 0.902319 0.212422 0.684926
O9    O     O_R   0.996180 0.766230 0.862310 -0.541622
O10   O     O_R   0.003820 0.233770 0.137690 -0.542972
O11   O     O_R   0.003820 0.266230 0.637690 -0.541621
O12   O     O_R   0.996180 0.733770 0.362310 -0.542750
O13   O     O_R   0.065870 0.936460 0.783500 -0.537331
O14   O     O_R   0.934130 0.063540 0.216500 -0.533434
O15   O     O_R   0.934130 0.436460 0.716500 -0.536940
O16   O     O_R   0.065870 0.563540 0.283500 -0.533821
C5    C     C_R   0.998482 0.596293 0.894281 0.754901
C6    C     C_R   0.001545 0.403706 0.105724 0.753584
C7    C     C_R   0.001511 0.096715 0.605592 0.752798
C8    C     C_R   0.998459 0.903283 0.394402 0.751185
O17   O     O_3   0.022790 0.603020 0.723980 -0.369665
O18   O     O_3   0.977210 0.396980 0.276020 -0.369627
O19   O     O_3   0.977210 0.103020 0.776020 -0.369353
O20   O     O_3   0.022790 0.896980 0.223980 -0.369954
V1    V     V_3+5 0.995770 0.877900 0.754830 1.463210
V2    V     V_3+5 0.004230 0.122100 0.245170 1.460297
V3    V     V_3+5 0.004230 0.377900 0.745170 1.463439
V4    V     V_3+5 0.995770 0.622100 0.254830 1.461109
C9    C     C_2   0.001654 0.082391 0.519295 -0.321937
C10   C     C_2   0.998267 0.917599 0.480684 -0.323294
C11   C     C_2   0.998306 0.582125 0.980425 -0.323709
C12   C     C_2   0.001766 0.417869 0.019594 -0.326234
H1    H     H_    0.004406 0.210068 0.487003 0.155631
H2    H     H_    0.995504 0.789921 0.512972 0.154556
H3    H     H_    0.995480 0.709711 0.012167 0.155725
H4    H     H_    0.004603 0.290284 0.987855 0.154591
C13   C     C_R   0.680789 0.943467 0.058654 0.571664
C14   C     C_R   0.312041 0.020958 0.004323 0.591894
C15   C     C_R   0.319355 0.545219 0.438072 0.567900
C16   C     C_R   0.687860 0.595630 0.488709 0.590558
O21   O     O_2   0.709765 0.923988 0.005130 -0.516584
O22   O     O_2   0.281536 0.988702 0.054511 -0.508619
O23   O     O_2   0.291211 0.564692 0.492834 -0.520501
O24   O     O_2   0.718241 0.599384 0.436876 -0.508778
N1    N     N_R   0.700906 0.955252 0.138109 -0.554038
N2    N     N_R   0.293734 0.070755 0.926962 -0.557185
N3    N     N_R   0.299049 0.491233 0.362070 -0.550333
N4    N     N_R   0.706395 0.589550 0.568993 -0.556516
C17   C     C_R   0.671857 0.970081 0.193217 0.584352
C18   C     C_R   0.323881 0.103706 0.875120 0.582375
C19   C     C_R   0.327876 0.466922 0.306975 0.587441
C20   C     C_R   0.676204 0.587968 0.622305 0.579758
C21   C     C_R   0.775436 0.789183 0.201497 -0.118378
C22   C     C_R   0.220108 0.926418 0.850439 -0.130144
C23   C     C_R   0.226208 0.299489 0.309291 -0.120559
C24   C     C_R   0.779535 0.431658 0.641935 -0.119774
C25   C     C_R   0.826248 0.770900 0.218377 -0.093400
C26   C     C_R   0.170824 0.932210 0.814227 -0.086381
C27   C     C_R   0.175473 0.274087 0.291460 -0.092679
C28   C     C_R   0.828747 0.432640 0.679048 -0.088069
C29   C     C_R   0.832984 0.072219 0.158728 -0.166090
C30   C     C_R   0.165303 0.236508 0.870918 -0.183189
C31   C     C_R   0.165438 0.584687 0.337631 -0.160808
C32   C     C_R   0.835675 0.743984 0.628976 -0.180597
C33   C     C_R   0.782359 0.088480 0.142251 -0.080038
C34   C     C_R   0.214615 0.228974 0.906604 -0.084050
C35   C     C_R   0.215673 0.610040 0.352832 -0.073318
C36   C     C_R   0.786497 0.741523 0.592671 -0.089099
C37   C     C_R   0.753174 0.946654 0.162889 0.363350
C38   C     C_R   0.242139 0.073629 0.896719 0.372343
C39   C     C_R   0.246758 0.467218 0.340178 0.352581
C40   C     C_R   0.758113 0.585643 0.599057 0.365322
C41   C     C_R   0.599237 0.968471 0.087173 -0.039011
C42   C     C_R   0.394471 0.030297 0.978493 -0.044159
C43   C     C_R   0.400184 0.548264 0.405722 -0.041954
C44   C     C_R   0.605198 0.590584 0.513695 -0.043336
C45   C     C_R   0.630107 0.949426 0.032243 -0.022632
C46   C     C_R   0.362610 0.000641 0.031357 -0.028503
C47   C     C_R   0.369496 0.578803 0.460165 -0.020643
C48   C     C_R   0.637116 0.596468 0.459973 -0.025715
C49   C     C_R   0.609938 0.928519 0.952093 -0.131327
C50   C     C_R   0.381539 0.940944 0.108521 -0.141075
C51   C     C_R   0.389006 0.651429 0.534534 -0.130938
C52   C     C_R   0.617902 0.609043 0.378961 -0.142359
C53   C     C_R   0.620534 0.976702 0.168490 -0.079609
C54   C     C_R   0.374453 0.080910 0.899746 -0.075457
C55   C     C_R   0.378897 0.494981 0.328194 -0.078870
C56   C     C_R   0.625423 0.588362 0.595507 -0.074405
C57   C     C_R   0.856028 0.912921 0.195932 -0.095915
C58   C     C_R   0.142465 0.088667 0.824593 -0.086602
C59   C     C_R   0.144062 0.417298 0.306779 -0.100625
C60   C     C_R   0.857733 0.590654 0.672816 -0.087462
H5    H     H_    0.854126 0.184207 0.140977 0.143056
H6    H     H_    0.144835 0.357723 0.880535 0.141520
H7    H     H_    0.143251 0.698203 0.350256 0.150889
H8    H     H_    0.856589 0.866459 0.622079 0.144876
H9    H     H_    0.765688 0.210682 0.111976 0.128013
H10   H     H_    0.231553 0.344876 0.941157 0.131829
H11   H     H_    0.230542 0.741512 0.375705 0.133558
H12   H     H_    0.770230 0.862433 0.560738 0.133695
H13   H     H_    0.632472 0.901007 0.908947 0.172859
H14   H     H_    0.357924 0.904767 0.149137 0.181287
H15   H     H_    0.366011 0.693495 0.575064 0.171462
H16   H     H_    0.641406 0.624393 0.336239 0.184708
C61   C     C_R   0.476617 0.013964 0.946706 -0.020802
C62   C     C_R   0.516731 0.979680 0.117814 -0.019489
C63   C     C_R   0.522535 0.599546 0.542490 -0.016965
C64   C     C_R   0.482263 0.557613 0.371737 -0.018201
C65   C     C_R   0.465102 0.970696 0.086953 0.048710
C66   C     C_R   0.527636 0.977222 0.976126 0.044029
C67   C     C_R   0.534061 0.584478 0.401179 0.053594
C68   C     C_R   0.471401 0.614100 0.511171 0.037795
C69   C     C_R   0.445816 0.006824 0.004123 0.055551
C70   C     C_R   0.547538 0.976675 0.060472 0.037594
C71   C     C_R   0.553575 0.589856 0.485746 0.049111
C72   C     C_R   0.451691 0.571793 0.429389 0.039715
C73   C     C_R   0.454076 0.060271 0.864058 0.067137
C74   C     C_R   0.539677 0.995798 0.202155 0.061887
C75   C     C_R   0.544673 0.589982 0.627357 0.068015
C76   C     C_R   0.458652 0.511963 0.289556 0.062978
C77   C     C_R   0.404317 0.100356 0.845195 -0.146493
C78   C     C_R   0.590798 0.992139 0.223962 -0.160669
C79   C     C_R   0.595325 0.587015 0.650171 -0.144030
C80   C     C_R   0.408193 0.475353 0.272310 -0.160658
O25   O     O_2   0.304804 0.155337 0.799301 -0.517945
O26   O     O_2   0.692396 0.979371 0.271522 -0.514053
O27   O     O_2   0.695332 0.587627 0.701389 -0.519423
O28   O     O_2   0.307379 0.419122 0.231545 -0.518058
C81   C     C_R   0.560354 0.937210 0.925476 -0.209216
C82   C     C_R   0.431202 0.922499 0.134720 -0.236812
C83   C     C_R   0.438460 0.676205 0.557580 -0.212333
C84   C     C_R   0.568153 0.607232 0.350837 -0.237824
H17   H     H_    0.241960 0.808294 0.841540 0.125895
H18   H     H_    0.752875 0.679022 0.217144 0.137579
H19   H     H_    0.757234 0.312177 0.647829 0.128825
H20   H     H_    0.249898 0.188193 0.299205 0.142472
H21   H     H_    0.387078 0.138602 0.785332 0.171485
H22   H     H_    0.608673 0.999602 0.285677 0.170940
H23   H     H_    0.612571 0.585895 0.712280 0.170780
H24   H     H_    0.390204 0.433238 0.213505 0.171440
H25   H     H_    0.550136 0.898516 0.864983 0.126100
H26   H     H_    0.440943 0.859654 0.191863 0.139596
H27   H     H_    0.449060 0.751757 0.611274 0.130735
H28   H     H_    0.559277 0.636255 0.289132 0.137823
C85   C     C_1   0.151311 0.778325 0.764565 0.329007
N5    N     N_1   0.135873 0.654736 0.724810 -0.324425
C86   C     C_1   0.846217 0.606206 0.260209 0.336109
N6    N     N_1   0.862046 0.473994 0.293743 -0.331057
C87   C     C_1   0.847444 0.272292 0.725563 0.325436
N7    N     N_1   0.862228 0.143565 0.762838 -0.326187
C88   C     C_1   0.157230 0.102525 0.254604 0.329581
N8    N     N_1   0.142708 0.965213 0.224685 -0.336931
C89   C     C_3   0.479982 0.059927 0.793221 -0.397374
C90   C     C_3   0.452681 0.125174 0.709729 -0.322779
C91   C     C_3   0.485870 0.131375 0.648657 -0.758310
H29   H     H_    0.519065 0.212424 0.670907 0.240523
H30   H     H_    0.497957 0.992746 0.635278 0.220502
H31   H     H_    0.466135 0.194430 0.592066 0.230405
H32   H     H_    0.422325 0.028774 0.686762 0.200930
H33   H     H_    0.437190 0.264526 0.713033 0.199363
H34   H     H_    0.513737 0.141667 0.808720 0.206602
H35   H     H_    0.487007 0.914737 0.783847 0.178190
C92   C     C_3   0.511820 0.018763 0.270574 -0.395805
C93   C     C_3   0.539599 0.092167 0.351664 -0.318978
C94   C     C_3   0.506111 0.106665 0.411673 -0.729726
H36   H     H_    0.472605 0.183851 0.386032 0.237664
H37   H     H_    0.495498 0.966950 0.428786 0.230850
H38   H     H_    0.525289 0.177954 0.466349 0.223174
H39   H     H_    0.568993 0.996158 0.378972 0.210207
H40   H     H_    0.555763 0.228523 0.343597 0.213485
H41   H     H_    0.480723 0.112739 0.250719 0.202615
H42   H     H_    0.498760 0.882481 0.285617 0.184615
C95   C     C_3   0.516812 0.587025 0.696025 -0.399769
C96   C     C_3   0.543479 0.521104 0.779777 -0.322179
C97   C     C_3   0.509593 0.511077 0.839665 -0.752016
H43   H     H_    0.498737 0.649815 0.855632 0.223904
H44   H     H_    0.475829 0.435569 0.815301 0.239493
H45   H     H_    0.528410 0.441104 0.895217 0.229396
H46   H     H_    0.560233 0.384214 0.775580 0.201880
H47   H     H_    0.572728 0.619584 0.805187 0.196931
H48   H     H_    0.507448 0.729976 0.704870 0.175394
H49   H     H_    0.483752 0.502262 0.679045 0.209063
C98   C     C_3   0.484727 0.499857 0.218568 -0.401085
C99   C     C_3   0.455308 0.442691 0.136052 -0.328514
C100  C     C_3   0.486627 0.449084 0.072574 -0.726850
H50   H     H_    0.498987 0.592129 0.064656 0.232256
H51   H     H_    0.518967 0.359515 0.089923 0.234142
H52   H     H_    0.465069 0.401556 0.014526 0.224492
H53   H     H_    0.440767 0.301728 0.139214 0.212651
H54   H     H_    0.424467 0.538655 0.116316 0.212967
H55   H     H_    0.497348 0.638753 0.206727 0.184128
H56   H     H_    0.515643 0.403143 0.233677 0.200972

loop_
_geom_bond_atom_site_label_1
_geom_bond_atom_site_label_2
_ccdc_geom_bond_type
O17   V3    S    
C47   C51   A    
N1    C17   A    
C22   C26   A    
C89   C90   S    
C26   C85   S    
C98   H56   S    
O19   V1    S    
O13   V1    S    
C94   H36   S    
O3    C7    A    
C11   C12   D    
C14   C46   A    
C75   C95   S    
O4    V2    S    
O15   V3    S    
C62   C70   A    
C96   C97   S    
C93   H40   S    
C61   C69   A    
C68   C83   A    
C42   C54   A    
O1    C5    A    
C17   O26   S    
C41   C53   A    
C32   C60   A    
C23   H20   S    
C63   C71   A    
N3    C39   S    
C18   C54   A    
N2    C38   S    
C11   H3    S    
C52   H16   S    
C25   C57   A    
C32   C36   A    
C31   C35   A    
C67   C84   A    
C27   C59   A    
C15   C47   A    
O1    V3    S    
C95   H48   S    
C33   H9    S    
O11   V3    S    
O2    V4    S    
C14   O22   S    
C21   C37   A    
O3    V1    S    
C34   C38   A    
C19   C55   A    
C73   C77   A    
C50   C82   A    
C77   H21   S    
C7    C9    S    
O2    C6    A    
C86   N6    T    
C91   H30   S    
C33   C37   A    
C63   C68   A    
O14   V2    S    
C43   C55   A    
C96   H46   S    
C90   H33   S    
C30   C58   A    
C97   H45   S    
C16   N4    A    
O11   C7    A    
C44   C71   A    
C99   H54   S    
O12   C8    A    
C73   C89   S    
C31   C59   A    
C94   H37   S    
C50   H14   S    
O10   V2    S    
C49   H13   S    
C13   N1    A    
C1    O15   A    
C45   C49   A    
O5    V1    S    
C53   C78   A    
C93   H39   S    
C82   H26   S    
O7    V3    S    
C55   C80   A    
C63   C75   A    
C44   C48   A    
O8    V4    S    
C51   C83   A    
C12   H4    S    
C42   C69   A    
C52   C84   A    
C41   C70   A    
C2    O16   A    
C92   C93   S    
C64   C72   A    
O18   V4    S    
C36   H12   S    
N4    C40   S    
C46   C50   A    
C28   C87   S    
C24   C40   A    
C8    C10   S    
C95   H49   S    
C68   C72   A    
C99   C100  S    
C74   C78   A    
C100  H52   S    
O7    C3    A    
C32   H8    S    
O5    C1    A    
C54   C77   A    
C25   C86   S    
C42   C46   A    
C75   C79   A    
C91   H29   S    
C1    C60   S    
C41   C45   A    
O8    C4    A    
C13   C45   A    
C43   C72   A    
C9    C10   D    
C91   H31   S    
O9    C5    A    
C36   C40   A    
C79   H23   S    
C21   C25   A    
C44   C56   A    
C80   H24   S    
C62   C65   A    
C28   C60   A    
C66   C70   A    
C61   C66   A    
C14   N2    A    
C65   C69   A    
C90   H32   S    
C22   H17   S    
C93   C94   S    
O6    V2    S    
C99   H53   S    
C95   C96   S    
C67   C71   A    
C65   C82   A    
C26   C58   A    
C17   C53   A    
C90   C91   S    
C94   H38   S    
N1    C37   S    
C4    C57   S    
C81   H25   S    
C89   H34   S    
C56   C79   A    
C23   C39   A    
C22   C38   A    
C92   H41   S    
O16   V4    S    
O9    V1    S    
C18   O25   S    
C35   H11   S    
C3    O13   A    
C74   C92   S    
C98   H55   S    
C10   H2    S    
C23   C27   A    
C48   C52   A    
C3    C58   S    
C16   C48   A    
C89   H35   S    
O6    C2    A    
C76   C98   S    
C34   H10   S    
C64   C76   A    
C5    C11   S    
C31   H7    S    
O12   V4    S    
C6    C12   S    
C83   H27   S    
C76   C80   A    
C24   C28   A    
O10   C6    A    
O20   V2    S    
C30   H6    S    
C29   H5    S    
C98   C99   S    
N2    C18   A    
C85   N5    T    
C62   C74   A    
C35   C39   A    
C15   N3    A    
C30   C34   A    
C2    C59   S    
O4    C8    A    
C29   C33   A    
C29   C57   A    
C66   C81   A    
C78   H22   S    
C21   H18   S    
N3    C19   A    
C100  H50   S    
C9    H1    S    
C20   O27   S    
C24   H19   S    
C27   C88   S    
C97   H43   S    
C43   C47   A    
N4    C20   A    
C20   C56   A    
C51   H15   S    
C19   O28   S    
C84   H28   S    
C4    O14   A    
C88   N8    T    
C13   O21   S    
C61   C73   A    
C100  H51   S    
C87   N7    T    
C15   O23   S    
C64   C67   A    
C96   H47   S    
C16   O24   S    
C49   C81   A    
C92   H42   S    
C97   H44   S    
