data_mof_unit_60123.cif
_audit_creation_date              2012-12-11T15:59:40-0500
_audit_creation_method            fapswitch 2.2
_symmetry_space_group_name_H-M    P1
_symmetry_Int_Tables_number       1
_space_group_crystal_system       triclinic
_cell_length_a                    7.059438
_cell_length_b                    20.084887
_cell_length_c                    21.753402
_cell_angle_alpha                 92.929945
_cell_angle_beta                  89.459633
_cell_angle_gamma                 90.344542
_cell_volume                      3080.15548245

loop_
_atom_site_label
_atom_site_type_symbol
_atom_type_description
_atom_site_fract_x
_atom_site_fract_y
_atom_site_fract_z
_atom_type_partial_charge
O1    O     O_R   0.505910 0.557140 0.441630 -0.520199
O2    O     O_R   0.175760 0.566370 0.557960 -0.521962
O3    O     O_R   0.005440 0.442860 0.558370 -0.531715
C1    C     C_R   0.344342 0.583980 0.580472 0.720425
O4    O     O_R   0.176200 0.564760 0.442040 -0.521515
O5    O     O_R   0.005880 0.441250 0.441620 -0.520032
C2    C     C_R   0.346243 0.582387 0.419770 0.692519
O6    O     O_R   0.505470 0.558750 0.558380 -0.517712
O7    O     O_3   0.339200 0.459480 0.500000 -0.353772
V1    V     V_3+5 0.064350 0.507520 0.500000 1.429271
O8    O     O_R   0.676160 0.433630 0.442040 -0.523458
C3    C     C_R   0.845247 0.415615 0.420085 0.709742
O9    O     O_R   0.675730 0.435240 0.557960 -0.522598
C4    C     C_R   0.843637 0.420679 0.577185 0.735581
V2    V     V_3+5 0.564340 0.492480 0.500000 1.443186
O10   O     O_3   0.839360 0.540520 0.500000 -0.361986
C5    C     C_3   0.013332 0.319775 0.762689 0.080701
C6    C     C_3   0.675272 0.279262 0.740053 -0.273141
C7    C     C_3   0.691848 0.229045 0.793183 -0.296189
H1    H     H_    0.965615 0.287909 0.856905 0.168514
H2    H     H_    0.617586 0.327177 0.758706 0.192022
H3    H     H_    0.593788 0.186707 0.784619 0.172732
C8    C     C_1   0.925392 0.118283 0.883978 -0.087568
C9    C     C_3   0.874803 0.290015 0.710956 0.091846
C10   C     C_3   0.026031 0.266035 0.813089 -0.020644
C11   C     C_3   0.901850 0.202673 0.796038 0.051135
C12   C     C_3   0.963149 0.165980 0.732121 0.102753
C13   C     C_3   0.937112 0.219432 0.681350 -0.066936
C14   C     C_1   0.913952 0.156432 0.844572 0.130990
C15   C     C_1   0.862744 0.336539 0.662298 0.107768
C16   C     C_1   0.852645 0.374812 0.622928 -0.114325
H4    H     H_    0.824011 0.200313 0.650349 0.193090
C17   C     C_1   0.922258 0.130405 0.138231 -0.196043
C18   C     C_1   0.910699 0.173802 0.181067 0.009868
C19   C     C_1   0.895758 0.225021 0.231997 0.008290
C20   C     C_1   0.882892 0.268180 0.274996 0.007591
C21   C     C_1   0.867952 0.319398 0.325928 0.007298
C22   C     C_1   0.856397 0.362794 0.368765 -0.202343
C23   C     C_1   0.354790 0.635266 0.633546 -0.203435
C24   C     C_1   0.366683 0.676917 0.678051 0.013747
C25   C     C_1   0.382497 0.725927 0.731148 0.011194
C26   C     C_1   0.396171 0.767137 0.775939 0.011974
C27   C     C_1   0.411984 0.816156 0.829030 0.014937
C28   C     C_1   0.423878 0.857820 0.873524 -0.203343
C29   C     C_1   0.358962 0.633823 0.368244 -0.199908
C30   C     C_1   0.370104 0.675688 0.325773 0.016814
C31   C     C_1   0.383757 0.725694 0.274807 0.002780
C32   C     C_1   0.395212 0.767428 0.232229 0.002647
C33   C     C_1   0.408857 0.817434 0.181262 0.016252
C34   C     C_1   0.419976 0.859300 0.138792 -0.199616
O11   O     O_R   0.273200 0.934350 0.948680 -0.519433
O12   O     O_R   0.602630 0.928390 0.064980 -0.523034
O13   O     O_R   0.772790 0.051930 0.065390 -0.519548
C35   C     C_R   0.432619 0.910740 0.087269 0.687560
O14   O     O_R   0.602920 0.926780 0.949060 -0.523276
O15   O     O_R   0.773080 0.050310 0.948640 -0.525190
C36   C     C_R   0.434330 0.909133 0.926578 0.717015
O16   O     O_R   0.272900 0.935970 0.065430 -0.522133
O17   O     O_3   0.439420 0.033650 0.007040 -0.346858
V3    V     V_3+5 0.714330 0.985650 0.007020 1.444229
O18   O     O_R   0.102790 0.057980 0.949020 -0.521514
C37   C     C_R   0.934824 0.072503 0.929796 0.733558
O19   O     O_R   0.102500 0.059590 0.064940 -0.522954
C38   C     C_R   0.933415 0.077583 0.086912 0.711148
V4    V     V_3+5 0.214320 0.000760 0.006970 1.464379
O20   O     O_3   0.939360 0.952680 0.006990 -0.365941
N1    N     N_3   0.200318 0.334069 0.735736 -0.672584
H5    H     H_    0.188542 0.370142 0.703005 0.254256
H6    H     H_    0.289111 0.355878 0.769427 0.248474
N2    N     N_3   0.218605 0.249402 0.829670 -0.597830
H7    H     H_    0.300954 0.241293 0.790195 0.265493
H8    H     H_    0.273632 0.290695 0.854775 0.265226
N3    N     N_3   0.838361 0.107661 0.718519 -0.688215
H9    H     H_    0.870914 0.086207 0.674836 0.255105
H10   H     H_    0.695901 0.118955 0.716983 0.275079
C39   C     C_2   0.944290 0.386425 0.793257 0.764211
O21   O     O_2   0.017161 0.407755 0.841226 -0.546909
O22   O     O_R   0.810216 0.425597 0.765132 -0.673605
H11   H     H_    0.781395 0.468520 0.789911 0.308880
C40   C     C_2   0.540571 0.258011 0.688999 0.713155
O23   O     O_2   0.503175 0.199276 0.678274 -0.577663
O24   O     O_R   0.482969 0.305428 0.648013 -0.654489
H12   H     H_    0.428839 0.284912 0.608382 0.306034
C41   C     C_2   0.625854 0.259175 0.855772 0.722824
O25   O     O_2   0.576836 0.222132 0.896030 -0.537431
O26   O     O_R   0.622756 0.328256 0.868076 -0.668832
H13   H     H_    0.577821 0.341036 0.911455 0.311912
N4    N     N_3   0.093623 0.226411 0.638498 -0.666512
H14   H     H_    0.208428 0.235642 0.665469 0.315584
H15   H     H_    0.112873 0.182388 0.611479 0.275946
C42   C     C_2   0.160866 0.133651 0.732884 0.852546
O27   O     O_2   0.226255 0.107845 0.685198 -0.544983
O28   O     O_R   0.252181 0.121960 0.788079 -0.655846
H16   H     H_    0.372093 0.094833 0.781780 0.294940

loop_
_geom_bond_atom_site_label_1
_geom_bond_atom_site_label_2
_ccdc_geom_bond_type
O19   V4    S    
C25   C26   T    
O28   H16   S    
C6    H2    S    
N3    H9    S    
C19   C20   T    
C4    C16   S    
C1    O6    A    
C29   C30   T    
C11   C12   S    
C34   C35   S    
C6    C9    S    
C2    C29   S    
C20   C21   S    
C41   O26   S    
C6    C7    S    
O5    C3    A    
C15   C16   T    
O13   C38   A    
H1    C10   S    
V2    O10   S    
C18   C19   S    
O11   V4    S    
C7    C11   S    
O12   V3    S    
O8    V2    S    
C8    C37   S    
C13   N4    S    
C5    C39   S    
C12   C42   S    
N2    H7    S    
O11   C36   A    
O9    C4    A    
O7    V1    S    
V3    O20   S    
O17   V3    S    
O14   V3    S    
N3    H10   S    
O13   V3    S    
O12   C35   A    
C5    N1    S    
C5    C9    S    
N1    H5    S    
C13   H4    S    
C7    H3    S    
C41   O25   D    
C40   O24   S    
C42   O27   D    
O4    C2    A    
O26   H13   S    
C10   C11   S    
O24   H12   S    
O15   V3    S    
N1    H6    S    
O2    C1    A    
C27   C28   T    
C21   C22   T    
C42   O28   S    
O16   V4    S    
C31   C32   T    
C1    C23   S    
C28   C36   S    
C17   C18   T    
C39   O21   D    
O3    C4    A    
O1    V2    S    
C24   C25   S    
N4    H15   S    
C33   C34   T    
O6    V2    S    
O14   C36   A    
O15   C37   A    
C26   C27   S    
C7    C41   S    
O2    V1    S    
C8    C14   T    
C23   C24   T    
C35   O16   A    
C30   C31   S    
C32   C33   S    
O1    C2    A    
C9    C13   S    
C39   O22   S    
C40   O23   D    
O5    V1    S    
O8    C3    A    
C5    C10   S    
O9    V2    S    
O7    V2    S    
O4    V1    S    
O3    V1    S    
V1    O10   S    
O17   V4    S    
O22   H11   S    
C17   C38   S    
C3    C22   S    
O18   C37   A    
C9    C15   S    
O19   C38   A    
O18   V4    S    
N4    H14   S    
C11   C14   S    
C6    C40   S    
V4    O20   S    
C12   C13   S    
N2    H8    S    
C10   N2    S    
C12   N3    S    
