data_mof_unit_25910.cif
_audit_creation_date              2012-12-10T20:56:31-0500
_audit_creation_method            fapswitch 2.2
_symmetry_space_group_name_H-M    P1
_symmetry_Int_Tables_number       1
_space_group_crystal_system       triclinic
_cell_length_a                    13.224885
_cell_length_b                    15.076833
_cell_length_c                    15.840922
_cell_angle_alpha                 89.213558
_cell_angle_beta                  89.699248
_cell_angle_gamma                 69.848257
_cell_volume                      2964.87890178

loop_
_atom_site_label
_atom_site_type_symbol
_atom_type_description
_atom_site_fract_x
_atom_site_fract_y
_atom_site_fract_z
_atom_type_partial_charge
C1    C     C_R   0.500037 0.499487 0.661148 0.906330
C2    C     C_R   0.818278 0.416153 0.475235 -0.168172
C3    C     C_R   0.491049 0.422277 0.047219 -0.252252
C4    C     C_R   0.704454 0.447809 0.497886 0.854282
C5    C     C_R   0.504081 0.499312 0.087297 0.163878
C6    C     C_R   0.520097 0.572980 0.041656 -0.189827
C7    C     C_R   0.522416 0.569938 0.954325 -0.213429
C8    C     C_R   0.509050 0.493178 0.913461 0.121475
C9    C     C_R   0.493937 0.417958 0.959436 0.017297
C10   C     C_1   0.501958 0.501729 0.175923 -0.097699
C11   C     C_1   0.505794 0.495534 0.824387 -0.079147
C12   C     C_R   0.961908 0.480985 0.454404 0.077995
C13   C     C_1   0.502803 0.497501 0.749544 -0.183221
C14   C     C_1   0.500549 0.501908 0.250686 -0.202857
C15   C     C_R   0.535805 0.036092 0.573673 0.419155
C16   C     C_R   0.499684 0.500698 0.338940 0.912933
C17   C     C_R   0.505816 0.093245 0.500446 -0.000629
C18   C     C_R   0.478403 0.054813 0.427618 -0.347419
C19   C     C_R   0.476830 0.961602 0.426666 0.020906
C20   C     C_R   0.505492 0.903428 0.500043 -0.066406
C21   C     C_R   0.537498 0.940319 0.573337 -0.109840
C22   C     C_1   0.502377 0.192190 0.500008 0.160532
C23   C     C_R   0.877854 0.471019 0.504490 0.075185
C24   C     C_1   0.502330 0.806274 0.500089 0.096467
C25   C     C_R   0.295275 0.552329 0.496235 0.876774
C26   C     C_R   0.018389 0.669760 0.572923 -0.253637
C27   C     C_R   0.177275 0.586714 0.492674 -0.161845
C28   C     C_R   0.852101 0.360299 0.402207 -0.007603
C29   C     C_R   0.930308 0.375562 0.350585 -0.201469
C30   C     C_R   0.978603 0.440035 0.373526 -0.201759
C31   C     C_R   0.157128 0.744805 0.558063 0.152190
C32   C     C_R   0.167814 0.770663 0.641516 -0.157172
C33   C     C_R   0.202401 0.846707 0.657382 -0.145068
C34   C     C_R   0.020491 0.537284 0.484849 0.030959
C35   C     C_R   0.225758 0.897698 0.590236 -0.133466
C36   C     C_R   0.215377 0.872370 0.507116 -0.135720
C37   C     C_R   0.180865 0.796456 0.490948 -0.095323
C38   C     C_R   0.576835 0.877404 0.648060 0.101601
C39   C     C_R   0.506695 0.843223 0.694237 -0.140940
C40   C     C_R   0.544488 0.782997 0.763790 -0.122429
C41   C     C_R   0.652245 0.757271 0.788278 -0.115085
C42   C     C_R   0.722357 0.791660 0.743129 -0.163529
C43   C     C_R   0.685155 0.850978 0.672871 -0.150355
C44   C     C_R   0.444509 0.926711 0.347699 0.126098
C45   C     C_R   0.975176 0.600807 0.551585 0.143077
C46   C     C_R   0.344817 0.976575 0.309886 -0.186683
C47   C     C_R   0.313305 0.943034 0.236273 -0.140753
C48   C     C_R   0.381136 0.859861 0.199623 -0.117584
C49   C     C_R   0.480912 0.810371 0.236232 -0.125034
C50   C     C_R   0.512886 0.843800 0.309689 -0.136471
C51   C     C_R   0.190510 0.447018 0.403565 0.130277
C52   C     C_R   0.234813 0.464630 0.326937 -0.172301
C53   C     C_R   0.294921 0.389427 0.276368 -0.108030
C54   C     C_R   0.311190 0.296400 0.301821 -0.120955
C55   C     C_R   0.268164 0.278379 0.378238 -0.163923
C56   C     C_R   0.889745 0.592496 0.598621 -0.216338
C57   C     C_R   0.209857 0.353062 0.429741 -0.076870
C58   C     C_R   0.797206 0.295802 0.372373 0.128731
C59   C     C_R   0.743524 0.312151 0.294276 -0.160097
C60   C     C_R   0.688974 0.252814 0.267699 -0.110277
C61   C     C_R   0.688706 0.176234 0.318329 -0.118055
C62   C     C_R   0.743513 0.158546 0.395392 -0.138804
C63   C     C_R   0.797615 0.218040 0.422449 -0.099741
C64   C     C_R   0.481305 0.334810 0.918008 0.119920
C65   C     C_R   0.560643 0.279796 0.862437 -0.150991
C66   C     C_R   0.549913 0.199870 0.825498 -0.101906
C67   C     C_R   0.847430 0.523300 0.579316 -0.190650
C68   C     C_R   0.460054 0.174234 0.843661 -0.089354
C69   C     C_R   0.380958 0.228374 0.899045 -0.146244
C70   C     C_R   0.391591 0.308166 0.936419 -0.164857
C71   C     C_R   0.126118 0.527273 0.457612 -0.090182
C72   C     C_R   0.117235 0.666472 0.539871 -0.026748
H1    H     H_    0.479828 0.365345 0.084359 0.132730
H2    H     H_    0.149749 0.731861 0.694058 0.121054
H3    H     H_    0.210880 0.866264 0.721748 0.124267
H4    H     H_    0.252055 0.956787 0.602558 0.124199
H5    H     H_    0.233765 0.911735 0.455221 0.135140
H6    H     H_    0.172302 0.777989 0.426188 0.117361
H7    H     H_    0.423033 0.863106 0.676346 0.127679
H8    H     H_    0.490132 0.756484 0.798775 0.123427
H9    H     H_    0.681360 0.710800 0.842261 0.120458
H10   H     H_    0.805773 0.771822 0.762219 0.122721
H11   H     H_    0.740513 0.876384 0.637863 0.138816
H12   H     H_    0.530220 0.632558 0.073481 0.132193
H13   H     H_    0.566487 0.035805 0.694317 0.326644
H14   H     H_    0.290951 0.040625 0.338017 0.123922
H15   H     H_    0.236100 0.981392 0.207785 0.129079
H16   H     H_    0.356508 0.833863 0.142767 0.122109
H17   H     H_    0.533559 0.746138 0.207648 0.127348
H18   H     H_    0.590892 0.805110 0.336870 0.127947
H19   H     H_    0.222201 0.536452 0.306369 0.111883
H20   H     H_    0.328510 0.403275 0.217273 0.125532
H21   H     H_    0.357044 0.238312 0.262318 0.117035
H22   H     H_    0.279602 0.206610 0.397755 0.126315
H23   H     H_    0.533651 0.627688 0.918613 0.135820
H24   H     H_    0.178036 0.337994 0.489244 0.124263
H25   H     H_    0.742212 0.371790 0.254836 0.124100
H26   H     H_    0.646429 0.266538 0.208060 0.127302
H27   H     H_    0.646045 0.130610 0.297889 0.122930
H28   H     H_    0.743402 0.099109 0.434462 0.133937
H29   H     H_    0.839025 0.204111 0.482618 0.120766
H30   H     H_    0.631414 0.298039 0.848624 0.128123
H31   H     H_    0.611811 0.157542 0.783322 0.164619
H32   H     H_    0.451830 0.112216 0.815261 0.128946
H33   H     H_    0.311569 0.208316 0.913264 0.127892
H34   H     H_    0.458418 0.097701 0.370561 0.155659
H35   H     H_    0.329804 0.349354 0.979415 0.125498
H36   H     H_    0.859070 0.636502 0.652911 0.152171
H37   H     H_    0.976445 0.724663 0.617085 0.136048
H38   H     H_    0.027293 0.458255 0.326263 0.157679
H39   H     H_    0.950337 0.340790 0.290234 0.146241
H40   H     H_    0.785827 0.514832 0.620720 0.145636
N1    N     N_1   0.500030 0.729450 0.499980 -0.079616
N2    N     N_1   0.499970 0.270550 0.500020 -0.078628
O1    O     O_R   0.500000 0.426350 0.621980 -0.599471
O2    O     O_R   0.499950 0.573700 0.621980 -0.605863
O3    O     O_R   0.653660 0.389750 0.499980 -0.607386
O4    O     O_R   0.653610 0.537090 0.499980 -0.597742
O5    O     O_R   0.500050 0.426300 0.378020 -0.593117
O6    O     O_R   0.500000 0.573650 0.378020 -0.614432
O7    O     O_R   0.346390 0.462910 0.500020 -0.594185
O8    O     O_R   0.346340 0.610250 0.500020 -0.609536
O9    O     O_3   0.562371 0.076518 0.644149 -0.805812
Zn1   Zn    Zn3+2 0.500030 0.401620 0.500000 1.000103
Zn2   Zn    Zn3+2 0.499970 0.598380 0.500000 0.983279

loop_
_geom_bond_atom_site_label_1
_geom_bond_atom_site_label_2
_ccdc_geom_bond_type
C66   C68   A    
C40   C41   A    
C9    C64   S    
C26   C72   A    
C41   C42   A    
C35   C36   A    
C42   H10   S    
C63   H29   S    
C7    C8    A    
O5    Zn1   S    
C52   C53   A    
C12   C23   A    
C28   C29   A    
C29   C30   A    
C15   O9    S    
C30   H38   S    
C36   C37   A    
O3    Zn1   S    
C60   H26   S    
C70   H35   S    
C16   O6    A    
C32   H2    S    
C38   C39   A    
N1    Zn2   S    
C43   H11   S    
C18   C19   A    
C23   C67   A    
C56   H36   S    
C54   H21   S    
C26   C45   A    
C46   C47   A    
C24   N1    T    
C50   H18   S    
C21   C38   S    
C20   C24   S    
C45   C56   A    
C8    C9    A    
O7    Zn1   S    
C57   H24   S    
C48   H16   S    
C51   C57   A    
C1    O2    A    
C64   C70   A    
C25   O8    A    
N2    Zn1   S    
C59   C60   A    
C4    O4    A    
C61   H27   S    
C51   C71   S    
C65   H30   S    
C55   H22   S    
C44   C46   A    
C35   H4    S    
C6    H12   S    
C51   C52   A    
C10   C14   T    
C16   O5    A    
C39   C40   A    
C69   H33   S    
O6    Zn2   S    
C68   C69   A    
C58   C59   A    
C53   C54   A    
C38   C43   A    
C31   C37   A    
C60   C61   A    
C39   H7    S    
C2    C4    S    
C18   H34   S    
C62   C63   A    
C3    C9    A    
C47   C48   A    
C22   N2    T    
C41   H9    S    
C53   H20   S    
C40   H8    S    
C17   C18   A    
C34   C45   A    
C26   H37   S    
C62   H28   S    
C31   C72   S    
O4    Zn2   S    
C49   C50   A    
O2    Zn2   S    
C55   C57   A    
C59   H25   S    
C14   C16   S    
C4    O3    A    
C1    C13   S    
C42   C43   A    
C12   C34   A    
C27   C71   A    
C19   C44   S    
C44   C50   A    
C58   C63   A    
C15   C17   A    
C54   C55   A    
C48   C49   A    
O1    Zn1   S    
C12   C30   A    
C66   H31   S    
C29   H39   S    
C31   C32   A    
C68   H32   S    
C49   H17   S    
C3    C5    A    
C6    C7    A    
C28   C58   S    
C25   C27   S    
C56   C67   A    
C7    H23   S    
C37   H6    S    
C17   C22   S    
C36   H5    S    
C64   C65   A    
C19   C20   A    
C5    C10   S    
C32   C33   A    
C11   C13   T    
C5    C6    A    
O8    Zn2   S    
C8    C11   S    
C33   C35   A    
H13   O9    S    
C61   C62   A    
C3    H1    S    
C69   C70   A    
C67   H40   S    
C15   C21   A    
C20   C21   A    
C65   C66   A    
C2    C23   A    
C33   H3    S    
C52   H19   S    
C2    C28   A    
C1    O1    A    
C25   O7    A    
C34   C71   A    
C27   C72   A    
C47   H15   S    
C46   H14   S    
