data_mof_unit_35803.cif
_audit_creation_date              2013-03-05T15:51:28-0500
_audit_creation_method            fapswitch 2.2
_symmetry_space_group_name_H-M    P1
_symmetry_Int_Tables_number       1
_space_group_crystal_system       triclinic
_cell_length_a                    12.118082
_cell_length_b                    12.880197
_cell_length_c                    16.942065
_cell_angle_alpha                 93.223167
_cell_angle_beta                  79.458572
_cell_angle_gamma                 93.085054
_cell_volume                      2593.07732425

loop_
_atom_site_label
_atom_site_type_symbol
_atom_site_description
_atom_site_fract_x
_atom_site_fract_y
_atom_site_fract_z
_atom_type_partial_charge
O1    O     O_R   0.421320 0.658850 0.503920 -0.598562
O2    O     O_R   0.578680 0.341150 0.496080 -0.593785
O3    O     O_R   0.609840 0.646370 0.494500 -0.562711
O4    O     O_R   0.390160 0.353630 0.505500 -0.579678
C1    C     C_R   0.522563 0.700302 0.498150 1.029727
C2    C     C_R   0.477477 0.299690 0.501677 1.015991
O5    O     O_R   0.394600 0.506990 0.621070 -0.547633
O6    O     O_R   0.605400 0.493010 0.378930 -0.563401
O7    O     O_R   0.583120 0.494520 0.611640 -0.598296
O8    O     O_R   0.416880 0.505480 0.388360 -0.593242
C3    C     C_R   0.482721 0.502720 0.653633 1.015659
C4    C     C_R   0.517253 0.497095 0.346374 1.009430
Zn1   Zn    Zn3+2 0.374120 0.508330 0.506290 1.111131
Zn2   Zn    Zn3+2 0.625880 0.491670 0.493710 1.114710
C5    C     C_R   0.466764 0.508654 0.740920 -0.294727
C6    C     C_R   0.533426 0.491327 0.259092 -0.285170
C7    C     C_R   0.506865 0.597976 0.781680 0.431690
C8    C     C_R   0.494494 0.401681 0.218066 0.376140
C9    C     C_R   0.492008 0.601556 0.864879 -0.155416
C10   C     C_R   0.511362 0.397687 0.134767 -0.114704
C11   C     C_R   0.441589 0.517224 0.907273 -0.072731
C12   C     C_R   0.561830 0.482185 0.092581 -0.056127
C13   C     C_R   0.396037 0.431718 0.868558 -0.096781
C14   C     C_R   0.605767 0.568232 0.131685 -0.167369
C15   C     C_R   0.407909 0.426221 0.785120 0.399033
C16   C     C_R   0.592392 0.573915 0.215144 0.414935
C17   C     C_2   0.452045 0.512050 0.990660 0.235545
C18   C     C_2   0.551618 0.487499 0.009155 0.244725
H1    H     H_    0.357677 0.366993 0.903418 0.209485
H2    H     H_    0.643950 0.633191 0.097050 0.219403
H3    H     H_    0.478562 0.331843 0.102220 0.194995
H4    H     H_    0.526064 0.667088 0.897070 0.218766
C19   C     C_R   0.461912 0.187977 0.501478 -0.079213
C20   C     C_R   0.538232 0.812018 0.498264 -0.057128
C21   C     C_R   0.630650 0.972821 0.536377 -0.233948
C22   C     C_R   0.369501 0.027173 0.463390 -0.208780
C23   C     C_R   0.629193 0.864442 0.527294 0.495272
C24   C     C_R   0.370834 0.135540 0.472626 0.479638
C25   C     C_R   0.456226 0.866758 0.472956 -0.154529
C26   C     C_R   0.544102 0.133259 0.526593 -0.144981
C27   C     C_R   0.456529 0.973402 0.483522 0.094131
C28   C     C_R   0.543739 0.026608 0.516100 0.100946
H5    H     H_    0.610122 0.174234 0.552961 0.209762
H6    H     H_    0.390332 0.825791 0.446452 0.213727
H7    H     H_    0.698449 0.014842 0.559997 0.164070
H8    H     H_    0.301646 0.985141 0.439846 0.168086
N1    N     N_R   0.206400 0.519440 0.514690 -0.170837
N2    N     N_R   0.793600 0.480560 0.485310 -0.162587
C29   C     C_R   0.966385 0.387203 0.438790 -0.285201
C30   C     C_R   0.033514 0.612636 0.561373 -0.250407
C31   C     C_R   0.851241 0.399081 0.440083 0.473848
C32   C     C_R   0.148720 0.600918 0.559933 0.546281
C33   C     C_R   0.854737 0.551948 0.524184 -0.001722
C34   C     C_R   0.145178 0.447888 0.476008 -0.030619
C35   C     C_R   0.971844 0.541617 0.521430 -0.014021
C36   C     C_R   0.028060 0.458192 0.478773 0.005071
H9    H     H_    0.186965 0.382629 0.443161 0.223821
H10   H     H_    0.812865 0.617098 0.557170 0.219126
H11   H     H_    0.008871 0.321763 0.405894 0.217309
H12   H     H_    0.990976 0.678087 0.594199 0.220851
S1    S     S_3+6 0.580449 0.704757 0.731930 0.073158
O9    O     O_2   0.691482 0.669981 0.686514 -0.275253
O10   O     O_2   0.513227 0.743998 0.674769 -0.295376
O11   O     O_3   0.603318 0.802088 0.798273 -0.509661
H13   H     H_    0.644514 0.857692 0.765139 0.399046
S2    S     S_3+6 0.419778 0.295149 0.267580 0.088442
O12   O     O_2   0.487504 0.253296 0.323323 -0.238606
O13   O     O_2   0.310369 0.330765 0.315163 -0.295733
O14   O     O_3   0.393452 0.198758 0.201387 -0.486967
H14   H     H_    0.325654 0.218991 0.182037 0.382103
S3    S     S_3+6 0.206247 0.701778 0.618421 0.069228
O15   O     O_2   0.304140 0.672753 0.653191 -0.233164
O16   O     O_2   0.238929 0.793769 0.567320 -0.340113
O17   O     O_3   0.105867 0.738364 0.695962 -0.524203
H15   H     H_    0.137191 0.802825 0.719831 0.407643
S4    S     S_3+6 0.793789 0.298548 0.381212 0.081396
O18   O     O_2   0.762224 0.205853 0.431663 -0.283230
O19   O     O_2   0.694878 0.326602 0.347175 -0.240654
O20   O     O_3   0.893515 0.262246 0.303190 -0.495431
H16   H     H_    0.910057 0.324323 0.270315 0.370144
S5    S     S_3+6 0.638818 0.690134 0.262337 0.048135
O21   O     O_2   0.539158 0.738218 0.314591 -0.344820
O22   O     O_2   0.723022 0.666438 0.313099 -0.275105
O23   O     O_3   0.698659 0.774942 0.193447 -0.502487
H17   H     H_    0.716965 0.838528 0.225058 0.410611
S6    S     S_3+6 0.359518 0.310643 0.738018 0.056653
O24   O     O_2   0.458036 0.262244 0.684630 -0.355041
O25   O     O_2   0.306553 0.234622 0.799565 -0.231582
O26   O     O_3   0.264061 0.338452 0.682613 -0.514049
H18   H     H_    0.251331 0.273062 0.651238 0.385439
S7    S     S_3+6 0.672657 0.458600 0.936304 0.075242
O27   O     O_2   0.642037 0.381125 0.873307 -0.225149
O28   O     O_2   0.721776 0.556292 0.896551 -0.254812
O29   O     O_3   0.769573 0.407949 0.980667 -0.453657
H19   H     H_    0.801092 0.467571 0.010216 0.375170
S8    S     S_3+6 0.330678 0.540179 0.063455 0.063499
O30   O     O_2   0.281276 0.441316 0.101149 -0.247114
O31   O     O_2   0.360108 0.615880 0.128007 -0.262814
O32   O     O_3   0.234028 0.591261 0.019130 -0.456919
H20   H     H_    0.268204 0.659120 0.000287 0.371300
O33   O     O_3   0.286922 0.190976 0.451650 -0.707943
H21   H     H_    0.230914 0.141876 0.432050 0.353646
O34   O     O_3   0.712843 0.808983 0.548613 -0.704824
H22   H     H_    0.768654 0.858065 0.568469 0.344854

loop_
_geom_bond_atom_site_label_1
_geom_bond_atom_site_label_2
_geom_bond_distance
_ccdc_geom_bond_type
S2    O13   1.500319 D    
C35   C36   1.397250 A    
O33   H21   0.991729 S    
C20   C23   1.411990 A    
C27   C28   1.408577 A    
S4    O20   1.683212 S    
S5    O21   1.501155 D    
C22   C27   1.394630 A    
C25   C27   1.375092 A    
O5    C3    1.293444 A    
O1    C1    1.300497 A    
C13   H1    1.083089 S    
C9    C11   1.387357 A    
S4    O19   1.490881 D    
C24   O33   1.381672 S    
O14   H14   0.990753 S    
S6    O25   1.503427 D    
C5    C15   1.417482 A    
S2    O14   1.683009 S    
S8    O32   1.681936 S    
O4    Zn1   2.011471 S    
S1    O10   1.498287 D    
C21   C28   1.394596 A    
C7    S1    1.766504 S    
C3    C5    1.454097 S    
O23   H17   0.990642 S    
C26   H5    1.084882 S    
C4    C6    1.453877 S    
C29   C31   1.407925 A    
S8    O31   1.503107 D    
C30   C32   1.407913 A    
C22   H8    1.084511 S    
S1    O9    1.500127 D    
C26   C28   1.375062 A    
S2    O12   1.498179 D    
C11   C17   1.446855 S    
C12   C18   1.446896 S    
C1    C20   1.441178 S    
C17   S8    1.777300 S    
O2    C2    1.300319 A    
C9    H4    1.083185 S    
S5    O22   1.502692 D    
C33   C35   1.424496 A    
C6    C16   1.417438 A    
N2    C33   1.365730 A    
C34   C36   1.424539 A    
N2    C31   1.403224 A    
C19   C26   1.390728 A    
O17   H15   0.990685 S    
C20   C25   1.390619 A    
S4    O18   1.499443 D    
O4    C2    1.286659 A    
S7    O27   1.502632 D    
Zn1   N1    2.023549 S    
S6    O24   1.501207 D    
Zn2   N2    2.023546 S    
S6    O26   1.681429 S    
S1    O11   1.682229 S    
O7    Zn2   1.968946 S    
S7    O28   1.503063 D    
O32   H20   0.990662 S    
O6    C4    1.293393 A    
S8    O30   1.502401 D    
C31   S4    1.779901 S    
O7    C3    1.298536 A    
N1    C32   1.403539 A    
O3    Zn2   2.011472 S    
O8    C4    1.298478 A    
N1    C34   1.365872 A    
C10   C12   1.387532 A    
C16   S5    1.770853 S    
C11   C13   1.390571 A    
C12   C14   1.390572 A    
O1    Zn1   1.992090 S    
C21   H7    1.084515 S    
C17   C18   1.358195 D    
S5    O23   1.682178 S    
S3    O16   1.499892 D    
C5    C7    1.417699 A    
O6    Zn2   2.006047 S    
C21   C23   1.395285 A    
C19   C24   1.411826 A    
C14   C16   1.391656 A    
O3    C1    1.286571 A    
O8    Zn1   1.968950 S    
S3    O17   1.683716 S    
C23   O34   1.381736 S    
C33   H10   1.078550 S    
C25   H6    1.084838 S    
C8    S2    1.767502 S    
C29   C36   1.376780 A    
C30   C35   1.376598 A    
C29   H11   1.083986 S    
C2    C19   1.440995 S    
C30   H12   1.083903 S    
O11   H13   0.990686 S    
C22   C24   1.395315 A    
S3    O15   1.490704 D    
C32   S3    1.779336 S    
S7    O29   1.682381 S    
C15   S6    1.772139 S    
C7    C9    1.386415 A    
C18   S7    1.777080 S    
C8    C10   1.386899 A    
C13   C15   1.392635 A    
O29   H19   0.990649 S    
O2    Zn2   1.992090 S    
C14   H2    1.082897 S    
O20   H16   0.990782 S    
O5    Zn1   2.006043 S    
C6    C8    1.417748 A    
O34   H22   0.991740 S    
O26   H18   0.990651 S    
C10   H3    1.082868 S    
C34   H9    1.078309 S    
