data_mof_unit_9137.cif
_audit_creation_date              2012-12-10T17:05:59-0500
_audit_creation_method            fapswitch 2.2
_symmetry_space_group_name_H-M    P1
_symmetry_Int_Tables_number       1
_space_group_crystal_system       triclinic
_cell_length_a                    25.964006
_cell_length_b                    25.887055
_cell_length_c                    18.31109
_cell_angle_alpha                 90.334322
_cell_angle_beta                  135.243133
_cell_angle_gamma                 89.72226
_cell_volume                      8665.5309429

loop_
_atom_site_label
_atom_site_type_symbol
_atom_type_description
_atom_site_fract_x
_atom_site_fract_y
_atom_site_fract_z
_atom_type_partial_charge
C1    C     C_R   0.889839 0.749941 0.779918 0.548696
C2    C     C_R   0.509243 0.215912 0.568489 -0.075933
C3    C     C_R   0.192379 0.527110 0.471054 0.243302
C4    C     C_R   0.846463 0.554562 0.700756 -0.080990
C5    C     C_R   0.847733 0.447070 0.701316 -0.068750
C6    C     C_R   0.346462 0.054563 0.700756 -0.080990
C7    C     C_R   0.347733 0.947070 0.701316 -0.068750
C8    C     C_R   0.894622 0.527960 0.794304 -0.109804
C9    C     C_R   0.895416 0.474403 0.794590 -0.086404
C10   C     C_R   0.394622 0.027960 0.794304 -0.109803
C11   C     C_R   0.395415 0.974402 0.794590 -0.086404
C12   C     C_R   0.800076 0.473071 0.604870 0.010512
C13   C     C_R   0.998581 0.292316 0.548723 -0.079133
C14   C     C_R   0.799724 0.527813 0.604659 0.016834
C15   C     C_R   0.300076 0.973071 0.604870 0.010512
C16   C     C_R   0.299724 0.027813 0.604659 0.016834
C17   C     C_R   0.750743 0.554053 0.508288 0.029480
C18   C     C_R   0.750898 0.446192 0.508596 0.029679
C19   C     C_R   0.250742 0.054053 0.508288 0.029480
C20   C     C_R   0.250898 0.946192 0.508596 0.029679
C21   C     C_R   0.701076 0.526586 0.415109 -0.103789
C22   C     C_R   0.701088 0.473244 0.415275 -0.100352
C23   C     C_R   0.201076 0.026586 0.415109 -0.103789
C24   C     C_R   0.009242 0.715912 0.568489 -0.075933
C25   C     C_R   0.201088 0.973244 0.415275 -0.100351
C26   C     C_R   0.750404 0.889967 0.500610 0.532852
C27   C     C_R   0.750328 0.110031 0.500185 0.532060
C28   C     C_R   0.250404 0.389967 0.500610 0.532852
C29   C     C_R   0.250327 0.610031 0.500185 0.532060
C30   C     C_R   0.887811 0.747038 0.495058 0.553443
C31   C     C_R   0.887211 0.252765 0.494016 0.558732
C32   C     C_R   0.387811 0.247038 0.495058 0.553443
C33   C     C_R   0.387211 0.752765 0.494016 0.558732
C34   C     C_R   0.612191 0.748078 0.504771 0.560301
C35   C     C_R   0.563938 0.778462 0.578772 -0.068018
C36   C     C_R   0.611968 0.252152 0.504066 0.566468
C37   C     C_R   0.112191 0.248078 0.504771 0.560300
C38   C     C_R   0.111968 0.752152 0.504066 0.566468
C39   C     C_R   0.630668 0.797386 0.675421 0.241759
C40   C     C_R   0.641166 0.225115 0.692722 0.235398
C41   C     C_R   0.130668 0.297386 0.675421 0.241759
C42   C     C_R   0.141166 0.725115 0.692722 0.235398
C43   C     C_R   0.629451 0.839958 0.722287 0.252956
C44   C     C_R   0.649514 0.191412 0.760539 0.267669
C45   C     C_R   0.129451 0.339958 0.722287 0.252956
C46   C     C_R   0.570699 0.232491 0.590656 -0.063357
C47   C     C_R   0.149514 0.691412 0.760539 0.267669
C48   C     C_R   0.562700 0.863833 0.672450 0.267969
C49   C     C_R   0.588947 0.164442 0.726499 0.258596
C50   C     C_R   0.062700 0.363833 0.672450 0.267969
C51   C     C_R   0.088947 0.664442 0.726499 0.258596
C52   C     C_3   0.065328 0.451716 0.677319 0.048414
C53   C     C_3   0.049913 0.499123 0.709629 -0.218903
C54   C     C_3   0.972484 0.498317 0.663289 -0.335784
C55   C     C_3   0.074688 0.647042 0.832745 0.032433
C56   C     C_3   0.089747 0.607491 0.907636 -0.248509
C57   C     C_R   0.063938 0.278462 0.578772 -0.068018
C58   C     C_3   0.061681 0.626463 0.953277 -0.459105
C59   C     C_3   0.565328 0.951716 0.677319 0.048414
C60   C     C_3   0.549913 0.999123 0.709630 -0.218903
C61   C     C_3   0.472484 0.998317 0.663289 -0.335785
C62   C     C_3   0.574688 0.147042 0.832745 0.032434
C63   C     C_3   0.589748 0.107491 0.907637 -0.248509
C64   C     C_3   0.561681 0.126463 0.953277 -0.459105
C65   C     C_R   0.070699 0.732491 0.590656 -0.063357
C66   C     C_R   0.558382 0.746447 0.510107 0.009942
C67   C     C_R   0.557994 0.255039 0.508725 0.012847
C68   C     C_R   0.058382 0.246447 0.510107 0.009942
C69   C     C_R   0.890149 0.249787 0.779848 0.549868
C70   C     C_R   0.057994 0.755039 0.508725 0.012847
C71   C     C_R   0.493867 0.718879 0.432317 -0.090119
C72   C     C_R   0.488011 0.273057 0.420593 -0.091031
C73   C     C_R   0.993867 0.218879 0.432317 -0.090119
C74   C     C_R   0.988011 0.773057 0.420593 -0.091031
C75   C     C_R   0.435680 0.722073 0.421859 0.220413
C76   C     C_R   0.430813 0.268977 0.412263 0.221238
C77   C     C_R   0.935680 0.222073 0.421859 0.220413
C78   C     C_R   0.930813 0.768977 0.412263 0.221238
C79   C     C_R   0.438630 0.757520 0.483925 0.060764
C80   C     C_R   0.389839 0.249941 0.779918 0.548696
C81   C     C_R   0.441369 0.241818 0.488735 0.060456
C82   C     C_R   0.938630 0.257520 0.483925 0.060764
C83   C     C_R   0.941369 0.741818 0.488735 0.060456
C84   C     C_R   0.586717 0.657139 0.106834 -0.093335
C85   C     C_R   0.605822 0.332347 0.108389 -0.098046
C86   C     C_R   0.086717 0.157139 0.106834 -0.093335
C87   C     C_R   0.105822 0.832347 0.108389 -0.098046
C88   C     C_R   0.574710 0.613076 0.052092 0.286212
C89   C     C_R   0.603573 0.371755 0.054421 0.291555
C90   C     C_R   0.074711 0.113076 0.052092 0.286212
C91   C     C_R   0.390149 0.749787 0.779848 0.549868
C92   C     C_R   0.103573 0.871755 0.054421 0.291555
C93   C     C_R   0.520874 0.613558 0.943554 0.289731
C94   C     C_R   0.549163 0.371584 0.945817 0.291340
C95   C     C_R   0.020874 0.113558 0.943554 0.289731
C96   C     C_R   0.049163 0.871584 0.945817 0.291340
C97   C     C_R   0.610605 0.749383 0.220221 0.503987
C98   C     C_R   0.610130 0.250020 0.220047 0.501301
C99   C     C_R   0.110605 0.249383 0.220221 0.503987
C100  C     C_R   0.110130 0.750020 0.220047 0.501301
C101  C     C_R   0.479201 0.658043 0.890437 -0.105076
C102  C     C_R   0.496887 0.839857 0.585861 0.243539
C103  C     C_R   0.497329 0.332003 0.891844 -0.114383
C104  C     C_R   0.979201 0.158043 0.890437 -0.105076
C105  C     C_R   0.997329 0.832003 0.891844 -0.114383
C106  C     C_R   0.489733 0.702704 0.944596 -0.054541
C107  C     C_R   0.498776 0.291899 0.945306 -0.063260
C108  C     C_R   0.989733 0.202704 0.944596 -0.054541
C109  C     C_R   0.998776 0.791899 0.945306 -0.063260
C110  C     C_R   0.544391 0.702242 0.054229 -0.025321
C111  C     C_R   0.553752 0.292103 0.054892 -0.032637
C112  C     C_R   0.044391 0.202242 0.054229 -0.025321
C113  C     C_R   0.519141 0.174500 0.627586 0.220239
C114  C     C_R   0.053752 0.792103 0.054892 -0.032637
C115  C     C_R   0.556149 0.747399 0.108191 0.015331
C116  C     C_R   0.555707 0.251546 0.108036 0.009909
C117  C     C_R   0.056149 0.247399 0.108191 0.015331
C118  C     C_R   0.055707 0.751546 0.108036 0.009909
C119  C     C_R   0.514729 0.791800 0.055042 -0.068827
C120  C     C_R   0.504649 0.211620 0.054124 -0.089085
C121  C     C_R   0.014729 0.291800 0.055042 -0.068827
C122  C     C_R   0.004648 0.711620 0.054124 -0.089085
C123  C     C_R   0.460054 0.792170 0.947825 0.244165
C124  C     C_R   0.996887 0.339857 0.585861 0.243539
C125  C     C_R   0.450075 0.211470 0.946725 0.218302
C126  C     C_R   0.960054 0.292170 0.947825 0.244165
C127  C     C_R   0.950075 0.711470 0.946725 0.218302
C128  C     C_R   0.447729 0.748127 0.892174 0.069471
C129  C     C_R   0.447080 0.251263 0.892118 0.057441
C130  C     C_R   0.947729 0.248127 0.892174 0.069471
C131  C     C_R   0.947080 0.751263 0.892118 0.057441
C132  C     C_R   0.876723 0.945785 0.574686 -0.048032
C133  C     C_R   0.876391 0.053538 0.573442 -0.047061
C134  C     C_R   0.376723 0.445785 0.574686 -0.048032
C135  C     C_R   0.019141 0.674500 0.627586 0.220239
C136  C     C_R   0.376391 0.553538 0.573442 -0.047061
C137  C     C_R   0.937311 0.972643 0.609651 -0.039991
C138  C     C_R   0.937153 0.026352 0.609055 -0.043524
C139  C     C_R   0.437311 0.472643 0.609651 -0.039991
C140  C     C_R   0.437153 0.526351 0.609055 -0.043524
C141  C     C_R   0.813998 0.027136 0.536808 -0.013839
C142  C     C_R   0.814162 0.972514 0.537434 -0.015288
C143  C     C_R   0.313998 0.527136 0.536808 -0.013839
C144  C     C_R   0.314162 0.472515 0.537434 -0.015288
C145  C     C_R   0.750198 0.610006 0.502068 0.518339
C146  C     C_R   0.498581 0.792316 0.548723 -0.079133
C147  C     C_R   0.750215 0.390066 0.502383 0.520615
C148  C     C_R   0.250198 0.110006 0.502068 0.518339
C149  C     C_R   0.250215 0.890066 0.502383 0.520615
C150  C     C_R   0.752635 0.946056 0.503377 0.001159
C151  C     C_R   0.752319 0.053934 0.502171 0.000729
C152  C     C_R   0.252635 0.446056 0.503377 0.001159
C153  C     C_R   0.252319 0.553934 0.502171 0.000729
C154  C     C_R   0.692553 0.973235 0.471706 0.243157
C155  C     C_R   0.692379 0.027110 0.471054 0.243302
C156  C     C_R   0.192553 0.473235 0.471706 0.243157
Cl1   Cl    Cl    0.504557 0.559007 0.871743 -0.437786
Cl2   Cl    Cl    0.615387 0.061063 0.427823 -0.448552
Cl3   Cl    Cl    0.115820 0.439705 0.429377 -0.459807
Cl4   Cl    Cl    0.115387 0.561063 0.427823 -0.448552
Cl5   Cl    Cl    0.712502 0.761010 0.750439 -0.415079
Cl6   Cl    Cl    0.715856 0.265150 0.744025 -0.444479
Cl7   Cl    Cl    0.212502 0.261010 0.750439 -0.415079
Cl8   Cl    Cl    0.215856 0.765150 0.744025 -0.444479
Cl9   Cl    Cl    0.711156 0.864258 0.842695 -0.416377
Cl10  Cl    Cl    0.736197 0.180785 0.887291 -0.416313
Cl11  Cl    Cl    0.211156 0.364258 0.842695 -0.416378
Cl12  Cl    Cl    0.544793 0.420356 0.875072 -0.441355
Cl13  Cl    Cl    0.236197 0.680785 0.887291 -0.416313
Cl14  Cl    Cl    0.414674 0.875495 0.513262 -0.527846
Cl15  Cl    Cl    0.451162 0.126353 0.568894 -0.551262
Cl16  Cl    Cl    0.914674 0.375495 0.513262 -0.527846
Cl17  Cl    Cl    0.951162 0.626353 0.568894 -0.551262
Cl18  Cl    Cl    0.359356 0.682812 0.324294 -0.512445
Cl19  Cl    Cl    0.345655 0.294501 0.298937 -0.483326
Cl20  Cl    Cl    0.859356 0.182812 0.324294 -0.512445
Cl21  Cl    Cl    0.845655 0.794501 0.298937 -0.483326
Cl22  Cl    Cl    0.628474 0.557849 0.121847 -0.412581
Cl23  Cl    Cl    0.004557 0.059008 0.871743 -0.437786
Cl24  Cl    Cl    0.670175 0.420680 0.125174 -0.367895
Cl25  Cl    Cl    0.128474 0.057849 0.121847 -0.412581
Cl26  Cl    Cl    0.170175 0.920679 0.125174 -0.367895
Cl27  Cl    Cl    0.044793 0.920356 0.875072 -0.441355
Cl28  Cl    Cl    0.404672 0.847598 0.885730 -0.566711
Cl29  Cl    Cl    0.384911 0.161316 0.882629 -0.567351
Cl30  Cl    Cl    0.904672 0.347598 0.885730 -0.566711
Cl31  Cl    Cl    0.884911 0.661316 0.882629 -0.567351
Cl32  Cl    Cl    0.615820 0.939705 0.429377 -0.459807
H1    H     H_    0.488438 0.694223 0.379129 0.192340
H2    H     H_    0.879328 0.095268 0.576197 0.122959
H3    H     H_    0.379935 0.404060 0.578478 0.121700
H4    H     H_    0.379328 0.595268 0.576197 0.122959
H5    H     H_    0.984837 0.951673 0.638158 0.159167
H6    H     H_    0.984550 0.047072 0.637078 0.152520
H7    H     H_    0.484837 0.451673 0.638158 0.159167
H8    H     H_    0.484550 0.547072 0.637078 0.152520
H9    H     H_    0.663162 0.546598 0.341398 0.176755
H10   H     H_    0.663159 0.452897 0.341676 0.173811
H11   H     H_    0.163162 0.046598 0.341398 0.176755
H12   H     H_    0.477297 0.290238 0.357038 0.191227
H13   H     H_    0.163159 0.952897 0.341676 0.173811
H14   H     H_    0.845619 0.596036 0.705737 0.181365
H15   H     H_    0.848003 0.405637 0.706615 0.195422
H16   H     H_    0.345618 0.096036 0.705737 0.181365
H17   H     H_    0.348003 0.905637 0.706615 0.195422
H18   H     H_    0.930459 0.548997 0.867000 0.165622
H19   H     H_    0.932154 0.453992 0.867656 0.191530
H20   H     H_    0.430459 0.048997 0.867000 0.165622
H21   H     H_    0.432153 0.953992 0.867656 0.191531
H22   H     H_    0.523677 0.825950 0.097450 0.170868
H23   H     H_    0.988438 0.194223 0.379129 0.192340
H24   H     H_    0.506706 0.180800 0.095993 0.169966
H25   H     H_    0.023677 0.325950 0.097450 0.170868
H26   H     H_    0.006706 0.680800 0.095993 0.169966
H27   H     H_    0.629708 0.655681 0.190668 0.153549
H28   H     H_    0.648879 0.333398 0.192318 0.150973
H29   H     H_    0.129709 0.155681 0.190668 0.153549
H30   H     H_    0.148879 0.833398 0.192318 0.150973
H31   H     H_    0.025170 0.451170 0.591019 0.184520
H32   H     H_    0.121243 0.455645 0.710274 0.179521
H33   H     H_    0.090232 0.500751 0.795608 0.196606
H34   H     H_    0.977297 0.790238 0.357038 0.191227
H35   H     H_    0.056671 0.534424 0.682924 0.210666
H36   H     H_    0.931338 0.497122 0.577255 0.218928
H37   H     H_    0.963037 0.533727 0.686944 0.163662
H38   H     H_    0.964910 0.464233 0.691423 0.209194
H39   H     H_    0.014798 0.654998 0.771161 0.178597
H40   H     H_    0.104384 0.683419 0.876606 0.160002
H41   H     H_    0.062196 0.570497 0.865991 0.168170
H42   H     H_    0.149585 0.600304 0.971554 0.221476
H43   H     H_    0.088844 0.663267 0.996313 0.175243
H44   H     H_    0.073505 0.597123 0.007569 0.176821
H45   H     H_    0.438956 0.657186 0.806612 0.136179
H46   H     H_    0.001629 0.632607 0.890332 0.179268
H47   H     H_    0.525170 0.951171 0.591019 0.184520
H48   H     H_    0.621242 0.955645 0.710273 0.179521
H49   H     H_    0.590232 0.000751 0.795608 0.196606
H50   H     H_    0.556671 0.034424 0.682924 0.210666
H51   H     H_    0.431338 0.997122 0.577255 0.218928
H52   H     H_    0.463037 0.033727 0.686944 0.163661
H53   H     H_    0.464910 0.964233 0.691423 0.209194
H54   H     H_    0.514798 0.154998 0.771161 0.178598
H55   H     H_    0.604383 0.183419 0.876605 0.160001
H56   H     H_    0.456305 0.332900 0.807929 0.129188
H57   H     H_    0.562197 0.070497 0.865993 0.168170
H58   H     H_    0.649585 0.100305 0.971555 0.221476
H59   H     H_    0.588844 0.163267 0.996312 0.175243
H60   H     H_    0.573505 0.097124 0.007570 0.176821
H61   H     H_    0.501629 0.132606 0.890332 0.179268
H62   H     H_    0.938956 0.157187 0.806612 0.136179
H63   H     H_    0.956305 0.832900 0.807929 0.129188
H64   H     H_    0.879935 0.904061 0.578478 0.121700
O1    O     O_3   0.750020 0.750020 0.500000 -0.478136
O2    O     O_R   0.750010 0.134170 0.560720 -0.501112
O3    O     O_R   0.250010 0.365830 0.560720 -0.500785
O4    O     O_R   0.250010 0.634170 0.560720 -0.501112
O5    O     O_R   0.896180 0.719660 0.731600 -0.567492
O6    O     O_R   0.896180 0.280340 0.731600 -0.521806
O7    O     O_R   0.396180 0.219660 0.731600 -0.567492
O8    O     O_R   0.396180 0.780340 0.731600 -0.521806
O9    O     O_R   0.664580 0.780370 0.268400 -0.507789
O10   O     O_R   0.664580 0.219630 0.268400 -0.520145
O11   O     O_R   0.164580 0.280370 0.268400 -0.507789
O12   O     O_3   0.750020 0.249980 0.500000 -0.483459
O13   O     O_R   0.164580 0.719630 0.268400 -0.520145
O14   O     O_R   0.835450 0.780390 0.731600 -0.484918
O15   O     O_R   0.835450 0.219610 0.731600 -0.503695
O16   O     O_R   0.335450 0.280390 0.731600 -0.484918
O17   O     O_R   0.335450 0.719610 0.731600 -0.503695
O18   O     O_R   0.603870 0.719650 0.268400 -0.533181
O19   O     O_R   0.603870 0.280350 0.268400 -0.525893
O20   O     O_R   0.103870 0.219650 0.268400 -0.533181
O21   O     O_R   0.103870 0.780350 0.268400 -0.525893
O22   O     O_R   0.810750 0.634210 0.560720 -0.520608
O23   O     O_3   0.250020 0.250020 0.500000 -0.478136
O24   O     O_R   0.810750 0.365790 0.560720 -0.509382
O25   O     O_R   0.310750 0.134210 0.560720 -0.520608
O26   O     O_R   0.310750 0.865790 0.560720 -0.509382
O27   O     O_R   0.750010 0.865820 0.439280 -0.537823
O28   O     O_R   0.750010 0.134180 0.439280 -0.538222
O29   O     O_R   0.250010 0.365820 0.439280 -0.537823
O30   O     O_R   0.250010 0.634180 0.439280 -0.538222
O31   O     O_R   0.896180 0.719650 0.560720 -0.522280
O32   O     O_R   0.896180 0.280350 0.560720 -0.506037
O33   O     O_R   0.396180 0.219650 0.560720 -0.522279
O34   O     O_3   0.250020 0.749980 0.500000 -0.483459
O35   O     O_R   0.396180 0.780350 0.560720 -0.506037
O36   O     O_R   0.664570 0.780390 0.560720 -0.476728
O37   O     O_R   0.664570 0.219610 0.560720 -0.474213
O38   O     O_R   0.164570 0.280390 0.560720 -0.476729
O39   O     O_R   0.164570 0.719610 0.560720 -0.474213
O40   O     O_R   0.835460 0.780370 0.439280 -0.490312
O41   O     O_R   0.835460 0.219630 0.439280 -0.490817
O42   O     O_R   0.335460 0.280370 0.439280 -0.490312
O43   O     O_R   0.335460 0.719630 0.439280 -0.490817
O44   O     O_R   0.603860 0.719660 0.439280 -0.544006
O45   O     O_R   0.689310 0.634210 0.439280 -0.538035
O46   O     O_R   0.603860 0.280340 0.439280 -0.545192
O47   O     O_R   0.103860 0.219660 0.439280 -0.544006
O48   O     O_R   0.103860 0.780340 0.439280 -0.545192
O49   O     O_3   0.061150 0.406718 0.716169 -0.504204
O50   O     O_3   0.098865 0.627037 0.789241 -0.525217
O51   O     O_3   0.561150 0.906718 0.716169 -0.504204
O52   O     O_3   0.598865 0.127037 0.789241 -0.525217
O53   O     O_R   0.689310 0.365790 0.439280 -0.537296
O54   O     O_R   0.189310 0.134210 0.439280 -0.538035
O55   O     O_R   0.189310 0.865790 0.439280 -0.537296
O56   O     O_R   0.750010 0.865830 0.560720 -0.500785
Zn1   Zn    Zn3+2 0.663270 0.706640 0.413250 0.994163
Zn2   Zn    Zn3+2 0.750020 0.206610 0.413240 1.003860
Zn3   Zn    Zn3+2 0.250020 0.293390 0.413240 1.011638
Zn4   Zn    Zn3+2 0.250020 0.706610 0.413240 1.003860
Zn5   Zn    Zn3+2 0.750010 0.793400 0.586760 1.051247
Zn6   Zn    Zn3+2 0.750010 0.206600 0.586760 1.045421
Zn7   Zn    Zn3+2 0.250010 0.293400 0.586760 1.051247
Zn8   Zn    Zn3+2 0.250010 0.706600 0.586760 1.045421
Zn9   Zn    Zn3+2 0.663270 0.293360 0.413250 0.997655
Zn10  Zn    Zn3+2 0.163270 0.206640 0.413250 0.994163
Zn11  Zn    Zn3+2 0.163270 0.793360 0.413250 0.997655
Zn12  Zn    Zn3+2 0.836780 0.706640 0.586750 0.964488
Zn13  Zn    Zn3+2 0.836780 0.293360 0.586750 1.014283
Zn14  Zn    Zn3+2 0.336780 0.206640 0.586750 0.964488
Zn15  Zn    Zn3+2 0.336780 0.793360 0.586750 1.014283
Zn16  Zn    Zn3+2 0.750020 0.793390 0.413240 1.011638

loop_
_geom_bond_atom_site_label_1
_geom_bond_atom_site_label_2
_ccdc_geom_bond_type
C49   C113  A    
O37   Zn6   S    
C136  C140  A    
C90   C95   A    
C40   C46   A    
C32   C81   S    
C136  H4    S    
C135  Cl17  S    
C101  H45   S    
C145  O45   A    
C97   O18   A    
C53   H33   S    
C143  C144  A    
C37   C68   S    
C99   O20   A    
C148  O25   A    
C89   C94   A    
C91   O8    A    
O12   Zn6   S    
C152  C156  A    
C37   O38   A    
O34   Zn8   S    
C70   C74   A    
C127  Cl31  S    
C151  C155  A    
C97   C115  S    
C107  C129  A    
O6    Zn13  S    
C7    C15   A    
C99   O11   A    
C59   C60   S    
C21   C22   A    
C155  Cl2   S    
C50   O49   S    
C139  H7    S    
C76   Cl19  S    
O48   Zn11  S    
C61   H53   S    
C15   C20   A    
C104  H62   S    
C61   H51   S    
O55   Zn11  S    
C5    C12   A    
C9    H19   S    
C93   C101  A    
C13   C124  A    
C120  C125  A    
O1    Zn16  S    
C58   H46   S    
C132  C137  A    
C154  Cl32  S    
C13   C82   A    
C17   C21   A    
C121  H25   S    
O27   Zn16  S    
C19   C23   A    
C40   Cl6   S    
O3    Zn7   S    
C124  Cl16  S    
C154  C155  A    
C33   O43   A    
C24   C65   A    
C34   O44   A    
O41   Zn2   S    
O38   Zn7   S    
O7    Zn14  S    
O12   Zn2   S    
O23   Zn3   S    
C119  H22   S    
C52   O49   S    
C49   O52   S    
C59   H47   S    
C84   C88   A    
C21   H9    S    
C1    C131  S    
C69   O15   A    
O8    Zn15  S    
C139  C140  A    
C119  C123  A    
C98   O19   A    
C53   H35   S    
C19   C148  S    
O32   Zn13  S    
C92   Cl26  S    
C45   C50   A    
C38   O39   A    
C56   H41   S    
C4    C14   A    
C127  C131  A    
C58   H44   S    
O56   Zn5   S    
C6    C16   A    
O33   Zn14  S    
C125  C129  A    
C149  O55   A    
O44   Zn1   S    
C73   C77   A    
C2    C81   A    
C103  C107  A    
C75   C79   A    
O47   Zn10  S    
C37   O47   A    
C38   O48   A    
C26   O56   A    
C78   Cl21  S    
O11   Zn3   S    
C34   C66   S    
C62   H55   S    
O17   Zn8   S    
C53   C54   S    
C20   C149  S    
O35   Zn15  S    
C77   C82   A    
C136  C143  A    
C25   H13   S    
C42   Cl8   S    
C89   Cl24  S    
C13   C57   A    
O23   Zn10  S    
C65   C70   A    
C92   C96   A    
C125  Cl29  S    
C67   C72   A    
C118  C122  A    
C55   H39   S    
C122  C127  A    
C10   H20   S    
C3    C156  A    
O4    Zn8   S    
O42   Zn3   S    
C33   O35   A    
C29   O30   A    
C34   O36   A    
C108  C130  A    
O12   Zn9   S    
O34   Zn11  S    
C75   Cl18  S    
C14   C17   A    
O20   Zn10  S    
O36   Zn5   S    
O10   Zn2   S    
C47   Cl13  S    
C79   C146  A    
C59   O51   S    
C36   O37   A    
C63   H57   S    
O14   Zn5   S    
C50   C124  A    
C18   C147  S    
C94   Cl12  S    
C134  C139  A    
O34   Zn4   S    
C116  C120  A    
C134  H3    S    
C54   H37   S    
C5    C9    A    
C99   C117  S    
C45   Cl11  S    
C98   O10   A    
C36   O46   A    
O43   Zn4   S    
C64   H60   S    
C90   Cl25  S    
C103  H56   S    
O19   Zn9   S    
C80   O7    A    
O46   Zn9   S    
C109  C114  A    
C77   Cl20  S    
C115  C119  A    
O54   Zn10  S    
C57   C68   A    
C52   C53   S    
C101  C106  A    
C105  C109  A    
C52   H31   S    
C41   C45   A    
C80   C129  S    
C18   C22   A    
C107  C111  A    
C73   H23   S    
C5    H15   S    
C55   O50   S    
C88   Cl22  S    
C27   O28   A    
C97   O9    A    
C62   O52   S    
C145  O22   A    
C144  C152  A    
C30   O31   A    
C56   C58   S    
C27   O2    A    
O26   Zn15  S    
C10   C11   A    
C134  C144  A    
C63   C64   S    
C40   C44   A    
C60   H49   S    
C96   Cl27  S    
C96   C105  A    
C38   C70   S    
C120  H24   S    
O25   Zn14  S    
C28   O3    A    
C7    H17   S    
C48   O51   S    
C141  C151  A    
C31   C82   S    
C24   C83   A    
C112  C117  A    
C143  C153  A    
C20   C25   A    
C126  C130  A    
O28   Zn2   S    
C106  C128  A    
O1    Zn5   S    
C87   H30   S    
C30   C83   S    
C78   C83   A    
C1    O14   A    
C109  C131  A    
C42   C65   A    
C111  C116  A    
O34   Zn15  S    
C84   H27   S    
C72   C76   A    
C138  H6    S    
C133  C138  A    
C80   O16   A    
C87   C92   A    
C26   O27   A    
C133  H2    S    
C1    O5    A    
C43   Cl9   S    
C28   O29   A    
C91   C128  S    
C126  Cl30  S    
C85   H28   S    
C85   C89   A    
C33   C79   S    
C148  O54   A    
C122  H26   S    
O39   Zn8   S    
C35   C146  A    
C35   C39   A    
C6    H16   S    
C123  Cl28  S    
C4    H14   S    
C66   C71   A    
C26   C150  S    
C48   C102  A    
C56   H42   S    
C71   H1    S    
C8    H18   S    
O45   Zn1   S    
C94   C103  A    
C32   O42   A    
C41   Cl7   S    
C86   C90   A    
C100  C118  S    
C104  C108  A    
C54   H36   S    
C27   C151  S    
C61   H52   S    
C22   H10   S    
O29   Zn3   S    
C85   C111  A    
O30   Zn4   S    
C6    C10   A    
C47   C51   A    
O40   Zn16  S    
C74   H34   S    
C133  C141  A    
C35   C66   A    
C142  C150  A    
C31   O32   A    
C41   C57   A    
O21   Zn11  S    
O22   Zn12  S    
C16   C19   A    
O31   Zn12  S    
C64   H61   S    
C108  C112  A    
C46   C67   A    
O18   Zn1   S    
C74   C78   A    
C60   C61   S    
C110  C115  A    
C102  C146  A    
C31   O41   A    
C44   C49   A    
C17   C145  S    
C59   H48   S    
C4    C8    A    
C36   C67   S    
C113  Cl15  S    
C2    C46   A    
C7    C11   A    
C62   C63   S    
C2    C113  A    
C100  O13   A    
C15   C16   A    
C23   H11   S    
C3    C153  A    
O23   Zn14  S    
C29   O4    A    
C117  C121  A    
C54   H38   S    
C87   C114  A    
C58   H43   S    
O16   Zn7   S    
C51   C135  A    
C69   C130  S    
C39   Cl5   S    
O15   Zn6   S    
C43   C48   A    
C147  O24   A    
C30   O40   A    
O12   Zn13  S    
O9    Zn16  S    
C62   H54   S    
C132  C142  A    
C137  H5    S    
C52   H32   S    
O53   Zn9   S    
O1    Zn1   S    
O24   Zn13  S    
O2    Zn6   S    
C105  H63   S    
C32   O33   A    
C8    C9    A    
C39   C43   A    
O23   Zn7   S    
C68   C73   A    
C84   C110  A    
C86   H29   S    
C55   H40   S    
C86   C112  A    
C72   H12   S    
C98   C116  S    
C55   C56   S    
O13   Zn4   S    
C44   Cl10  S    
C149  O26   A    
C93   Cl1   S    
C140  H8    S    
C114  C118  A    
C24   C135  A    
C95   Cl23  S    
C12   C14   A    
C28   C152  S    
C3    Cl4   S    
C60   H50   S    
O5    Zn12  S    
C95   C104  A    
C132  H64   S    
C29   C153  S    
C106  C110  A    
C63   H58   S    
C88   C93   A    
C156  Cl3   S    
C91   O17   A    
C76   C81   A    
C51   O50   S    
C137  C138  A    
C147  O53   A    
C100  O21   A    
C121  C126  A    
C141  C142  A    
C11   H21   S    
C71   C75   A    
C123  C128  A    
C64   H59   S    
C102  Cl14  S    
O1    Zn12  S    
C42   C47   A    
C23   C25   A    
C150  C154  A    
C12   C18   A    
C69   O6    A    
