data_mof_unit_7175.cif
_audit_creation_date              2012-12-11T14:25:52-0500
_audit_creation_method            fapswitch 2.2
_symmetry_space_group_name_H-M    P1
_symmetry_Int_Tables_number       1
_space_group_crystal_system       triclinic
_cell_length_a                    6.928428
_cell_length_b                    14.764558
_cell_length_c                    16.201538
_cell_angle_alpha                 90.845237
_cell_angle_beta                  89.607264
_cell_angle_gamma                 90.375789
_cell_volume                      1657.08536984

loop_
_atom_site_label
_atom_site_type_symbol
_atom_type_description
_atom_site_fract_x
_atom_site_fract_y
_atom_site_fract_z
_atom_type_partial_charge
O1    O     O_R   0.494490 0.416160 0.413410 -0.540378
O2    O     O_R   0.823830 0.407240 0.585990 -0.543360
O3    O     O_R   0.994160 0.583840 0.586590 -0.543474
C1    C     C_R   0.652374 0.387550 0.614991 0.735906
O4    O     O_R   0.824200 0.405280 0.414020 -0.539713
O5    O     O_R   0.994530 0.581860 0.413390 -0.532460
C2    C     C_R   0.654976 0.383014 0.385753 0.745604
O6    O     O_R   0.494110 0.418140 0.586610 -0.545669
O7    O     O_3   0.660810 0.557940 0.500000 -0.374827
V1    V     V_3+5 0.935650 0.489250 0.500000 1.385851
O8    O     O_R   0.324250 0.592760 0.414010 -0.545398
C3    C     C_R   0.154945 0.613280 0.384479 0.752205
O9    O     O_R   0.323880 0.594720 0.585980 -0.544391
C4    C     C_R   0.155129 0.615706 0.615654 0.670118
V2    V     V_3+5 0.435660 0.510750 0.500000 1.378461
O10   O     O_3   0.160630 0.442060 0.500000 -0.368530
C5    C     C_3   0.000231 0.652347 0.753723 -0.322298
H1    H     H_    0.854997 0.640442 0.726501 0.121111
H2    H     H_    0.049126 0.585827 0.777120 0.135881
C6    C     C_3   0.981295 0.723948 0.825043 0.047843
H3    H     H_    0.830254 0.748900 0.825507 0.139708
H4    H     H_    0.925333 0.767101 0.627197 0.154045
C7    C     C_3   0.071999 0.776728 0.653786 -0.322174
C8    C     C_3   0.343804 0.699943 0.727327 -0.344175
C9    C     C_3   0.143869 0.684729 0.686067 0.062395
H5    H     H_    0.450148 0.724913 0.680986 0.148384
H6    H     H_    0.399178 0.634710 0.750794 0.149224
C10   C     C_3   0.120437 0.806709 0.809339 0.108591
C11   C     C_3   0.070232 0.850260 0.723988 -0.006124
C12   C     C_3   0.330153 0.769566 0.799390 -0.363699
H7    H     H_    0.380059 0.738361 0.857381 0.157646
H8    H     H_    0.432019 0.826340 0.786850 0.132250
H9    H     H_    0.167524 0.799786 0.602613 0.112464
H10   H     H_    0.186830 0.899945 0.709617 0.124679
C13   C     C_2   0.981832 0.698007 0.271521 0.184126
C14   C     C_2   0.143034 0.681576 0.317546 -0.324030
H11   H     H_    0.272919 0.721305 0.307555 0.105126
C15   C     C_2   0.973109 0.771632 0.208916 -0.143991
C16   C     C_2   0.127042 0.810029 0.172406 -0.353074
H12   H     H_    0.830618 0.792856 0.189678 0.142269
H13   H     H_    0.271675 0.788937 0.188064 0.133784
C17   C     C_2   0.589766 0.167548 0.736975 0.135190
C18   C     C_2   0.639100 0.176635 0.817053 -0.378922
H14   H     H_    0.734587 0.232280 0.834628 0.122930
C19   C     C_2   0.666452 0.236178 0.677790 0.154514
C20   C     C_2   0.622937 0.325984 0.685219 -0.083590
C21   C     C_2   0.779377 0.207318 0.212572 -0.130027
C22   C     C_2   0.614302 0.180057 0.175694 -0.312544
H15   H     H_    0.915360 0.178540 0.191653 0.137030
H16   H     H_    0.476666 0.208126 0.194517 0.127562
C23   C     C_2   0.791815 0.276056 0.280898 -0.138020
C24   C     C_2   0.638316 0.314411 0.318681 -0.312533
H17   H     H_    0.935992 0.295080 0.300888 0.135430
H18   H     H_    0.492980 0.296027 0.300582 0.130572
O11   O     O_R   0.770850 0.076180 0.907410 -0.540239
O12   O     O_R   0.440600 0.088970 0.079950 -0.545097
O13   O     O_R   0.270430 0.912340 0.080550 -0.540354
C25   C     C_R   0.609213 0.111209 0.108373 0.745932
O14   O     O_R   0.441120 0.087010 0.907980 -0.539210
O15   O     O_R   0.270950 0.910370 0.907350 -0.547119
C26   C     C_R   0.612342 0.107100 0.879574 0.748294
O16   O     O_R   0.770320 0.078150 0.080620 -0.537941
O17   O     O_3   0.604200 0.936340 0.994000 -0.373463
V3    V     V_3+5 0.329300 0.004970 0.993950 1.395741
O18   O     O_R   0.941240 0.899420 0.907920 -0.541585
C27   C     C_R   0.110337 0.877166 0.879182 0.674891
O19   O     O_R   0.940720 0.901380 0.079890 -0.542398
C28   C     C_R   0.109848 0.879377 0.107736 0.756275
V4    V     V_3+5 0.829310 0.983370 0.993880 1.396030
O20   O     O_3   0.104280 0.052120 0.993920 -0.368957
C29   C     C_3   0.797398 0.643442 0.281435 -0.701265
H19   H     H_    0.689646 0.660208 0.233654 0.171301
H20   H     H_    0.827621 0.569917 0.274530 0.198973
H21   H     H_    0.729628 0.658343 0.342373 0.217078
C30   C     C_3   0.475121 0.086228 0.704284 -0.322811
C31   C     C_3   0.283569 0.113552 0.664301 -0.300496
C32   C     C_3   0.308465 0.145369 0.575355 -0.728576
H22   H     H_    0.361066 0.216391 0.574241 0.231326
H23   H     H_    0.409873 0.101025 0.540396 0.222685
H24   H     H_    0.167569 0.142581 0.543323 0.206690
H25   H     H_    0.186195 0.053528 0.663082 0.176868
H26   H     H_    0.210868 0.166917 0.702094 0.194186
H27   H     H_    0.564034 0.046484 0.659744 0.163992
H28   H     H_    0.439213 0.038443 0.754368 0.131160
C33   C     C_3   0.790289 0.202477 0.606713 -0.801623
H29   H     H_    0.821935 0.129226 0.611734 0.203510
H30   H     H_    0.717704 0.214050 0.546951 0.198486
H31   H     H_    0.930491 0.239172 0.607401 0.218375
C34   C     C_3   0.495413 0.364732 0.754519 -0.389830
C35   C     C_3   0.607531 0.435323 0.805827 -0.318287
C36   C     C_3   0.482552 0.474973 0.875197 -0.781045
H32   H     H_    0.439259 0.421104 0.918878 0.232303
H33   H     H_    0.565518 0.527839 0.909432 0.215747
H34   H     H_    0.350997 0.506339 0.849608 0.220993
H35   H     H_    0.736889 0.403556 0.833089 0.194624
H36   H     H_    0.656694 0.491394 0.765544 0.178531
H37   H     H_    0.367067 0.397673 0.727500 0.181174
H38   H     H_    0.433624 0.312905 0.795716 0.192936
C37   C     C_3   0.009527 0.679035 0.909438 -0.830201
H39   H     H_    0.897401 0.625840 0.918230 0.211771
H40   H     H_    0.152792 0.646393 0.913546 0.218403
H41   H     H_    0.994042 0.728995 0.960835 0.209696
C38   C     C_3   0.881090 0.904568 0.722652 -0.852184
H42   H     H_    0.754972 0.861882 0.739073 0.210796
H43   H     H_    0.888800 0.964071 0.765122 0.219804
H44   H     H_    0.857749 0.931209 0.659745 0.206616

loop_
_geom_bond_atom_site_label_1
_geom_bond_atom_site_label_2
_ccdc_geom_bond_type
C25   O16   A    
C15   H12   S    
C16   C28   S    
C10   C27   S    
C13   C14   D    
C8    H6    S    
C1    O6    A    
C35   H35   S    
C21   H15   S    
C20   C34   S    
C1    C20   S    
C19   C20   D    
O14   V3    S    
C7    C11   S    
C10   C11   S    
C8    H5    S    
C2    C24   S    
O5    C3    A    
C12   H7    S    
C30   H28   S    
C32   H24   S    
V2    O10   S    
C5    C6    S    
C11   C38   S    
O8    V2    S    
O17   V4    S    
C7    H9    S    
O12   V3    S    
O1    V2    S    
V3    O20   S    
C3    C14   S    
O7    V1    S    
C22   H16   S    
C13   C29   S    
O9    C4    A    
C24   H18   S    
C32   H23   S    
O14   C26   A    
C33   H30   S    
O19   C28   A    
C13   C15   S    
C31   C32   S    
C16   H13   S    
C31   H26   S    
C36   H32   S    
C29   H20   S    
C21   C23   S    
C6    C10   S    
C32   H22   S    
C11   H10   S    
C23   C24   D    
O16   V4    S    
C34   H37   S    
C23   H17   S    
C17   C19   S    
O2    C1    A    
C30   C31   S    
C36   H33   S    
C21   C22   D    
C5    H1    S    
C17   C30   S    
C38   H43   S    
C8    C9    S    
C22   C25   S    
C33   H29   S    
O11   V4    S    
O3    C4    A    
C37   H40   S    
O6    V2    S    
O9    V2    S    
C18   H14   S    
C17   C18   D    
O13   C28   A    
O2    V1    S    
C18   C26   S    
O13   V3    S    
O4    C2    A    
C33   H31   S    
C14   H11   S    
O1    C2    A    
C31   H25   S    
O5    V1    S    
C29   H21   S    
O8    C3    A    
C35   H36   S    
C34   H38   S    
C37   H39   S    
C19   C33   S    
O15   V3    S    
C5    C9    S    
C10   C12   S    
O7    V2    S    
C29   H19   S    
O3    V1    S    
V1    O10   S    
C36   H34   S    
C12   H8    S    
C30   H27   S    
C35   C36   S    
C15   C16   D    
C6    C37   S    
O18   V4    S    
O11   C26   A    
C5    H2    S    
O12   C25   A    
C38   H44   S    
C7    C9    S    
C4    C9    S    
V4    O20   S    
C8    C12   S    
O15   C27   A    
O17   V3    S    
O4    V1    S    
C37   H41   S    
C6    H3    S    
O18   C27   A    
C38   H42   S    
H4    C7    S    
O19   V4    S    
C34   C35   S    
