data_mof_unit_42120.cif
_audit_creation_date              2012-12-10T19:35:26-0500
_audit_creation_method            fapswitch 2.2
_symmetry_space_group_name_H-M    P1
_symmetry_Int_Tables_number       1
_space_group_crystal_system       triclinic
_cell_length_a                    13.481509
_cell_length_b                    15.844629
_cell_length_c                    17.089603
_cell_angle_alpha                 82.032136
_cell_angle_beta                  89.494319
_cell_angle_gamma                 109.940302
_cell_volume                      3392.343333

loop_
_atom_site_label
_atom_site_type_symbol
_atom_type_description
_atom_site_fract_x
_atom_site_fract_y
_atom_site_fract_z
_atom_type_partial_charge
C1    C     C_R   0.499224 0.511453 0.348188 0.913095
C2    C     C_R   0.980014 0.533146 0.521797 -0.121956
C3    C     C_R   0.868535 0.505764 0.531350 -0.249915
C4    C     C_R   0.027792 0.467377 0.512662 -0.161224
C5    C     C_R   0.964215 0.374147 0.520872 -0.373738
C6    C     C_R   0.857498 0.347492 0.544536 0.645296
C7    C     C_R   0.813024 0.411915 0.558836 0.455857
C8    C     C_R   0.135399 0.491655 0.489259 0.632508
C9    C     C_R   0.118170 0.334478 0.493598 0.423598
C10   C     C_R   0.819355 0.572917 0.511461 -0.252288
C11   C     C_R   0.499426 0.519368 0.261224 -0.412378
C12   C     C_R   0.703182 0.547046 0.502915 0.834695
C13   C     C_R   0.449106 0.441590 0.226205 0.433965
C14   C     C_R   0.456256 0.445454 0.144375 0.482436
C15   C     C_R   0.517239 0.526702 0.096233 -0.006164
C16   C     C_R   0.569812 0.603772 0.130859 0.282183
C17   C     C_R   0.553026 0.602608 0.212254 0.230863
C18   C     C_R   0.543318 0.565223 0.851391 0.473391
C19   C     C_R   0.559402 0.562764 0.771216 0.283516
C20   C     C_R   0.469254 0.490511 0.899563 0.052151
C21   C     C_R   0.502900 0.483721 0.738704 -0.371030
C22   C     C_R   0.439485 0.404883 0.789137 0.256848
C23   C     C_R   0.501075 0.488877 0.651794 0.898930
C24   C     C_R   0.410375 0.414323 0.866515 0.253819
C25   C     C_R   0.557570 0.264687 0.463718 0.438425
C26   C     C_R   0.557492 0.174825 0.470119 0.416731
C27   C     C_R   0.479554 0.103353 0.518520 0.047415
C28   C     C_R   0.405255 0.125010 0.563597 0.094382
C29   C     C_R   0.412654 0.218315 0.560721 0.470447
C30   C     C_R   0.465248 0.828152 0.548804 0.119004
C31   C     C_R   0.456501 0.737129 0.546296 0.661217
C32   C     C_R   0.525716 0.897564 0.487769 0.013945
C33   C     C_R   0.575775 0.781594 0.434038 0.527227
C34   C     C_R   0.297676 0.452691 0.496186 0.900755
C35   C     C_R   0.581788 0.872435 0.430933 0.368118
C36   C     C_R   0.009290 0.309123 0.506594 0.628371
C37   C     C_R   0.182400 0.425275 0.492135 -0.411291
C38   C     C_R   0.884966 0.665307 0.490198 0.258498
C39   C     C_R   0.994404 0.691382 0.498008 0.274838
C40   C     C_R   0.039058 0.625470 0.521899 0.592793
Cu1   Cu    Cu3+1 0.505120 0.585970 0.496130 1.092392
Cu2   Cu    Cu3+1 0.494880 0.414030 0.503870 1.093204
N1    N     N_2   0.532356 0.532239 0.013431 -0.110064
N2    N     N_2   0.452018 0.488379 0.981842 -0.079436
N3    N     N_R   0.487180 0.284900 0.509690 -0.260983
N4    N     N_2   0.475787 0.010251 0.527944 -0.130721
N5    N     N_2   0.532886 0.991455 0.479867 -0.019700
N6    N     N_R   0.512820 0.715120 0.490310 -0.322578
O1    O     O_R   0.504790 0.580580 0.382450 -0.530053
O2    O     O_R   0.496140 0.435390 0.388990 -0.547937
O3    O     O_R   0.657420 0.608020 0.495150 -0.540240
O4    O     O_R   0.648770 0.462830 0.501690 -0.502830
O5    O     O_R   0.503860 0.564610 0.611010 -0.525783
O6    O     O_R   0.495210 0.419420 0.617550 -0.508390
O7    O     O_R   0.351230 0.537170 0.498310 -0.495891
O8    O     O_R   0.342580 0.391980 0.504850 -0.517603
F1    F     F_    0.160379 0.270342 0.482345 -0.616811
F2    F     F_    0.595730 0.642766 0.880780 -0.630953
O9    O     O_3   0.631970 0.683343 0.084202 -0.560803
C41   C     C_3   0.731898 0.677725 0.065252 0.156759
H1    H     H_    0.757873 0.714029 0.004120 0.192344
H2    H     H_    0.730745 0.606911 0.065005 0.121988
C42   C     C_3   0.812843 0.724519 0.121813 -0.394399
H3    H     H_    0.819033 0.796803 0.116630 0.229793
H4    H     H_    0.786530 0.691231 0.183722 0.240399
C43   C     C_3   0.921551 0.720118 0.102720 -0.928299
H5    H     H_    0.917674 0.648331 0.108746 0.257020
H6    H     H_    0.978270 0.755020 0.144576 0.259811
H7    H     H_    0.950680 0.754288 0.041460 0.262829
O10   O     O_3   0.594286 0.682335 0.243791 -0.546135
C44   C     C_3   0.530946 0.737099 0.225042 0.213887
H8    H     H_    0.481627 0.732859 0.278898 0.162491
H9    H     H_    0.475673 0.716317 0.177164 0.109883
C45   C     C_3   0.602460 0.835705 0.199248 -0.314300
H10   H     H_    0.656989 0.859074 0.246214 0.292583
H11   H     H_    0.650654 0.840395 0.144695 0.228361
C46   C     C_3   0.538205 0.898346 0.182995 -0.852722
H12   H     H_    0.483897 0.877453 0.135169 0.244768
H13   H     H_    0.592429 0.969129 0.164084 0.275362
H14   H     H_    0.491510 0.896444 0.237435 0.272750
O11   O     O_3   0.402659 0.323473 0.758518 -0.575968
C47   C     C_3   0.394799 0.244273 0.812817 0.123292
H15   H     H_    0.385423 0.189345 0.776648 0.164214
H16   H     H_    0.320835 0.220314 0.851051 0.160784
C48   C     C_3   0.492020 0.251961 0.862379 -0.383864
H17   H     H_    0.565486 0.290215 0.825380 0.208343
H18   H     H_    0.490828 0.289168 0.912530 0.253180
C49   C     C_3   0.494007 0.158440 0.897080 -0.883870
H19   H     H_    0.422487 0.120962 0.937028 0.267699
H20   H     H_    0.565155 0.166325 0.931627 0.262308
H21   H     H_    0.496736 0.118252 0.849347 0.250192
F3    F     F_    0.408496 0.368585 0.112734 -0.580879
O12   O     O_3   0.328648 0.347483 0.912758 -0.561339
C50   C     C_3   0.230358 0.348720 0.884979 0.075333
H22   H     H_    0.171471 0.279364 0.901892 0.160535
H23   H     H_    0.231315 0.364440 0.819232 0.129453
C51   C     C_3   0.193745 0.415517 0.923794 -0.306457
H24   H     H_    0.191288 0.398207 0.989248 0.256570
H25   H     H_    0.250514 0.485661 0.906205 0.219059
C52   C     C_3   0.084317 0.412551 0.898868 -0.921875
H26   H     H_    0.085547 0.431074 0.833643 0.260372
H27   H     H_    0.060114 0.461729 0.927676 0.263625
H28   H     H_    0.025330 0.343520 0.917163 0.257014
F4    F     F_    0.391591 0.361696 0.271193 -0.598809
F5    F     F_    0.392062 0.670968 0.601625 -0.575677
O13   O     O_3   0.414780 0.847597 0.611023 -0.548461
C53   C     C_3   0.483955 0.861924 0.673452 0.151395
H29   H     H_    0.561866 0.915231 0.652873 0.150670
H30   H     H_    0.496630 0.797577 0.697638 0.186612
C54   C     C_3   0.435355 0.893684 0.739652 -0.348291
H31   H     H_    0.421276 0.957279 0.715994 0.262769
H32   H     H_    0.358472 0.840804 0.762037 0.232277
C55   C     C_3   0.507852 0.911625 0.808133 -0.902183
H33   H     H_    0.521873 0.848582 0.833765 0.292992
H34   H     H_    0.470253 0.934692 0.855024 0.255819
H35   H     H_    0.584764 0.965441 0.787461 0.257598
O14   O     O_3   0.333869 0.056755 0.616940 -0.598725
C56   C     C_3   0.255504 0.997314 0.575887 0.096292
H36   H     H_    0.283232 0.943274 0.560270 0.209624
H37   H     H_    0.235560 0.033394 0.520753 0.100439
C57   C     C_3   0.152967 0.950917 0.628005 -0.353633
H38   H     H_    0.121314 0.002294 0.645057 0.199503
H39   H     H_    0.092903 0.906762 0.593227 0.229028
C58   C     C_3   0.168309 0.892456 0.702423 -0.750361
H40   H     H_    0.197727 0.839297 0.686233 0.279860
H41   H     H_    0.091476 0.858632 0.737036 0.226423
H42   H     H_    0.225059 0.935129 0.740065 0.255608
F6    F     F_    0.796115 0.258412 0.555820 -0.588439
O15   O     O_3   0.356802 0.247892 0.613928 -0.533530
C59   C     C_3   0.251750 0.189082 0.634498 0.170829
H43   H     H_    0.251066 0.134024 0.682428 0.158674
H44   H     H_    0.212678 0.161417 0.581890 0.191154
C60   C     C_3   0.188036 0.239859 0.669745 -0.343369
H45   H     H_    0.216687 0.256322 0.728114 0.219747
H46   H     H_    0.198416 0.304762 0.631300 0.237039
C61   C     C_3   0.070866 0.182275 0.681960 -0.900525
H47   H     H_    0.039051 0.160459 0.625587 0.323148
H48   H     H_    0.026127 0.222560 0.703689 0.253770
H49   H     H_    0.059379 0.121021 0.726414 0.243695
F7    F     F_    0.633252 0.759920 0.380479 -0.638352
F8    F     F_    0.638383 0.159255 0.434095 -0.565901
F9    F     F_    0.643215 0.936513 0.372623 -0.603588
O16   O     O_3   0.640007 0.335254 0.421672 -0.545165
C62   C     C_3   0.638025 0.330655 0.339700 0.117122
H50   H     H_    0.557642 0.320703 0.318270 0.181482
H51   H     H_    0.663497 0.274519 0.325751 0.212727
C63   C     C_3   0.715943 0.419796 0.295756 -0.349574
H52   H     H_    0.691546 0.477370 0.307349 0.207066
H53   H     H_    0.795892 0.430894 0.318214 0.235527
C64   C     C_3   0.722024 0.418949 0.206694 -0.907093
H54   H     H_    0.752589 0.365253 0.193567 0.275565
H55   H     H_    0.776303 0.485782 0.176728 0.247466
H56   H     H_    0.642827 0.406229 0.182852 0.260748
F10   F     F_    0.948999 0.220573 0.507571 -0.551578
F11   F     F_    0.192905 0.577477 0.454992 -0.615672
O17   O     O_3   0.842350 0.731438 0.464254 -0.556683
C65   C     C_3   0.857700 0.753974 0.380781 0.144753
H57   H     H_    0.783976 0.716972 0.353732 0.214776
H58   H     H_    0.921275 0.734517 0.354384 0.064610
C66   C     C_3   0.884117 0.856483 0.358500 -0.238510
H59   H     H_    0.818592 0.876275 0.380240 0.289133
H60   H     H_    0.956384 0.893059 0.387516 0.226674
C67   C     C_3   0.902484 0.885791 0.269260 -0.902236
H61   H     H_    0.969698 0.868842 0.246468 0.241005
H62   H     H_    0.920988 0.960282 0.255201 0.283549
H63   H     H_    0.830351 0.851176 0.239555 0.262477
F12   F     F_    0.138463 0.652902 0.547668 -0.580539
O18   O     O_3   0.058116 0.782026 0.480744 -0.588471
C68   C     C_3   0.123763 0.795995 0.410972 0.089283
H64   H     H_    0.093547 0.831751 0.361568 0.129858
H65   H     H_    0.126526 0.732365 0.391332 0.161733
C69   C     C_3   0.236332 0.856338 0.422825 -0.276049
H66   H     H_    0.236285 0.924929 0.429691 0.192604
H67   H     H_    0.265056 0.827012 0.477024 0.276134
C70   C     C_3   0.311213 0.865396 0.352169 -0.919134
H68   H     H_    0.319270 0.798782 0.347340 0.263954
H69   H     H_    0.390345 0.914739 0.360064 0.274965
H70   H     H_    0.281449 0.890487 0.296523 0.258364
O19   O     O_3   0.717660 0.381800 0.602910 -0.543777
C71   C     C_3   0.734870 0.374879 0.684760 0.030912
H71   H     H_    0.672662 0.392403 0.714626 0.152701
H72   H     H_    0.811776 0.424098 0.698878 0.073731
C72   C     C_3   0.725936 0.277809 0.720278 -0.359281
H73   H     H_    0.796754 0.263404 0.701431 0.231071
H74   H     H_    0.724942 0.272649 0.785782 0.162798
C73   C     C_3   0.626163 0.206095 0.697298 -0.611373
H75   H     H_    0.555148 0.223325 0.709367 0.240562
H76   H     H_    0.617030 0.138676 0.731334 0.205984
H77   H     H_    0.630727 0.201145 0.633523 0.295130
O20   O     O_3   0.623688 0.641635 0.724383 -0.547920
C74   C     C_3   0.717617 0.630938 0.697029 0.104642
H78   H     H_    0.744410 0.676323 0.639515 0.193864
H79   H     H_    0.706554 0.560984 0.685231 0.076026
C75   C     C_3   0.804362 0.659387 0.755175 -0.348978
H80   H     H_    0.813246 0.728278 0.768320 0.251295
H81   H     H_    0.781768 0.610953 0.811371 0.218611
C76   C     C_3   0.910090 0.660693 0.721126 -0.903231
H82   H     H_    0.902927 0.592854 0.706327 0.250849
H83   H     H_    0.970656 0.678801 0.765390 0.261813
H84   H     H_    0.936701 0.711953 0.666889 0.275536

loop_
_geom_bond_atom_site_label_1
_geom_bond_atom_site_label_2
_ccdc_geom_bond_type
C75   H81   S    
C42   H4    S    
C34   O8    A    
O20   C74   S    
C34   C37   S    
C31   F5    S    
Cu1   Cu2   S    
C43   H6    S    
C67   H61   S    
C1    C11   S    
C38   O17   S    
C4    C8    A    
C12   O3    A    
O11   C47   S    
C36   F10   S    
C70   H69   S    
C46   H12   S    
C69   H66   S    
C26   C27   A    
O12   C50   S    
C45   H11   S    
C41   C42   S    
C5    C6    A    
C28   C29   A    
C67   H62   S    
C55   H33   S    
C3    C7    A    
C28   O14   S    
C61   H49   S    
C38   C39   A    
C48   C49   S    
C43   H7    S    
O13   C53   S    
C33   F7    S    
C15   C16   A    
C5    C36   A    
C51   H24   S    
C41   H2    S    
C18   C19   A    
C68   H64   S    
C39   O18   S    
C76   H83   S    
C8    F11   S    
C56   H36   S    
Cu1   O7    S    
C57   C58   S    
Cu2   O8    S    
C54   H31   S    
C18   F2    S    
C65   H57   S    
C29   O15   S    
C63   H52   S    
C71   H72   S    
C16   C17   A    
C40   F12   S    
C64   H56   S    
C53   C54   S    
C60   C61   S    
C53   H29   S    
O10   C44   S    
C26   F8    S    
C1    O2    A    
C18   C20   A    
C69   C70   S    
C55   H35   S    
C48   H18   S    
C75   H80   S    
C42   C43   S    
C17   O10   S    
C65   H58   S    
C13   C14   A    
C30   O13   S    
C53   H30   S    
C25   O16   S    
C62   C63   S    
Cu1   O1    S    
C12   O4    A    
C69   H67   S    
C23   O5    A    
C70   H70   S    
C54   H32   S    
C46   H13   S    
C63   H53   S    
C45   H10   S    
C74   H78   S    
C22   O11   S    
C20   C24   A    
C63   C64   S    
C43   H5    S    
C62   H51   S    
C66   C67   S    
C51   H25   S    
C72   C73   S    
C39   C40   A    
C44   H9    S    
C62   H50   S    
C19   O20   S    
C50   C51   S    
C25   C26   A    
C48   H17   S    
C45   C46   S    
C52   H28   S    
O19   C71   S    
C29   N3    A    
C41   H1    S    
C56   C57   S    
C66   H60   S    
C76   H84   S    
C2    C4    A    
C72   H73   S    
C74   H79   S    
C64   H55   S    
C9    C36   A    
C70   H68   S    
C49   H21   S    
C14   F3    S    
C67   H63   S    
C52   H27   S    
C7    O19   S    
C50   H22   S    
C13   F4    S    
C50   H23   S    
C54   C55   S    
Cu1   O5    S    
C57   H38   S    
C10   C12   S    
Cu2   O2    S    
C58   H42   S    
C27   N4    S    
C61   H48   S    
O18   C68   S    
C49   H20   S    
C20   N2    S    
C65   C66   S    
C47   H16   S    
C31   N6    A    
C21   C23   S    
N1    N2    D    
C60   H45   S    
C32   N5    S    
C22   C24   A    
C59   C60   S    
C8    C37   A    
C73   H76   S    
C25   N3    A    
C51   C52   S    
C71   H71   S    
C23   O6    A    
C58   H41   S    
O15   C59   S    
C68   H65   S    
C46   H14   S    
N4    N5    D    
O17   C65   S    
C19   C21   A    
C64   H54   S    
C32   C35   A    
C61   H47   S    
C11   C17   A    
C44   C45   S    
C9    C37   A    
C71   C72   S    
C6    C7    A    
C47   C48   S    
C34   O7    A    
O14   C56   S    
C10   C38   A    
C59   H44   S    
C66   H59   S    
C73   H77   S    
C72   H74   S    
C59   H43   S    
C74   C75   S    
C15   N1    S    
C44   H8    S    
C3    C10   A    
C24   O12   S    
Cu2   O6    S    
C30   C32   A    
C11   C13   A    
C30   C31   A    
C4    C5    A    
C52   H26   S    
C33   C35   A    
Cu1   N6    S    
C2    C3    A    
C9    F1    S    
C16   O9    S    
C76   H82   S    
C56   H37   S    
C57   H39   S    
Cu2   N3    S    
C35   F9    S    
C6    F6    S    
C42   H3    S    
C75   C76   S    
C2    C40   A    
O9    C41   S    
C49   H19   S    
C47   H15   S    
C27   C28   A    
C60   H46   S    
C33   N6    A    
C14   C15   A    
C68   C69   S    
C73   H75   S    
C21   C22   A    
C1    O1    A    
Cu1   O3    S    
O16   C62   S    
Cu2   O4    S    
C58   H40   S    
C55   H34   S    
