data_mof_unit_20858.cif
_audit_creation_date              2012-12-11T16:23:54-0500
_audit_creation_method            fapswitch 2.2
_symmetry_space_group_name_H-M    P1
_symmetry_Int_Tables_number       1
_space_group_crystal_system       triclinic
_cell_length_a                    14.722388
_cell_length_b                    14.746999
_cell_length_c                    33.338932
_cell_angle_alpha                 96.102838
_cell_angle_beta                  96.183589
_cell_angle_gamma                 61.209823
_cell_volume                      6294.29575203

loop_
_atom_site_label
_atom_site_type_symbol
_atom_type_description
_atom_site_fract_x
_atom_site_fract_y
_atom_site_fract_z
_atom_type_partial_charge
C1    C     C_R   0.390674 0.700349 0.446234 0.535701
C2    C     C_1   0.302619 0.330601 0.230885 -0.023142
C3    C     C_3   0.983069 0.074652 0.162790 -0.372192
C4    C     C_3   0.173633 0.830642 0.407156 -0.363563
C5    C     C_3   0.494598 0.887861 0.168011 -0.382775
C6    C     C_3   0.478449 0.878498 0.903913 -0.374749
C7    C     C_3   0.548743 0.773710 0.693431 -0.344442
C8    C     C_3   0.098017 0.415739 0.187990 -0.388645
C9    C     C_3   0.135625 0.473897 0.314965 -0.365945
C10   C     C_3   0.878841 0.448882 0.437514 -0.361491
C11   C     C_1   0.310204 0.335021 0.267089 -0.019655
C12   C     C_R   0.404999 0.385476 0.434343 0.572154
C13   C     C_R   0.284323 0.290936 0.103210 0.021432
C14   C     C_R   0.763508 0.368114 0.411924 0.025119
C15   C     C_R   0.844288 0.390079 0.404828 -0.001237
C16   C     C_R   0.891247 0.355905 0.367058 0.016783
C17   C     C_R   0.851902 0.306304 0.336726 0.041245
C18   C     C_R   0.778384 0.278779 0.345938 -0.137455
C19   C     C_R   0.735602 0.308399 0.382999 -0.147391
C20   C     C_R   0.323730 0.339664 0.310281 0.019736
C21   C     C_R   0.889434 0.279402 0.212891 0.340504
C22   C     C_R   0.875327 0.292316 0.293982 0.339522
C23   C     C_R   0.859061 0.367094 0.149662 -0.118453
C24   C     C_R   0.702213 0.409257 0.447977 0.539848
C25   C     C_R   0.872597 0.367832 0.108754 -0.020888
C26   C     C_R   0.952873 0.179671 0.104156 -0.120867
C27   C     C_R   0.940919 0.178604 0.145082 -0.013895
C28   C     C_R   0.895895 0.273802 0.168605 0.031116
C29   C     C_R   0.924150 0.272391 0.086004 0.019493
C30   C     C_R   0.371505 0.757188 0.409604 0.034721
C31   C     C_R   0.422283 0.276297 0.327395 -0.141151
C32   C     C_R   0.271994 0.809764 0.389087 -0.012874
C33   C     C_R   0.264576 0.841780 0.350148 -0.094311
C34   C     C_R   0.353820 0.822492 0.331541 0.019911
C35   C     C_R   0.449881 0.780184 0.353644 -0.125763
C36   C     C_R   0.393593 0.701223 0.561278 0.538701
C37   C     C_R   0.458529 0.748333 0.392172 -0.138738
C38   C     C_R   0.341200 0.849805 0.207303 0.341378
C39   C     C_R   0.348705 0.837468 0.288240 0.345371
C40   C     C_R   0.252765 0.853154 0.139954 -0.139353
C41   C     C_R   0.232807 0.877407 0.099708 -0.142965
C42   C     C_R   0.444751 0.287099 0.368395 -0.171788
C43   C     C_R   0.383738 0.903730 0.104101 -0.106995
C44   C     C_R   0.404338 0.880472 0.144815 -0.002932
C45   C     C_R   0.335466 0.858438 0.163383 0.050342
C46   C     C_R   0.295374 0.907454 0.082008 0.008714
C47   C     C_R   0.370497 0.368193 0.585081 -0.013958
C48   C     C_R   0.406955 0.389004 0.549118 0.570121
C49   C     C_R   0.282599 0.444599 0.605033 0.216630
C50   C     C_R   0.267332 0.429842 0.643885 -0.115870
C51   C     C_R   0.337368 0.340110 0.663476 0.000560
C52   C     C_R   0.417571 0.258938 0.641818 0.230491
C53   C     C_R   0.385955 0.274500 0.167020 -0.101480
C54   C     C_R   0.433454 0.273607 0.603086 -0.129334
C55   C     C_R   0.318875 0.343901 0.788040 0.333110
C56   C     C_R   0.330011 0.337512 0.707026 0.371771
C57   C     C_R   0.216253 0.397772 0.849182 -0.109891
C58   C     C_R   0.205096 0.379610 0.888063 -0.126413
C59   C     C_R   0.386810 0.250764 0.893387 -0.129399
C60   C     C_R   0.700944 0.413900 0.562797 0.545574
C61   C     C_R   0.398135 0.269435 0.854630 -0.114373
C62   C     C_R   0.311752 0.339483 0.831457 0.032764
C63   C     C_R   0.289104 0.302324 0.909686 0.018704
C64   C     C_R   0.382208 0.257081 0.124835 -0.012254
C65   C     C_R   0.752137 0.382205 0.603308 -0.022047
C66   C     C_R   0.775577 0.450228 0.629681 -0.093227
C67   C     C_R   0.802413 0.431715 0.670642 0.254742
C68   C     C_R   0.806686 0.344046 0.685577 0.043360
C69   C     C_R   0.789422 0.272967 0.659060 -0.151692
C70   C     C_R   0.762504 0.291696 0.618187 -0.131683
C71   C     C_R   0.888268 0.213968 0.822549 -0.158472
C72   C     C_R   0.369073 0.362229 0.393305 0.027665
C73   C     C_R   0.917192 0.201152 0.863688 -0.140134
C74   C     C_R   0.865956 0.384198 0.874563 -0.097184
C75   C     C_R   0.193075 0.346269 0.124292 -0.118256
C76   C     C_R   0.836508 0.397337 0.833429 0.257259
C77   C     C_R   0.850734 0.311175 0.807113 0.047946
C78   C     C_1   0.834531 0.320201 0.764112 0.071294
C79   C     C_1   0.822476 0.329621 0.728223 0.070646
C80   C     C_R   0.909711 0.285490 0.889852 -0.022085
C81   C     C_R   0.377650 0.753507 0.602144 0.005707
C82   C     C_R   0.282841 0.788563 0.619586 -0.106596
C83   C     C_R   0.274712 0.816530 0.660802 -0.108776
C84   C     C_R   0.265741 0.420454 0.376861 0.233390
C85   C     C_R   0.360995 0.809753 0.685179 0.053538
C86   C     C_R   0.197302 0.362034 0.166311 0.002549
C87   C     C_R   0.455110 0.780532 0.667822 0.004618
C88   C     C_R   0.462351 0.753377 0.626222 -0.093016
C89   C     C_R   0.408642 0.853710 0.834185 -0.073176
C90   C     C_R   0.390438 0.881738 0.875347 -0.007666
C91   C     C_R   0.213825 0.908141 0.860209 -0.132753
C92   C     C_R   0.233308 0.880360 0.819648 -0.115115
C93   C     C_R   0.329437 0.856147 0.806449 0.029092
C94   C     C_1   0.344145 0.839067 0.764007 -0.008523
C95   C     C_1   0.352915 0.826375 0.728156 -0.008366
C96   C     C_R   0.242983 0.410009 0.334706 0.031663
C97   C     C_R   0.294716 0.323830 0.187638 0.039404
C98   C     C_R   0.289922 0.913369 0.888433 0.033721
C99   C     C_R   0.965588 0.263230 0.046358 0.539473
C100  C     C_R   0.272069 0.259074 0.060284 0.541527
C101  C     C_R   0.259009 0.960220 0.043963 0.542811
C102  C     C_R   0.962570 0.267610 0.930730 0.546633
C103  C     C_R   0.270837 0.263956 0.945328 0.546781
C104  C     C_R   0.256571 0.964429 0.928974 0.544327
C105  C     C_3   0.482629 0.201989 0.104035 -0.383022
C106  C     C_3   0.833085 0.470749 0.090693 -0.384647
C107  C     C_3   0.983512 0.369825 0.359767 -0.373732
Cl1   Cl    Cl    0.191415 0.562759 0.584438 -0.559009
Cl2   Cl    Cl    0.500701 0.137578 0.661721 -0.565276
Cl3   Cl    Cl    0.787550 0.521576 0.815465 -0.551752
Cl4   Cl    Cl    0.824575 0.522782 0.702840 -0.535505
Cl5   Cl    Cl    0.165855 0.504337 0.408868 -0.632889
Cr1   Cr    Cr6+3 0.576280 0.580550 0.506370 1.024290
Cr2   Cr    Cr6+3 0.346780 0.572400 0.496520 1.136561
Cr3   Cr    Cr6+3 0.576960 0.347070 0.497150 1.025906
Cr4   Cr    Cr6+3 0.087320 0.083240 0.984860 1.015374
Cr5   Cr    Cr6+3 0.087720 0.316210 0.996740 1.013177
Cr6   Cr    Cr6+3 0.317350 0.090340 0.995890 1.001192
H1    H     H_    0.675020 0.289868 0.387992 0.132030
H2    H     H_    0.200288 0.834683 0.153366 0.128630
H3    H     H_    0.433039 0.925942 0.090414 0.127846
H4    H     H_    0.498789 0.212009 0.587856 0.175839
H5    H     H_    0.128867 0.420964 0.899940 0.143253
H6    H     H_    0.203387 0.491794 0.659679 0.183407
H7    H     H_    0.483768 0.221384 0.308601 0.125579
H8    H     H_    0.148667 0.453530 0.832299 0.161139
H9    H     H_    0.453132 0.191481 0.909569 0.129768
H10   H     H_    0.473176 0.224313 0.842023 0.144010
H11   H     H_    0.951215 0.124033 0.874472 0.138564
H12   H     H_    0.748606 0.239469 0.323387 0.136543
H13   H     H_    0.899329 0.147089 0.802506 0.123776
H14   H     H_    0.792852 0.204971 0.670265 0.140566
H15   H     H_    0.744629 0.237961 0.598727 0.151826
H16   H     H_    0.767828 0.520666 0.619038 0.162896
H17   H     H_    0.859115 0.450372 0.894167 0.156486
H18   H     H_    0.523999 0.240258 0.380071 0.139492
H19   H     H_    0.483588 0.833024 0.823460 0.137851
H20   H     H_    0.536050 0.726298 0.613151 0.139732
H21   H     H_    0.216392 0.789409 0.601819 0.171937
H22   H     H_    0.171849 0.881513 0.798292 0.123036
H23   H     H_    0.821769 0.440324 0.167240 0.135562
H24   H     H_    0.136545 0.931153 0.868950 0.133298
H25   H     H_    0.202053 0.839328 0.674010 0.129184
H26   H     H_    0.117554 0.372279 0.108231 0.139037
H27   H     H_    0.498061 0.122397 0.093160 0.154465
H28   H     H_    0.478416 0.245851 0.078189 0.141688
H29   H     H_    0.549536 0.195155 0.124856 0.119472
H30   H     H_    0.779542 0.535900 0.110639 0.117081
H31   H     H_    0.899012 0.484646 0.086458 0.152051
H32   H     H_    0.789501 0.471917 0.061245 0.145969
H33   H     H_    0.046002 0.334354 0.383867 0.153721
H34   H     H_    0.991783 0.106056 0.086973 0.140703
H35   H     H_    0.019551 0.330212 0.331143 0.148756
H36   H     H_    0.959482 0.453588 0.359427 0.158066
H37   H     H_    0.021785 0.009245 0.140164 0.109041
H38   H     H_    0.041647 0.066602 0.188050 0.178283
H39   H     H_    0.918751 0.066476 0.173511 0.160346
H40   H     H_    0.103412 0.885619 0.389536 0.120961
H41   H     H_    0.169481 0.757492 0.407249 0.194193
H42   H     H_    0.171126 0.865800 0.438444 0.148213
H43   H     H_    0.552699 0.810757 0.178549 0.160846
H44   H     H_    0.534658 0.913434 0.149062 0.110657
H45   H     H_    0.535442 0.710460 0.407208 0.143336
H46   H     H_    0.466791 0.945194 0.194230 0.156792
H47   H     H_    0.553716 0.837711 0.889432 0.134006
H48   H     H_    0.464296 0.958453 0.913375 0.162361
H49   H     H_    0.486317 0.836191 0.930799 0.137545
H50   H     H_    0.616149 0.749610 0.674997 0.169850
H51   H     H_    0.529944 0.850586 0.708932 0.167143
H52   H     H_    0.571721 0.715991 0.716447 0.183124
H53   H     H_    0.028257 0.441355 0.166547 0.128845
H54   H     H_    0.095978 0.362003 0.208395 0.156972
H55   H     H_    0.093791 0.485134 0.206155 0.136702
H56   H     H_    0.164511 0.878938 0.083296 0.129666
H57   H     H_    0.077317 0.526030 0.336498 0.188577
H58   H     H_    0.139158 0.522874 0.292713 0.132248
H59   H     H_    0.107354 0.421452 0.298861 0.131075
H60   H     H_    0.950234 0.450879 0.431531 0.159223
H61   H     H_    0.817115 0.530708 0.440694 0.163991
H62   H     H_    0.894605 0.412423 0.466720 0.146641
H63   H     H_    0.460418 0.246647 0.184103 0.115357
H64   H     H_    0.189462 0.877241 0.333594 0.139570
H65   H     H_    0.519769 0.766684 0.340462 0.143681
N1    N     N_R   0.886365 0.362057 0.236207 -0.246460
N2    N     N_R   0.437297 0.800798 0.268781 -0.230644
N3    N     N_R   0.433611 0.806916 0.229104 -0.234892
N4    N     N_R   0.231982 0.395932 0.763766 -0.204911
N5    N     N_R   0.237522 0.393365 0.724062 -0.209223
N6    N     N_R   0.416941 0.286823 0.731371 -0.139812
N7    N     N_R   0.411435 0.289227 0.771028 -0.219445
N8    N     N_R   0.878594 0.368821 0.275921 -0.230860
N9    N     N_R   0.877834 0.210043 0.270704 -0.232195
N10   N     N_R   0.884957 0.203728 0.231011 -0.236097
N11   N     N_R   0.252543 0.886291 0.226707 -0.238088
N12   N     N_R   0.256195 0.879981 0.266386 -0.230442
O1    O     O_R   0.679450 0.499830 0.463150 -0.518684
O2    O     O_R   0.340240 0.172500 0.045430 -0.517707
O3    O     O_R   0.309670 0.000990 0.032050 -0.505252
O4    O     O_R   0.480650 0.664000 0.464630 -0.507099
O5    O     O_R   0.168330 0.982130 0.939200 -0.519811
O6    O     O_R   0.000140 0.178170 0.944610 -0.497638
O7    O     O_R   0.983010 0.336750 0.948660 -0.517204
O8    O     O_R   0.181800 0.312190 0.959860 -0.499308
O9    O     O_R   0.338500 0.175680 0.956950 -0.522726
O10   O     O_R   0.308050 0.003930 0.950020 -0.501340
O11   O     O_3   0.164130 0.163270 0.992500 -0.235208
O12   O     O_R   0.356040 0.477400 0.534170 -0.422745
O13   O     O_R   0.323930 0.675950 0.455370 -0.502992
O14   O     O_R   0.354700 0.475360 0.451930 -0.432814
O15   O     O_R   0.494470 0.320860 0.448390 -0.533625
O16   O     O_R   0.662580 0.357570 0.460050 -0.503072
O17   O     O_R   0.680900 0.502040 0.551870 -0.515370
O18   O     O_R   0.481990 0.666040 0.546870 -0.507409
O19   O     O_R   0.325370 0.678160 0.544080 -0.478594
O20   O     O_R   0.495910 0.323070 0.537100 -0.530915
O21   O     O_R   0.663920 0.359620 0.542290 -0.498398
O22   O     O_3   0.500010 0.500010 0.500010 -0.261844
O23   O     O_R   0.170070 0.978950 0.027680 -0.520243
O24   O     O_R   0.001760 0.175230 0.026640 -0.505859
O25   O     O_R   0.984760 0.333570 0.037150 -0.521284
O26   O     O_R   0.183410 0.309240 0.041890 -0.507226

loop_
_geom_bond_atom_site_label_1
_geom_bond_atom_site_label_2
_ccdc_geom_bond_type
C21   N1    A    
C83   H25   S    
C41   H56   S    
C6    H48   S    
C3    H38   S    
C93   C94   S    
C106  H32   S    
C31   C42   A    
C4    C32   S    
Cr2   O19   S    
Cr5   O26   S    
Cr1   O18   S    
C87   C88   A    
Cr4   O6    S    
N2    N3    A    
C57   C62   A    
C47   C49   A    
C77   C78   S    
C58   H5    S    
C84   Cl5   S    
C74   C76   A    
Cr5   O25   S    
C10   H61   S    
C100  O26   A    
Cr2   O14   S    
Cr6   O11   S    
C102  O6    A    
C12   O14   A    
C51   C56   S    
C56   N6    A    
C10   C15   S    
C5    H44   S    
Cr4   O5    S    
C53   C64   A    
C4    H41   S    
C24   O1    A    
C59   H9    S    
C15   C16   A    
C105  H29   S    
C55   C62   S    
C58   C63   A    
C106  H30   S    
Cr2   O12   S    
C9    H58   S    
C42   H18   S    
C34   C35   A    
C84   C96   A    
C14   C24   S    
C1    O13   A    
C86   C97   A    
C103  O9    A    
C92   C93   A    
C38   C45   S    
C16   C107  S    
C36   O19   A    
C66   H16   S    
C101  O23   A    
C4    H40   S    
C13   C75   A    
C2    C97   S    
C16   C17   A    
C70   H15   S    
C41   C46   A    
C9    H57   S    
C55   N4    A    
C43   H3    S    
C61   C62   A    
C8    H53   S    
C37   H45   S    
C91   H24   S    
C107  H33   S    
C100  O2    A    
C68   C79   S    
N11   N12   A    
C12   C72   S    
C48   O20   A    
C19   H1    S    
C106  H31   S    
C74   C80   A    
C89   C93   A    
C104  O5    A    
C107  H36   S    
C1    O4    A    
C2    C11   T    
Cr1   O22   S    
C24   O16   A    
C52   C54   A    
C25   C106  S    
C33   C34   A    
C49   Cl1   S    
C85   C87   A    
C25   C29   A    
C40   C45   A    
C46   C101  S    
C73   H11   S    
C11   C20   S    
C59   C61   A    
C29   C99   S    
C51   C52   A    
C10   H60   S    
C5    H46   S    
C56   N5    A    
C64   C105  S    
Cr6   O10   S    
C50   H6    S    
C76   C77   A    
C63   C103  S    
Cr5   O11   S    
C89   C90   A    
C91   C92   A    
C71   C73   A    
C78   C79   T    
C68   C69   A    
C53   C97   A    
C38   N3    A    
C39   N12   A    
C82   C83   A    
C81   C82   A    
C34   C39   S    
C30   C37   A    
C80   C102  S    
C7    H50   S    
C5    H43   S    
C60   O21   A    
C67   C68   A    
C55   N7    A    
C82   H21   S    
C53   H63   S    
C36   O18   A    
C75   C86   A    
C47   C48   S    
C36   C81   S    
C105  H27   S    
C74   H17   S    
C3    H37   S    
C17   C18   A    
Cr1   O4    S    
N1    N8    A    
Cr3   O20   S    
C94   C95   T    
C50   C51   A    
C107  H35   S    
C104  O10   A    
Cr4   O24   S    
C60   O17   A    
C9    C96   S    
C88   H20   S    
C72   C84   A    
C47   C54   A    
C67   Cl4   S    
C40   C41   A    
C83   C85   A    
C5    C44   S    
C99   O24   A    
C60   C65   S    
C65   C66   A    
C89   H19   S    
C7    H51   S    
C43   C44   A    
C26   C27   A    
Cr1   O1    S    
C18   H12   S    
C23   C28   A    
C31   H7    S    
Cr2   O22   S    
C22   N9    A    
Cr5   O7    S    
Cr6   O3    S    
C71   C77   A    
C9    H59   S    
C44   C45   A    
C35   C37   A    
N6    N7    A    
C57   H8    S    
C6    H49   S    
Cr3   O15   S    
C40   H2    S    
C101  O3    A    
C14   C19   A    
C21   C28   S    
Cr6   O9    S    
Cr1   O17   S    
C35   H65   S    
C8    H54   S    
C59   C63   A    
C17   C22   S    
Cr3   O16   S    
C10   H62   S    
C32   C33   A    
C42   C72   A    
C13   C100  S    
C26   H34   S    
C102  O7    A    
C12   O15   A    
N4    N5    A    
C6    C90   S    
N9    N10   A    
C30   C32   A    
C85   C95   S    
C57   C58   A    
C4    H42   S    
C13   C64   A    
C52   Cl2   S    
C69   H14   S    
C98   C104  S    
C105  H28   S    
C48   O12   A    
C3    C27   S    
C1    C30   S    
C73   C80   A    
Cr2   O13   S    
Cr3   O21   S    
C66   C67   A    
C61   H10   S    
C8    C86   S    
C23   C25   A    
C91   C98   A    
C20   C96   A    
C69   C70   A    
C43   C46   A    
C103  O8    A    
C6    H47   S    
C81   C88   A    
C75   H26   S    
C71   H13   S    
C39   N2    A    
C38   N11   A    
C54   H4    S    
C7    C87   S    
C99   O25   A    
C26   C29   A    
C76   Cl3   S    
C49   C50   A    
C7    H52   S    
C23   H23   S    
C33   H64   S    
C3    H39   S    
C18   C19   A    
C14   C15   A    
Cr3   O22   S    
C8    H55   S    
C21   N10   A    
C22   N8    A    
Cr5   O8    S    
Cr6   O2    S    
Cr4   O23   S    
C90   C98   A    
Cr4   O11   S    
C65   C70   A    
C27   C28   A    
C20   C31   A    
C92   H22   S    
