data_mof_unit_60801.cif
_audit_creation_date              2012-12-10T21:33:24-0500
_audit_creation_method            fapswitch 2.2
_symmetry_space_group_name_H-M    P1
_symmetry_Int_Tables_number       1
_space_group_crystal_system       triclinic
_cell_length_a                    14.164152
_cell_length_b                    16.100065
_cell_length_c                    16.957789
_cell_angle_alpha                 87.836054
_cell_angle_beta                  90.136521
_cell_angle_gamma                 92.030169
_cell_volume                      3861.93263129

loop_
_atom_site_label
_atom_site_type_symbol
_atom_type_description
_atom_site_fract_x
_atom_site_fract_y
_atom_site_fract_z
_atom_type_partial_charge
C1    C     C_R   0.501394 0.488947 0.652709 0.868818
C2    C     C_R   0.500197 0.511025 0.347238 0.868330
C3    C     C_R   0.509170 0.399893 0.859590 -0.193025
C4    C     C_R   0.525455 0.598456 0.140379 -0.193327
C5    C     C_R   0.499652 0.404932 0.778091 -0.220334
C6    C     C_R   0.519232 0.594443 0.222141 -0.219380
C7    C     C_R   0.458492 0.763440 0.458078 -0.011832
C8    C     C_R   0.541374 0.236562 0.542025 -0.011576
C9    C     C_R   0.460905 0.850620 0.460605 -0.272741
C10   C     C_R   0.538983 0.149381 0.539499 -0.272697
C11   C     C_R   0.517788 0.890851 0.517201 0.330952
C12   C     C_R   0.482261 0.109149 0.482797 0.331013
C13   C     C_R   0.570495 0.841063 0.569384 -0.302019
C14   C     C_R   0.429688 0.158935 0.430513 -0.302198
C15   C     C_R   0.566014 0.754157 0.564774 0.006319
C16   C     C_R   0.434148 0.245841 0.435121 0.005283
C17   C     C_R   0.671026 0.499729 0.500024 0.899312
C18   C     C_R   0.328975 0.500271 0.499977 0.900369
C19   C     C_1   0.772403 0.499294 0.500017 -0.207652
C20   C     C_1   0.227595 0.500706 0.499989 -0.208857
C21   C     C_1   0.857586 0.499374 0.500015 -0.008994
C22   C     C_1   0.142411 0.500626 0.499995 -0.009132
C23   C     C_1   0.957402 0.499785 0.500009 0.008038
C24   C     C_1   0.042595 0.500216 0.500003 0.008043
C25   C     C_R   0.511262 0.482199 0.737742 -0.030821
C26   C     C_R   0.502085 0.517426 0.261796 -0.031705
C27   C     C_R   0.535939 0.553576 0.778860 -0.230943
C28   C     C_R   0.488986 0.445057 0.219319 -0.231221
C29   C     C_R   0.545817 0.548459 0.859811 -0.160990
C30   C     C_R   0.495148 0.449075 0.138152 -0.161077
C31   C     C_R   0.529798 0.471643 0.900910 0.328072
C32   C     C_R   0.515079 0.525946 0.098158 0.328860
H1    H     H_    0.474434 0.385045 0.248678 0.161898
H2    H     H_    0.547512 0.613561 0.748647 0.160328
H3    H     H_    0.484293 0.392007 0.107028 0.148786
H4    H     H_    0.564166 0.604802 0.890138 0.148376
H5    H     H_    0.497520 0.340564 0.890955 0.139447
H6    H     H_    0.539423 0.657887 0.109791 0.139854
H7    H     H_    0.584953 0.267206 0.585450 0.131626
H8    H     H_    0.414789 0.732798 0.414735 0.131512
H9    H     H_    0.581089 0.114317 0.581426 0.154615
H10   H     H_    0.418684 0.885684 0.418765 0.154643
H11   H     H_    0.614973 0.869544 0.613600 0.146023
H12   H     H_    0.385334 0.130453 0.386215 0.146161
H13   H     H_    0.606933 0.716356 0.605310 0.127476
H14   H     H_    0.393344 0.283639 0.394498 0.128638
N1    N     N_2   0.528424 0.464906 0.983805 -0.208517
N2    N     N_2   0.522188 0.533002 0.015445 -0.207229
N3    N     N_R   0.510540 0.716920 0.509720 -0.082342
N4    N     N_R   0.489460 0.283080 0.490280 -0.082384
N5    N     N_2   0.524426 0.979546 0.524092 -0.187022
N6    N     N_2   0.475632 0.020455 0.475909 -0.187054
O1    O     O_R   0.496230 0.422540 0.612660 -0.622194
O2    O     O_R   0.503770 0.577460 0.387340 -0.622405
O3    O     O_R   0.503000 0.561840 0.618900 -0.621325
O4    O     O_R   0.497000 0.438160 0.381100 -0.621759
O5    O     O_R   0.622900 0.430330 0.496880 -0.596677
O6    O     O_R   0.377100 0.569670 0.503120 -0.596270
O7    O     O_R   0.629670 0.569640 0.503120 -0.598998
O8    O     O_R   0.370330 0.430360 0.496880 -0.598248
Zn1   Zn    Zn3+2 0.495480 0.406980 0.495830 0.942926
Zn2   Zn    Zn3+2 0.504520 0.593020 0.504170 0.942818
H15   H     H_    0.481901 0.348943 0.746981 0.161880
H16   H     H_    0.529092 0.651063 0.254157 0.162527

loop_
_geom_bond_atom_site_label_1
_geom_bond_atom_site_label_2
_ccdc_geom_bond_type
C17   O5    A    
O6    Zn2   S    
C30   C32   A    
C23   C24   T    
O5    Zn1   S    
C8    H7    S    
C27   C29   A    
C9    C11   A    
C12   N6    S    
C26   C28   A    
N1    N2    D    
C13   C15   A    
C13   H11   S    
C7    H8    S    
C28   C30   A    
C6    C26   A    
C7    N3    A    
C2    C26   S    
C2    O4    A    
C10   H9    S    
C1    C25   S    
C32   N2    S    
C29   H4    S    
C3    H5    S    
C9    H10   S    
C4    C32   A    
C10   C12   A    
C30   H3    S    
C17   O7    A    
C29   C31   A    
C5    C25   A    
C3    C31   A    
C18   O8    A    
C19   C21   T    
C12   C14   A    
C28   H1    S    
C22   C24   S    
C15   N3    A    
C27   H2    S    
C1    O3    A    
C16   N4    A    
C14   C16   A    
C4    C6    A    
C25   C27   A    
C15   H13   S    
C6    H16   S    
N5    N6    D    
O3    Zn2   S    
C8    N4    A    
C11   C13   A    
C11   N5    S    
C5    H15   S    
C18   C20   S    
C14   H12   S    
C2    O2    A    
C16   H14   S    
C7    C9    A    
N4    Zn1   S    
C1    O1    A    
O4    Zn1   S    
O7    Zn2   S    
C31   N1    S    
N3    Zn2   S    
O2    Zn2   S    
C17   C19   S    
C4    H6    S    
O1    Zn1   S    
C21   C23   S    
C18   O6    A    
C8    C10   A    
C20   C22   T    
O8    Zn1   S    
C3    C5    A    
