data_mof_unit_55114.cif
_audit_creation_date              2012-12-11T15:29:47-0500
_audit_creation_method            fapswitch 2.2
_symmetry_space_group_name_H-M    P1
_symmetry_Int_Tables_number       1
_space_group_crystal_system       triclinic
_cell_length_a                    13.499498
_cell_length_b                    13.552018
_cell_length_c                    27.565247
_cell_angle_alpha                 90.305404
_cell_angle_beta                  89.761573
_cell_angle_gamma                 59.980548
_cell_volume                      4366.25679545

loop_
_atom_site_label
_atom_site_type_symbol
_atom_type_description
_atom_site_fract_x
_atom_site_fract_y
_atom_site_fract_z
_atom_type_partial_charge
C1    C     C_R   0.619313 0.100060 0.570290 0.547202
C2    C     C_1   0.644293 0.716133 0.659709 -0.031716
C3    C     C_3   0.198570 0.052340 0.745597 0.091845
C4    C     C_R   0.599056 0.780469 0.568811 0.543380
C5    C     C_3   0.277524 0.062051 0.783452 -0.118610
C6    C     C_1   0.106382 0.196099 0.902042 0.007537
C7    C     C_1   0.239687 0.132902 0.618897 0.009010
C8    C     C_3   0.091446 0.145810 0.771995 -0.085478
C9    C     C_3   0.170322 0.157000 0.809098 0.027653
C10   C     C_3   0.096445 0.237610 0.740406 -0.111817
C11   C     C_3   0.202727 0.143260 0.714377 0.023884
C12   C     C_1   0.627729 0.738420 0.617250 0.000301
C13   C     C_3   0.174937 0.248794 0.778117 -0.103390
C14   C     C_3   0.281998 0.153999 0.751472 -0.139235
C15   C     C_1   0.141459 0.173385 0.860894 -0.031181
C16   C     C_R   0.279515 0.120760 0.569836 0.546999
C17   C     C_1   0.219328 0.138402 0.661701 -0.021196
C18   C     C_3   0.715078 0.196932 0.737165 -0.088634
C19   C     C_3   0.616132 0.277631 0.771767 -0.099280
C20   C     C_1   0.689321 0.205771 0.902126 0.036001
C21   C     C_1   0.629486 0.127967 0.619393 0.000473
C22   C     C_3   0.753680 0.100387 0.774262 0.094753
C23   C     C_3   0.713221 0.574090 0.768904 0.069968
C24   C     C_3   0.655825 0.179879 0.808607 0.034887
C25   C     C_3   0.676175 0.060477 0.750905 -0.121451
C26   C     C_3   0.636531 0.158472 0.714557 0.028520
C27   C     C_3   0.576978 0.141070 0.785656 -0.146432
C28   C     C_R   0.622128 0.099612 0.431015 0.539544
C29   C     C_3   0.536999 0.238798 0.748169 -0.115715
C30   C     C_1   0.670077 0.193250 0.860551 0.009349
C31   C     C_1   0.632511 0.144506 0.662127 -0.039365
C32   C     C_R   0.637242 0.726520 0.382309 0.006708
C33   C     C_R   0.696564 0.765091 0.353451 -0.158690
C34   C     C_3   0.672780 0.669558 0.807183 0.032408
C35   C     C_R   0.703267 0.748678 0.303963 -0.174510
C36   C     C_R   0.652312 0.692167 0.282222 -0.033636
C37   C     C_R   0.601004 0.643437 0.310998 0.106887
C38   C     C_R   0.593039 0.661270 0.361580 0.126359
C39   C     C_R   0.774938 0.615223 0.210049 -0.127993
C40   C     C_R   0.601978 0.777021 0.430523 0.541230
C41   C     C_R   0.789074 0.591917 0.160845 -0.133137
C42   C     C_R   0.582801 0.696712 0.150402 -0.126507
C43   C     C_R   0.569039 0.723427 0.199657 -0.086491
C44   C     C_R   0.664866 0.676372 0.229846 0.035644
C45   C     C_3   0.600322 0.643007 0.741056 -0.093862
C46   C     C_R   0.692915 0.627161 0.131249 0.021230
C47   C     C_R   0.248698 0.130865 0.379551 0.035194
C48   C     C_R   0.187127 0.081949 0.360343 -0.128170
C49   C     C_R   0.167071 0.087375 0.310434 -0.110816
C50   C     C_R   0.211988 0.138320 0.279672 0.033218
C51   C     C_R   0.278668 0.181023 0.299178 -0.133803
C52   C     C_R   0.282343 0.119032 0.430216 0.540201
C53   C     C_R   0.294705 0.179434 0.348506 -0.117931
C54   C     C_R   0.159899 0.260369 0.207167 -0.123232
C55   C     C_R   0.125194 0.283866 0.159546 -0.129697
C56   C     C_3   0.657133 0.698664 0.712156 0.017145
C57   C     C_R   0.134897 0.100714 0.152156 -0.130075
C58   C     C_R   0.172354 0.075965 0.199950 -0.127165
C59   C     C_R   0.182431 0.157024 0.228081 0.033861
C60   C     C_R   0.108558 0.206160 0.132133 0.026026
C61   C     C_R   0.639867 0.135196 0.382624 0.023286
C62   C     C_R   0.546693 0.230596 0.361452 -0.142594
C63   C     C_R   0.543207 0.247522 0.311769 -0.118612
C64   C     C_3   0.771154 0.627750 0.739128 -0.081758
C65   C     C_R   0.634005 0.170951 0.282345 0.032227
C66   C     C_R   0.732450 0.082584 0.303459 -0.051849
C67   C     C_3   0.559655 0.739888 0.779716 -0.137157
C68   C     C_R   0.737791 0.063903 0.353776 0.137715
C69   C     C_R   0.665314 0.097000 0.196521 0.152954
C70   C     C_R   0.692272 0.109799 0.148132 0.137953
C71   C     C_R   0.628244 0.309448 0.165393 -0.175230
C72   C     C_R   0.607394 0.294984 0.213096 -0.166628
C73   C     C_R   0.631564 0.188350 0.229677 0.021640
C74   C     C_R   0.676292 0.216437 0.133316 0.028686
C75   C     C_R   0.050973 0.234496 0.948352 0.555001
C76   C     C_3   0.728341 0.723869 0.777562 0.141723
C77   C     C_R   0.711354 0.563471 0.947009 0.555457
C78   C     C_3   0.615787 0.796667 0.749965 -0.108299
C79   C     C_R   0.722471 0.224228 0.949192 0.557206
C80   C     C_R   0.048100 0.243643 0.086120 0.537923
C81   C     C_R   0.709190 0.572013 0.084202 0.535721
C82   C     C_R   0.718491 0.232416 0.086782 0.568875
C83   C     C_1   0.694235 0.615298 0.900526 0.025074
C84   C     C_3   0.896496 0.748558 0.774067 -0.276066
C85   C     C_2   0.876633 0.023230 0.786947 0.537433
C86   C     C_2   0.560348 0.569628 0.289816 0.575974
C87   C     C_3   0.418947 0.660926 0.387223 -0.252298
C88   C     C_3   0.561345 0.002115 0.218451 -0.305926
C89   C     C_1   0.682985 0.646421 0.859168 0.003525
C90   C     C_3   0.853008 0.937966 0.113862 -0.278220
C91   C     C_3   0.931751 0.890761 0.346197 -0.321710
C92   C     C_2   0.770750 0.448926 0.777582 0.545468
C93   C     C_2   0.209586 0.944006 0.726067 0.595300
Cr1   Cr    Cr6+3 0.417550 0.169090 0.500530 1.022230
Cr2   Cr    Cr6+3 0.669180 0.913420 0.499920 1.034184
Cr3   Cr    Cr6+3 0.413260 0.917540 0.499520 1.026772
Cr4   Cr    Cr6+3 0.909770 0.175810 0.018240 1.032603
Cr5   Cr    Cr6+3 0.913300 0.427650 0.016090 1.028276
Cr6   Cr    Cr6+3 0.657770 0.431010 0.016900 1.032178
H1    H     H_    0.165362 0.330075 0.792162 0.121437
H2    H     H_    0.857117 0.580767 0.721821 0.110922
H3    H     H_    0.849638 0.581397 0.233044 0.114513
H4    H     H_    0.875083 0.538123 0.146898 0.132411
H5    H     H_    0.746270 0.782729 0.282263 0.133016
H6    H     H_    0.483904 0.776687 0.214542 0.148338
H7    H     H_    0.507929 0.725717 0.127842 0.122539
H8    H     H_    0.153913 0.041224 0.383810 0.110449
H9    H     H_    0.164071 0.325908 0.228178 0.103419
H10   H     H_    0.104607 0.366287 0.145327 0.125875
H11   H     H_    0.575591 0.888808 0.741691 0.105976
H12   H     H_    0.024681 0.310294 0.721734 0.157321
H13   H     H_    0.114724 0.054301 0.296172 0.105273
H14   H     H_    0.191025 0.994976 0.215143 0.104696
H15   H     H_    0.122662 0.039410 0.131554 0.119526
H16   H     H_    0.317552 0.217324 0.276343 0.094745
H17   H     H_    0.346651 0.213322 0.362238 0.129869
H18   H     H_    0.472481 0.288689 0.382861 0.129827
H19   H     H_    0.468009 0.318537 0.296102 0.110671
H20   H     H_    0.579116 0.365698 0.237829 0.177006
H21   H     H_    0.473869 0.784520 0.797146 0.154156
H22   H     H_    0.614809 0.392056 0.154603 0.156754
H23   H     H_    0.015234 0.139096 0.781649 0.151420
H24   H     H_    0.804806 0.029693 0.280164 0.122120
H25   H     H_    0.548027 0.608361 0.725582 0.144310
H26   H     H_    0.351549 0.990829 0.801780 0.112409
H27   H     H_    0.360178 0.157508 0.742114 0.112618
H28   H     H_    0.747207 0.847948 0.814995 0.252511
H29   H     H_    0.941307 0.783929 0.795366 0.190012
H30   H     H_    0.873056 0.790387 0.738107 0.159232
H31   H     H_    0.956417 0.655802 0.769169 0.148978
H32   H     H_    0.997905 0.962090 0.838506 0.339587
H33   H     H_    0.447338 0.557090 0.246066 0.318222
H34   H     H_    0.591634 0.366999 0.780722 0.146194
H35   H     H_    0.572995 0.590579 0.426050 0.257415
H36   H     H_    0.376094 0.703091 0.421899 0.140240
H37   H     H_    0.400263 0.591496 0.379385 0.157385
H38   H     H_    0.382315 0.724984 0.357790 0.152068
H39   H     H_    0.729851 0.920913 0.194221 0.253904
H40   H     H_    0.572704 0.921733 0.233648 0.151933
H41   H     H_    0.517631 0.017355 0.182920 0.142344
H42   H     H_    0.506826 0.072099 0.244095 0.162050
H43   H     H_    0.681542 0.980064 0.112353 0.248611
H44   H     H_    0.883879 0.917422 0.075765 0.166390
H45   H     H_    0.770695 0.214857 0.713684 0.152516
H46   H     H_    0.870980 0.857799 0.132046 0.107155
H47   H     H_    0.901705 0.973186 0.132511 0.158629
H48   H     H_    0.864953 0.000509 0.406316 0.264037
H49   H     H_    0.974182 0.930561 0.326147 0.130166
H50   H     H_    0.899427 0.850027 0.320547 0.147457
H51   H     H_    0.996125 0.823190 0.369824 0.143962
H52   H     H_    0.859066 0.293094 0.748477 0.324144
H53   H     H_    0.149918 0.870443 0.679901 0.349965
H54   H     H_    0.447442 0.295832 0.736569 0.116058
H55   H     H_    0.520527 0.117865 0.806008 0.108560
H56   H     H_    0.700328 0.971981 0.740898 0.114007
H57   H     H_    0.731129 0.815454 0.368560 0.170916
N1    N     N_2   0.795465 0.767433 0.800227 -0.520674
N2    N     N_2   0.541688 0.612779 0.391338 -0.480268
N3    N     N_2   0.671711 0.993958 0.212335 -0.538082
N4    N     N_2   0.731046 0.018296 0.114058 -0.515200
N5    N     N_2   0.838964 0.975230 0.375881 -0.500247
O1    O     O_R   0.301780 0.195490 0.553940 -0.507620
O2    O     O_R   0.636050 0.541380 0.962520 -0.505902
O3    O     O_R   0.666480 0.323610 0.968170 -0.496459
O4    O     O_R   0.522450 0.158840 0.550250 -0.495976
O5    O     O_R   0.817280 0.156800 0.072180 -0.501591
O6    O     O_R   0.005110 0.187160 0.067410 -0.508782
O7    O     O_R   0.026450 0.340060 0.069950 -0.527255
O8    O     O_R   0.808300 0.527240 0.065170 -0.509966
O9    O     O_R   0.634070 0.548770 0.069460 -0.518741
O10   O     O_R   0.664650 0.330470 0.067300 -0.511476
O11   O     O_3   0.826940 0.344820 0.017080 -0.248986
O12   O     O_R   0.658840 0.818280 0.449970 -0.504272
O13   O     O_R   0.694460 0.003360 0.553820 -0.503402
O14   O     O_R   0.657750 0.819520 0.549120 -0.496352
O15   O     O_R   0.501990 0.803120 0.552700 -0.503887
O16   O     O_R   0.318230 0.023430 0.549370 -0.488149
O17   O     O_R   0.302950 0.194150 0.446980 -0.520951
O18   O     O_R   0.523540 0.157600 0.451100 -0.512410
O19   O     O_R   0.695630 0.002030 0.446860 -0.495034
O20   O     O_2   0.945146 0.967072 0.754992 -0.517938
O21   O     O_R   0.912762 0.016302 0.834843 -0.699979
O22   O     O_2   0.598188 0.472944 0.305108 -0.523691
O23   O     O_R   0.503160 0.801780 0.445740 -0.511437
O24   O     O_R   0.473498 0.612808 0.255305 -0.743094
O25   O     O_2   0.783505 0.411820 0.818788 -0.525050
O26   O     O_R   0.812468 0.375009 0.737917 -0.733759
O27   O     O_2   0.284253 0.852235 0.741234 -0.547372
O28   O     O_R   0.134288 0.948836 0.690327 -0.657849
O29   O     O_R   0.319320 0.022190 0.450230 -0.499742
O30   O     O_3   0.499990 0.000010 0.499990 -0.253668
O31   O     O_R   0.819250 0.149410 0.965240 -0.489241
O32   O     O_R   0.006940 0.180310 0.968270 -0.489040
O33   O     O_R   0.028420 0.332670 0.963010 -0.502370
O34   O     O_R   0.810130 0.520390 0.966030 -0.487592

loop_
_geom_bond_atom_site_label_1
_geom_bond_atom_site_label_2
_ccdc_geom_bond_type
C84   H29   S    
C66   C68   A    
C63   C65   A    
C1    C21   S    
C85   O21   S    
C23   C45   S    
C27   C29   S    
C35   C36   A    
C18   C26   S    
C24   C27   S    
C79   O3    A    
C2    C12   T    
C74   C82   S    
C92   O26   S    
C56   C78   S    
C6    C75   S    
C39   C41   A    
Cr6   O9    S    
C20   C30   T    
C68   N5    S    
H52   O26   S    
C21   C31   T    
C62   C63   A    
Cr4   O11   S    
C50   C59   S    
Cr3   O30   S    
C36   C37   A    
Cr2   O13   S    
C76   C78   S    
C90   H46   S    
Cr1   O17   S    
C40   O12   A    
H32   O21   S    
C92   O25   D    
C88   N3    S    
C48   H8    S    
C25   H56   S    
C77   C83   S    
Cr3   O29   S    
Cr4   O5    S    
C84   H30   S    
C65   C73   S    
Cr5   O33   S    
C18   C19   S    
C43   H6    S    
C22   C85   S    
Cr4   O32   S    
C49   C50   A    
Cr2   O14   S    
Cr1   O30   S    
C88   H41   S    
C62   H18   S    
C9    C13   S    
C69   N3    S    
C6    C15   T    
C82   O10   A    
Cr5   O8    S    
H39   N3    S    
Cr4   O31   S    
C60   C80   S    
C45   C56   S    
C8    C9    S    
C7    C17   T    
C4    O14   A    
C70   C74   A    
C58   H14   S    
C41   C46   A    
C56   C64   S    
C69   C73   A    
C32   C38   A    
Cr3   O16   S    
C4    C12   S    
C67   H21   S    
Cr1   O1    S    
C80   O6    A    
C90   H44   S    
C23   C92   S    
C53   H17   S    
Cr2   O30   S    
C47   C53   A    
Cr5   O11   S    
C28   C61   S    
C27   H55   S    
C77   O34   A    
C26   C31   S    
C18   C22   S    
C55   C60   A    
C55   H10   S    
C61   C62   A    
C67   C78   S    
Cr2   O12   S    
C87   H38   S    
Cr1   O4    S    
C91   H49   S    
C24   C30   S    
C54   C59   A    
C45   H25   S    
C64   H2    S    
C83   C89   T    
C76   N1    S    
C33   H57   S    
C77   O2    A    
C87   H36   S    
C37   C86   S    
C38   N2    S    
C3    C93   S    
C3    C8    S    
H48   N5    S    
C11   C14   S    
C91   H50   S    
C63   H19   S    
C57   C60   A    
Cr6   O11   S    
C16   O1    A    
C25   C26   S    
Cr4   O6    S    
C22   C25   S    
C51   H16   S    
C41   H4    S    
C51   C53   A    
C34   C67   S    
C43   C44   A    
C75   O33   A    
C88   H40   S    
C5    C9    S    
C37   C38   A    
C71   C74   A    
C46   C81   S    
C42   H7    S    
C47   C48   A    
C1    O4    A    
C23   C34   S    
H53   O28   S    
C50   C51   A    
C64   C76   S    
C10   H12   S    
C78   H11   S    
C52   O29   A    
C81   O9    A    
C28   O19   A    
C5    C14   S    
C39   C44   A    
C26   C29   S    
C49   H13   S    
Cr6   O2    S    
C75   O32   A    
C7    C16   S    
H35   N2    S    
C35   H5    S    
C81   O8    A    
C79   O31   A    
C42   C46   A    
C86   O22   D    
C22   C24   S    
C45   C67   S    
C36   C44   S    
C19   H34   S    
C42   C43   A    
C19   C29   S    
C88   H42   S    
C16   O16   A    
C39   H3    S    
C29   H54   S    
C82   O5    A    
H28   N1    S    
C54   C55   A    
C11   C17   S    
C85   O20   D    
Cr3   O15   S    
C20   C79   S    
Cr3   O23   S    
C87   H37   S    
C71   H22   S    
H43   N4    S    
C72   C73   A    
C3    C5    S    
C10   C13   S    
H33   O24   S    
C91   H51   S    
C84   N1    S    
C47   C52   S    
C93   O28   S    
C25   C27   S    
C14   H27   S    
C87   N2    S    
C54   H9    S    
C32   C33   A    
C13   H1    S    
C18   H45   S    
C19   C24   S    
C58   C59   A    
C23   C64   S    
C1    O13   A    
C90   H47   S    
C2    C56   S    
C61   C68   A    
C8    H23   S    
C57   C58   A    
C57   H15   S    
C48   C49   A    
C72   H20   S    
C84   H31   S    
C33   C35   A    
Cr5   O34   S    
C70   N4    S    
Cr1   O18   S    
C32   C40   S    
C90   N4    S    
C69   C70   A    
C28   O18   A    
C52   O17   A    
C34   C89   S    
C3    C11   S    
C10   C11   S    
Cr6   O3    S    
C93   O27   D    
Cr2   O19   S    
C71   C72   A    
Cr6   O10   S    
C86   O24   S    
C8    C10   S    
C65   C66   A    
C4    O15   A    
C5    H26   S    
C66   H24   S    
C91   N5    S    
C13   C14   S    
C80   O7    A    
Cr5   O7    S    
C9    C15   S    
C34   C76   S    
C40   O23   A    
