data_mof_unit_39846.cif
_audit_creation_date              2013-03-05T15:47:55-0500
_audit_creation_method            fapswitch 2.2
_symmetry_space_group_name_H-M    P1
_symmetry_Int_Tables_number       1
_space_group_crystal_system       triclinic
_cell_length_a                    11.690725
_cell_length_b                    13.06622
_cell_length_c                    13.416412
_cell_angle_alpha                 92.395567
_cell_angle_beta                  76.769488
_cell_angle_gamma                 99.737747
_cell_volume                      1966.25424523

loop_
_atom_site_label
_atom_site_type_symbol
_atom_site_description
_atom_site_fract_x
_atom_site_fract_y
_atom_site_fract_z
_atom_type_partial_charge
O1    O     O_R   0.419710 0.645650 0.494620 -0.594447
O2    O     O_R   0.611450 0.658430 0.507430 -0.547303
C1    C     C_R   0.521290 0.700569 0.499970 0.859651
O3    O     O_R   0.357340 0.490460 0.641450 -0.590170
O4    O     O_R   0.549080 0.503250 0.654260 -0.555249
C2    C     C_R   0.435972 0.491217 0.695899 0.825197
Cu1   Cu    Cu3+1 0.386470 0.492430 0.492410 0.965553
Cu2   Cu    Cu3+1 0.613530 0.507570 0.507590 1.037801
O5    O     O_R   0.388550 0.341570 0.492570 -0.585059
O6    O     O_R   0.580290 0.354350 0.505380 -0.546271
O7    O     O_R   0.450920 0.496750 0.345740 -0.594025
O8    O     O_R   0.642660 0.509540 0.358550 -0.594185
C3    C     C_R   0.479190 0.299161 0.500535 0.813227
C4    C     C_R   0.563071 0.501695 0.304165 0.800052
C5    C     C_R   0.712619 0.410928 0.045303 -0.115567
H1    H     H_    0.759022 0.428188 0.191385 0.182142
H2    H     H_    0.789663 0.375195 0.011149 0.173127
C6    C     C_R   0.596288 0.487078 0.193284 -0.067251
C7    C     C_R   0.288817 0.520390 0.854186 -0.246758
C8    C     C_R   0.254044 0.530670 0.960379 0.395904
C9    C     C_R   0.331949 0.512767 0.020585 -0.218801
C10   C     C_R   0.442174 0.480129 0.976396 0.030401
C11   C     C_R   0.467861 0.456429 0.870487 0.086727
C12   C     C_R   0.527157 0.468858 0.034291 0.112767
C13   C     C_R   0.628114 0.422340 0.988907 0.125541
C14   C     C_R   0.642568 0.386285 0.888335 -0.137713
C15   C     C_R   0.563324 0.402506 0.830044 -0.089449
C16   C     C_R   0.515919 0.504094 0.135647 -0.211535
C17   C     C_R   0.696356 0.442506 0.147394 -0.132669
C18   C     C_R   0.396239 0.486157 0.808285 -0.147108
H3    H     H_    0.444602 0.544733 0.172498 0.153015
H4    H     H_    0.232664 0.541040 0.806805 0.191932
H5    H     H_    0.302458 0.521458 0.102115 0.184521
H6    H     H_    0.577344 0.371057 0.753308 0.189478
C19   C     C_R   0.470740 0.185813 0.498978 -0.175491
C20   C     C_R   0.534748 0.813488 0.499040 -0.118658
C21   C     C_R   0.654646 0.980733 0.516429 0.345768
C22   C     C_R   0.641304 0.873234 0.511927 -0.192905
C23   C     C_R   0.442777 0.862001 0.483247 -0.218306
C24   C     C_R   0.454643 0.969899 0.485792 0.079885
C25   C     C_R   0.558587 0.030663 0.507991 -0.049998
C26   C     C_R   0.561811 0.138388 0.522691 0.310775
C27   C     C_R   0.372368 0.124424 0.471273 -0.198136
C28   C     C_R   0.362773 0.017215 0.467645 -0.138945
H7    H     H_    0.301585 0.159240 0.453643 0.194696
H8    H     H_    0.284080 0.971237 0.449036 0.166227
N1    N     N_R   0.215880 0.481050 0.481000 -0.211726
N2    N     N_R   0.784100 0.518950 0.519000 -0.257297
C29   C     C_R   0.940146 0.574850 0.609928 -0.302404
C30   C     C_R   0.823274 0.571807 0.599245 0.531983
C31   C     C_R   0.861211 0.469602 0.448383 0.089190
C32   C     C_R   0.980333 0.469308 0.457678 -0.038964
C33   C     C_R   0.019296 0.524494 0.539632 -0.051573
C34   C     C_R   0.137611 0.529591 0.549669 0.058791
C35   C     C_R   0.180373 0.425917 0.401633 0.015011
C36   C     C_R   0.062875 0.417899 0.387788 0.259835
H9    H     H_    0.167812 0.573237 0.611850 0.137422
H10   H     H_    0.243633 0.386682 0.348805 0.165775
H11   H     H_    0.969015 0.617533 0.673314 0.189930
H12   H     H_    0.828909 0.430430 0.385379 0.183695
N3    N     N_R   0.770060 0.036811 0.519432 0.161267
O9    O     O_R   0.819117 0.020179 0.593761 -0.280953
O10   O     O_R   0.836729 0.081556 0.436440 -0.267505
H13   H     H_    0.716542 0.836877 0.516178 0.221553
H14   H     H_    0.361622 0.815903 0.469290 0.168748
N4    N     N_R   0.030507 0.357417 0.303526 0.121233
O11   O     O_R   0.107708 0.356967 0.216624 -0.341566
O12   O     O_R   0.933428 0.289161 0.318308 -0.291011
N5    N     N_R   0.747185 0.625393 0.674578 0.139504
O13   O     O_R   0.733482 0.603189 0.770632 -0.355291
O14   O     O_R   0.727245 0.715537 0.652297 -0.344499
H15   H     H_    0.716595 0.346892 0.853903 0.178049
N6    N     N_R   0.141296 0.562088 0.006764 0.144629
O15   O     O_R   0.067486 0.575735 0.951011 -0.344690
O16   O     O_R   0.110429 0.575773 0.105333 -0.330278
N7    N     N_R   0.645201 0.195629 0.576599 0.133051
O17   O     O_R   0.629473 0.182004 0.674587 -0.357721
O18   O     O_R   0.743885 0.250048 0.526821 -0.282573

loop_
_geom_bond_atom_site_label_1
_geom_bond_atom_site_label_2
_geom_bond_distance
_ccdc_geom_bond_type
N4    O12   1.300816 A    
C35   C36   1.413798 A    
C14   H15   1.084030 S    
C25   C26   1.408472 A    
C4    C6    1.461924 S    
C7    C8    1.396610 A    
Cu1   Cu2   2.682055 S    
C33   C34   1.410361 A    
Cu1   O7    1.938892 S    
C14   C15   1.388051 A    
C30   N5    1.429346 S    
N7    O18   1.300821 A    
C3    C19   1.467140 S    
O4    C2    1.297768 A    
O7    C4    1.293812 A    
C29   C33   1.390406 A    
C5    C13   1.404335 A    
C9    H5    1.076323 S    
Cu1   O5    1.975526 S    
N6    O15   1.301743 A    
N3    O10   1.300809 A    
C19   C26   1.418968 A    
O5    C3    1.302586 A    
N2    C31   1.371372 A    
C11   C15   1.411806 A    
C19   C27   1.401021 A    
N2    C30   1.379243 A    
N4    O11   1.301355 A    
C9    C10   1.417364 A    
N6    O16   1.301782 A    
N5    O13   1.300615 A    
O3    Cu1   1.950539 S    
C7    H4    1.083106 S    
C28   H8    1.084087 S    
C5    C17   1.393748 A    
C22   H13   1.081285 S    
C20   C23   1.396011 A    
C15   H6    1.079732 S    
N5    O14   1.298154 A    
C31   C32   1.426984 A    
C11   C18   1.416110 A    
C6    C16   1.395636 A    
C12   C13   1.419860 A    
O3    C2    1.297109 A    
C23   C24   1.392828 A    
H1    C17   1.083326 S    
O1    C1    1.294903 A    
Cu1   N1    2.015041 S    
C27   C28   1.385959 A    
Cu2   N2    2.014808 S    
C21   C22   1.387080 A    
Cu2   O8    1.950539 S    
C6    C17   1.399154 A    
N7    O17   1.300633 A    
C27   H7    1.083320 S    
N1    C34   1.360111 A    
C24   C25   1.419600 A    
C2    C18   1.473432 S    
O8    C4    1.296490 A    
C10   C12   1.422801 A    
C32   C33   1.410059 A    
N1    C35   1.364601 A    
C5    H2    1.083827 S    
O1    Cu1   1.974096 S    
C16   H3    1.077344 S    
O2    Cu2   1.975524 S    
C12   C16   1.401681 A    
O6    C3    1.290012 A    
O4    Cu2   1.938893 S    
C21   N3    1.430749 S    
C23   H14   1.084707 S    
C26   N7    1.436582 S    
C29   H11   1.084519 S    
C20   C22   1.396231 A    
O2    C1    1.293592 A    
C13   C14   1.393035 A    
C1    C20   1.457364 S    
C36   N4    1.437251 S    
C8    N6    1.442018 S    
C21   C25   1.418360 A    
N3    O9    1.301023 A    
C24   C28   1.397116 A    
C8    C9    1.400461 A    
Cu2   O6    1.974098 S    
C29   C30   1.399911 A    
C35   H10   1.081690 S    
C10   C11   1.415794 A    
C31   H12   1.078729 S    
C7    C18   1.403372 A    
C32   C36   1.419180 A    
C34   H9    1.082963 S    
