data_mof_unit_19711.cif
_audit_creation_date              2012-10-26T20:32:57-0400
_audit_creation_method            fapswitch 2.2
_symmetry_space_group_name_H-M    P1
_symmetry_Int_Tables_number       1
_space_group_crystal_system       triclinic
_cell_length_a                    27.789939
_cell_length_b                    10.797234
_cell_length_c                    9.553095
_cell_angle_alpha                 89.814736
_cell_angle_beta                  90.429593
_cell_angle_gamma                 90.439575
_cell_volume                      2866.2695119

loop_
_atom_site_label
_atom_site_type_symbol
_atom_type_description
_atom_site_fract_x
_atom_site_fract_y
_atom_site_fract_z
_atom_type_partial_charge
C1    C     C_R   0.500888 0.262470 0.500335 0.547658
C2    C     C_R   0.974094 0.395899 0.508379 0.034227
C3    C     C_R   0.975050 0.623299 0.521682 -0.015550
C4    C     C_R   0.407448 0.500235 0.499573 0.547272
C5    C     C_R   0.949147 0.510133 0.513902 0.003992
C6    C     C_R   0.947345 0.284284 0.527715 0.214941
C7    C     C_R   0.897301 0.286369 0.526370 -0.035605
C8    C     C_R   0.872391 0.397953 0.515030 -0.014991
C9    C     C_R   0.898045 0.511023 0.512724 -0.076912
C10   C     C_R   0.872619 0.624390 0.509728 0.032319
C11   C     C_R   0.821684 0.619741 0.506881 0.434359
C12   C     C_R   0.278504 0.512269 0.371992 -0.048091
C13   C     C_R   0.822018 0.398820 0.511981 0.409307
C14   C     C_R   0.721495 0.487037 0.379557 -0.034628
C15   C     C_R   0.671303 0.485036 0.377655 -0.094781
C16   C     C_R   0.500758 0.737692 0.500019 0.557499
C17   C     C_R   0.670840 0.521068 0.628306 -0.128399
C18   C     C_R   0.721007 0.523470 0.629766 -0.043601
C19   C     C_R   0.746408 0.506392 0.505522 0.233227
C20   C     C_R   0.024577 0.398744 0.486012 0.004189
C21   C     C_R   0.050798 0.509845 0.507978 0.014945
C22   C     C_R   0.026047 0.621396 0.533187 -0.010542
C23   C     C_R   0.253502 0.504779 0.498367 0.235505
C24   C     C_R   0.049105 0.296464 0.432226 -0.046081
C25   C     C_R   0.103096 0.727398 0.571243 0.268616
C26   C     C_R   0.949206 0.735036 0.515597 -0.085268
C27   C     C_R   0.899144 0.736873 0.509241 0.265096
C28   C     C_R   0.592533 0.500414 0.500538 0.566947
C29   C     C_R   0.053046 0.727655 0.568758 -0.085085
C30   C     C_R   0.494420 0.063403 0.623750 0.035516
C31   C     C_R   0.505352 0.129546 0.502414 0.008884
C32   C     C_R   0.522868 0.065702 0.385830 -0.152689
C33   C     C_R   0.522632 0.936553 0.385644 -0.135592
C34   C     C_R   0.101935 0.509539 0.502544 -0.100774
C35   C     C_R   0.504894 0.871064 0.501849 0.010557
C36   C     C_R   0.494095 0.936012 0.623499 0.020949
C37   C     C_3   0.450236 0.929335 0.712954 -0.266682
C38   C     C_3   0.450869 0.069892 0.713779 -0.267974
C39   C     C_R   0.536207 0.557310 0.074065 0.179915
C40   C     C_R   0.177141 0.401544 0.463776 0.431523
C41   C     C_R   0.467304 0.431155 0.073481 0.222183
C42   C     C_R   0.467094 0.433002 0.924298 -0.004789
C43   C     C_R   0.536382 0.556535 0.926790 0.115309
C44   C     C_3   0.550666 0.689544 0.918845 -0.224300
C45   C     C_R   0.126368 0.400174 0.463144 0.028510
C46   C     C_3   0.549411 0.691341 0.077687 0.080653
C47   C     C_R   0.179171 0.613935 0.532500 0.429035
C48   C     C_R   0.278851 0.495682 0.625046 -0.048128
C49   C     C_R   0.329016 0.493834 0.625508 -0.140113
C50   C     C_R   0.328680 0.510956 0.372167 -0.135655
C51   C     C_3   0.435184 0.228317 0.127659 -0.288892
C52   C     C_R   0.098978 0.294967 0.422332 0.266771
C53   C     C_R   0.128422 0.618624 0.535727 0.029575
C54   C     C_R   0.354430 0.501415 0.498952 0.003846
C55   C     C_R   0.645515 0.502009 0.502113 0.014605
Cl1   Cl    Cl    0.130814 0.868877 0.619946 -0.392595
Cl2   Cl    Cl    0.872926 0.885326 0.500406 -0.434842
Cl3   Cl    Cl    0.607191 0.716486 0.155685 -0.598905
Cl4   Cl    Cl    0.123717 0.158060 0.353267 -0.401726
Cl5   Cl    Cl    0.973091 0.142610 0.582178 -0.535878
Cu1   Cu    Cu3+1 0.500000 0.499980 0.640670 0.948495
Cu2   Cu    Cu3+1 0.500000 0.500020 0.359330 1.006340
H1    H     H_    0.347207 0.518293 0.273267 0.124891
H2    H     H_    0.258996 0.519773 0.273822 0.138796
H3    H     H_    0.457709 0.888447 0.817648 0.133936
H4    H     H_    0.419476 0.111758 0.658978 0.143793
H5    H     H_    0.459415 0.109582 0.818235 0.134718
H6    H     H_    0.439923 0.381323 0.866989 0.119011
H7    H     H_    0.587156 0.701903 0.873734 0.177606
H8    H     H_    0.522492 0.748354 0.870490 0.123368
H9    H     H_    0.520214 0.749923 0.119324 0.117394
H10   H     H_    0.652752 0.469669 0.279070 0.170010
H11   H     H_    0.741079 0.473706 0.283277 0.144317
H12   H     H_    0.259604 0.489826 0.723016 0.138819
H13   H     H_    0.877859 0.199705 0.539073 0.234893
H14   H     H_    0.029542 0.218072 0.390170 0.207408
H15   H     H_    0.347828 0.486438 0.724850 0.126095
H16   H     H_    0.397528 0.392136 0.125346 0.226174
H17   H     H_    0.421947 0.201189 0.022107 0.105861
H18   H     H_    0.412587 0.181227 0.207358 0.160888
H19   H     H_    0.472899 0.197119 0.141388 0.157087
H20   H     H_    0.967296 0.823655 0.510217 0.183668
H21   H     H_    0.651945 0.534811 0.725720 0.143184
H22   H     H_    0.740210 0.538407 0.727380 0.144989
H23   H     H_    0.035911 0.812314 0.600331 0.176737
H24   H     H_    0.535193 0.114967 0.293793 0.138275
H25   H     H_    0.534907 0.888823 0.293735 0.168906
H26   H     H_    0.418580 0.889114 0.656957 0.150304
N1    N     N_R   0.201916 0.506807 0.498169 -0.423268
N2    N     N_R   0.797957 0.508365 0.507498 -0.412024
N3    N     N_R   0.500300 0.500930 0.147930 -0.232565
N4    N     N_R   0.500310 0.500890 0.852020 -0.258202
N5    N     N_2   0.431873 0.360968 0.145365 -0.456844
O1    O     O_R   0.500000 0.319640 0.618810 -0.499190
O2    O     O_R   0.569730 0.499960 0.618810 -0.503395
O3    O     O_R   0.569740 0.500000 0.381220 -0.468254
O4    O     O_2   0.202058 0.298764 0.432674 -0.386305
O5    O     O_2   0.797116 0.290978 0.514054 -0.446033
O6    O     O_2   0.206077 0.714877 0.562589 -0.390848
O7    O     O_2   0.795685 0.724542 0.503538 -0.379435
O8    O     O_R   0.500010 0.319680 0.381230 -0.487205
O9    O     O_R   0.430260 0.500000 0.618780 -0.516898
O10   O     O_R   0.430270 0.500040 0.381190 -0.477897
O11   O     O_R   0.499990 0.680320 0.618770 -0.505163
O12   O     O_R   0.500000 0.680360 0.381190 -0.501304

loop_
_geom_bond_atom_site_label_1
_geom_bond_atom_site_label_2
_ccdc_geom_bond_type
C10   C27   A    
C24   C52   A    
C8    C13   A    
C22   C29   A    
Cu2   O3    S    
C13   N2    A    
C41   C42   A    
C37   H26   S    
C35   C36   A    
C25   Cl1   S    
C7    C8    A    
Cu2   O12   S    
C15   H10   S    
C12   C23   A    
C26   C27   A    
C50   C54   A    
C28   O2    A    
C36   C37   S    
C25   C53   A    
C16   C35   S    
C30   C31   A    
C12   H2    S    
H16   N5    S    
C49   C54   A    
C4    O10   A    
C1    C31   S    
C47   O6    S    
C30   C38   S    
C18   C19   A    
C13   O5    S    
C20   C24   A    
C51   H18   S    
C16   O11   A    
C41   N5    S    
C38   H4    S    
C8    C9    A    
C4    O9    A    
C18   H22   S    
C23   N1    S    
C44   H8    S    
C40   N1    A    
C9    C10   A    
C17   C55   A    
C29   H23   S    
Cu1   N4    S    
C47   C53   A    
Cu2   O8    S    
C26   H20   S    
C21   C22   A    
C46   Cl3   S    
C42   H6    S    
C50   H1    S    
C47   N1    A    
C2    C6    A    
C39   N3    A    
C28   C55   S    
C44   C46   S    
C25   C29   A    
C40   C45   A    
C2    C20   A    
C14   H11   S    
C48   H12   S    
Cu1   O11   S    
C27   Cl2   S    
C40   O4    S    
Cu1   O1    S    
C24   H14   S    
C39   C43   A    
C21   C34   A    
C45   C52   A    
C37   H3    S    
C11   O7    S    
C17   H21   S    
C15   C55   A    
C43   C44   S    
C5    C9    A    
C37   C38   S    
C52   Cl4   S    
C6    Cl5   S    
C12   C50   A    
C31   C32   A    
C32   H24   S    
Cu2   N3    S    
C17   C18   A    
C44   H7    S    
C34   C45   A    
C38   H5    S    
C46   H9    S    
C16   O12   A    
C51   N5    S    
C39   C46   S    
C48   C49   A    
C41   N3    A    
C2    C5    A    
C1    O8    A    
Cu2   O10   S    
C51   H19   S    
C23   C48   A    
C4    C54   S    
C14   C19   A    
C3    C26   A    
C3    C5    A    
C1    O1    A    
C7    H13   S    
Cu1   O2    S    
C6    C7    A    
C43   N4    A    
C30   C36   A    
C28   O3    A    
C32   C33   A    
Cu1   O9    S    
C33   H25   S    
C19   N2    S    
C11   N2    A    
C33   C35   A    
C49   H15   S    
C42   N4    A    
Cu1   Cu2   S    
C51   H17   S    
C10   C11   A    
C20   C21   A    
C34   C53   A    
C14   C15   A    
C3    C22   A    
