data_mof_unit_61099.cif
_audit_creation_date              2013-03-05T16:09:34-0500
_audit_creation_method            fapswitch 2.2
_symmetry_space_group_name_H-M    P1
_symmetry_Int_Tables_number       1
_space_group_crystal_system       triclinic
_cell_length_a                    12.758478
_cell_length_b                    13.917411
_cell_length_c                    15.951736
_cell_angle_alpha                 90.219225
_cell_angle_beta                  92.64878
_cell_angle_gamma                 98.031882
_cell_volume                      2801.53655572

loop_
_atom_site_label
_atom_site_type_symbol
_atom_site_description
_atom_site_fract_x
_atom_site_fract_y
_atom_site_fract_z
_atom_type_partial_charge
O1    O     O_R   0.399110 0.356330 0.494870 -0.563381
O2    O     O_R   0.575900 0.366540 0.503830 -0.578022
C1    C     C_R   0.483465 0.315908 0.498971 0.821719
O3    O     O_R   0.411570 0.494900 0.374960 -0.573223
O4    O     O_R   0.588350 0.505100 0.383910 -0.560302
C2    C     C_R   0.500764 0.500113 0.340159 0.818597
Cu1   Cu    Cu3+1 0.395330 0.493960 0.494700 1.087073
Cu2   Cu    Cu3+1 0.604670 0.506040 0.505300 1.063619
O5    O     O_R   0.424100 0.633460 0.496170 -0.541328
O6    O     O_R   0.600890 0.643670 0.505130 -0.563780
O7    O     O_R   0.411650 0.494900 0.616090 -0.542317
O8    O     O_R   0.588430 0.505100 0.625040 -0.562802
C3    C     C_R   0.516449 0.684079 0.500875 0.825008
C4    C     C_R   0.499248 0.500117 0.659842 0.815371
C5    C     C_3   0.421521 0.419946 0.047346 -0.313826
C6    C     C_3   0.621469 0.496130 0.051490 -0.190233
C7    C     C_3   0.611727 0.494497 0.951032 -0.318946
H1    H     H_    0.448748 0.353063 0.927857 0.230253
H2    H     H_    0.662682 0.558344 0.927774 0.238869
C8    C     C_1   0.497483 0.501841 0.748822 -0.002661
C9    C     C_3   0.505505 0.507769 0.083687 -0.139912
C10   C     C_3   0.418335 0.418696 0.949179 -0.294069
C11   C     C_3   0.495783 0.506922 0.916339 -0.132391
C12   C     C_3   0.468118 0.609802 0.948221 0.395981
C13   C     C_3   0.463668 0.607114 0.050578 0.017071
C14   C     C_1   0.496100 0.503958 0.823895 0.116374
C15   C     C_1   0.504378 0.504535 0.176131 0.156688
C16   C     C_1   0.502790 0.502084 0.251205 0.024982
H3    H     H_    0.343115 0.432229 0.067688 0.185783
C17   C     C_1   0.525352 0.787210 0.500360 -0.050588
C18   C     C_2   0.535391 0.977440 0.497604 -0.261479
C19   C     C_2   0.448136 0.021532 0.489379 0.347712
C20   C     C_1   0.462286 0.125706 0.493525 -0.017952
C21   C     C_1   0.531141 0.873986 0.499326 0.148343
C22   C     C_1   0.473345 0.212707 0.496480 -0.102578
H4    H     H_    0.613136 0.020540 0.505899 0.156257
N1    N     N_1   0.238030 0.484880 0.486720 -0.138319
C23   C     C_2   0.028906 0.478610 0.480247 -0.365761
C24   C     C_2   0.971591 0.529274 0.530807 0.240449
C25   C     C_1   0.854495 0.520093 0.519399 0.211109
C26   C     C_1   0.145723 0.482548 0.484314 0.375262
N2    N     N_1   0.761970 0.515120 0.513270 -0.136785
H5    H     H_    0.986149 0.431520 0.431889 0.154763
C27   C     C_2   0.306984 0.403165 0.907828 0.976276
O9    O     O_2   0.228720 0.409027 0.947958 -0.497502
O10   O     O_R   0.293944 0.377046 0.822818 -0.731237
H6    H     H_    0.216940 0.367647 0.801812 0.368687
N3    N     N_R   0.550461 0.686744 0.917248 0.147805
O11   O     O_R   0.637816 0.718628 0.959851 -0.276073
O12   O     O_R   0.539946 0.718269 0.840942 -0.274634
N4    N     N_R   0.342016 0.969734 0.477883 0.164206
O13   O     O_R   0.261107 0.014821 0.489832 -0.286836
O14   O     O_R   0.324648 0.881803 0.447361 -0.302487
N5    N     N_R   0.021794 0.593417 0.596972 0.166610
O15   O     O_R   0.965905 0.648470 0.636997 -0.269979
O16   O     O_R   0.120810 0.594337 0.620965 -0.280492
C28   C     C_2   0.427558 0.320117 0.085141 0.963998
O17   O     O_2   0.399564 0.304167 0.156720 -0.562758
O18   O     O_R   0.461890 0.245638 0.039060 -0.694985
H7    H     H_    0.461412 0.183501 0.072090 0.371571
C29   C     C_2   0.707332 0.577737 0.084783 0.944726
O19   O     O_2   0.719277 0.593606 0.160402 -0.538087
O20   O     O_R   0.783161 0.624122 0.032226 -0.670835
H8    H     H_    0.837906 0.672958 0.063288 0.377537
C30   C     C_2   0.667763 0.406958 0.086959 0.907072
O21   O     O_2   0.629657 0.361506 0.146234 -0.570535
O22   O     O_R   0.764582 0.385861 0.058860 -0.703845
H9    H     H_    0.789916 0.328484 0.088604 0.363818
C31   C     C_2   0.657482 0.411599 0.908047 0.924389
O23   O     O_2   0.728991 0.431011 0.859668 -0.517832
O24   O     O_R   0.620080 0.314354 0.923680 -0.714447
H10   H     H_    0.657832 0.267775 0.891244 0.362770
C32   C     C_2   0.351054 0.608684 0.083550 0.891938
O25   O     O_2   0.270389 0.577567 0.042073 -0.506520
O26   O     O_R   0.341296 0.643854 0.164815 -0.694903
H11   H     H_    0.264817 0.640321 0.180676 0.357086
N6    N     N_R   0.524193 0.697356 0.087971 0.169585
O27   O     O_R   0.501430 0.780246 0.060007 -0.219107
O28   O     O_R   0.566526 0.698307 0.163741 -0.287035
N7    N     N_R   0.366483 0.634246 0.910551 0.159765
O29   O     O_R   0.318473 0.588166 0.845471 -0.281999
O30   O     O_R   0.338531 0.718026 0.929126 -0.216338

loop_
_geom_bond_atom_site_label_1
_geom_bond_atom_site_label_2
_geom_bond_distance
_ccdc_geom_bond_type
C7    C31   1.536610 S    
C6    C9    1.617286 S    
C2    C16   1.420695 S    
C32   O26   1.400928 S    
C32   O25   1.222614 D    
Cu1   Cu2   2.650077 S    
N6    O27   1.303739 A    
Cu1   O7    1.937751 S    
C7    C11   1.587753 S    
C13   N6    1.486649 S    
Cu2   N2    1.991290 S    
C18   H4    1.087279 S    
O4    C2    1.283153 A    
O7    C4    1.283076 A    
C28   O18   1.399088 S    
C24   N5    1.446260 S    
C31   O24   1.398102 S    
C11   C14   1.475281 S    
C29   O20   1.400069 S    
O5    C3    1.284380 A    
C7    H2    1.101480 S    
O10   H6    1.013869 S    
C12   N7    1.486982 S    
C5    C10   1.564549 S    
C10   C27   1.525316 S    
C6    C7    1.601383 S    
C30   O22   1.401615 S    
C11   C12   1.607984 S    
C25   N2    1.172317 T    
C9    C15   1.476168 S    
O18   H7    1.013801 S    
H1    C10   1.099770 S    
C5    C28   1.527010 S    
C31   O23   1.224214 D    
O3    Cu1   1.930661 S    
C27   O10   1.399000 S    
C5    H3    1.101161 S    
N6    O28   1.300125 A    
N5    O16   1.301263 A    
C17   C21   1.199840 T    
N4    O13   1.301519 A    
C12   N3    1.494024 S    
C4    C8    1.420775 S    
C3    C17   1.423973 S    
C12   C13   1.636768 S    
C23   C26   1.482138 S    
N7    O30   1.303013 A    
C24   C25   1.484164 S    
O22   H9    1.013948 S    
N4    O14   1.301336 A    
O26   H11   1.013913 S    
C19   N4    1.445582 S    
C18   C19   1.345779 D    
C1    C22   1.424226 S    
Cu2   O8    1.930660 S    
Cu1   N1    1.991293 S    
C18   C21   1.433658 S    
O3    C2    1.282216 A    
N3    O11   1.300147 A    
O8    C4    1.282292 A    
C23   H5    1.086046 S    
C6    C29   1.538181 S    
C27   O9    1.222680 D    
Cu1   O5    1.924663 S    
C9    C13   1.631338 S    
N5    O15   1.301599 A    
O1    Cu1   1.922794 S    
O2    Cu2   1.924666 S    
N7    O29   1.300216 A    
O6    C3    1.282344 A    
O4    Cu2   1.937752 S    
C19   C20   1.436657 S    
O2    C1    1.285409 A    
O24   H10   1.013737 S    
C28   O17   1.223955 D    
C23   C24   1.369897 D    
C8    C14   1.198785 T    
N3    O12   1.302903 A    
C20   C22   1.199772 T    
C13   C32   1.555629 S    
N1    C26   1.172446 T    
C29   O19   1.224175 D    
O20   H8    1.013950 S    
C5    C9    1.596647 S    
Cu2   O6    1.922793 S    
C30   O21   1.221346 D    
C15   C16   1.199209 T    
C10   C11   1.572322 S    
C6    C30   1.545481 S    
O1    C1    1.281424 A    
