data_mof_unit_24975.cif
_audit_creation_date              2012-12-10T20:25:42-0500
_audit_creation_method            fapswitch 2.2
_symmetry_space_group_name_H-M    P1
_symmetry_Int_Tables_number       1
_space_group_crystal_system       triclinic
_cell_length_a                    8.582704
_cell_length_b                    10.922216
_cell_length_c                    9.968391
_cell_angle_alpha                 88.125471
_cell_angle_beta                  98.7456
_cell_angle_gamma                 93.882588
_cell_volume                      921.235767946

loop_
_atom_site_label
_atom_site_type_symbol
_atom_type_description
_atom_site_fract_x
_atom_site_fract_y
_atom_site_fract_z
_atom_type_partial_charge
C1    C     C_R   0.506528 0.260778 0.502999 0.944006
C2    C     C_R   0.537641 0.945954 0.379721 -0.115725
C3    C     C_R   0.506319 0.873055 0.493871 -0.102655
C4    C     C_R   0.487220 0.932060 0.611017 0.126871
C5    C     C_3   0.567724 0.919993 0.755485 -0.384807
C6    C     C_3   0.531370 0.056096 0.765558 -0.294073
C7    C     C_R   0.371068 0.454250 0.055417 0.122713
C8    C     C_R   0.623187 0.555605 0.086702 0.064054
C9    C     C_R   0.626191 0.549928 0.942695 -0.016259
C10   C     C_R   0.368266 0.459864 0.912723 0.130754
C11   C     C_3   0.295396 0.334005 0.896071 -0.325609
C12   C     C_R   0.201579 0.500774 0.464271 1.007733
C13   C     C_3   0.305332 0.323417 0.050848 -0.435177
C14   C     C_R   0.502545 0.740042 0.497904 0.905030
C15   C     C_R   0.798710 0.504529 0.535416 0.986018
C16   C     C_2   0.035885 0.498556 0.445764 -0.293513
C17   C     C_2   0.964729 0.517281 0.552330 -0.337664
C18   C     C_R   0.471572 0.056325 0.613442 0.143588
C19   C     C_R   0.521104 0.129377 0.507234 -0.166642
C20   C     C_R   0.571094 0.072892 0.396026 -0.107039
H1    H     H_    0.972412 0.475794 0.346215 0.246442
H2    H     H_    0.379447 0.281681 0.853674 0.204495
H3    H     H_    0.396401 0.260707 0.097668 0.207544
H4    H     H_    0.028291 0.542178 0.651334 0.221709
N1    N     N_R   0.498950 0.499140 0.142680 -0.155608
N2    N     N_R   0.498950 0.499180 0.857030 -0.168376
O1    O     O_R   0.500020 0.316790 0.614690 -0.611327
O2    O     O_R   0.500000 0.316760 0.385350 -0.623521
O3    O     O_R   0.271760 0.500010 0.587850 -0.615072
O4    O     O_R   0.271740 0.499970 0.358500 -0.606320
O5    O     O_R   0.500000 0.683240 0.614650 -0.641732
O6    O     O_R   0.499980 0.683210 0.385310 -0.633390
O7    O     O_R   0.728260 0.500030 0.641500 -0.625011
O8    O     O_R   0.728240 0.499990 0.412150 -0.638867
Zn1   Zn    Zn3+2 0.500010 0.500020 0.653130 0.990207
Zn2   Zn    Zn3+2 0.499990 0.499980 0.346870 1.000530
C21   C     C_2   0.759228 0.606949 0.881369 0.628545
H5    H     H_    0.735684 0.666614 0.794037 0.062126
O9    O     O_2   0.894757 0.581082 0.920310 -0.494628
C22   C     C_2   0.136021 0.327878 0.808031 1.032377
O10   O     O_2   0.026110 0.380264 0.839266 -0.609242
O11   O     O_R   0.116622 0.263433 0.687166 -0.721571
H6    H     H_    0.007013 0.267586 0.633345 0.382154
C23   C     C_2   0.150429 0.297166 0.105119 1.053725
O12   O     O_2   0.107526 0.190535 0.126952 -0.541023
O13   O     O_R   0.053637 0.389398 0.129666 -0.739567
H7    H     H_    0.095473 0.475133 0.107216 0.372726
C24   C     C_2   0.681036 0.141506 0.313307 0.959293
O14   O     O_2   0.783534 0.214285 0.368830 -0.584076
O15   O     O_R   0.672559 0.121051 0.174956 -0.840079
H8    H     H_    0.764212 0.164971 0.136406 0.397425
C25   C     C_2   0.536996 0.892748 0.245804 0.521495
H9    H     H_    0.644739 0.894039 0.201271 0.095764
O16   O     O_2   0.413318 0.849169 0.183415 -0.476728
C26   C     C_2   0.478501 0.828306 0.839100 0.922467
O17   O     O_2   0.535599 0.802857 0.955326 -0.696977
O18   O     O_R   0.327380 0.779032 0.786848 -0.695727
H10   H     H_    0.279770 0.721807 0.854064 0.367128
C27   C     C_2   0.744272 0.899175 0.770048 0.961772
O19   O     O_2   0.803751 0.872218 0.672048 -0.562714
O20   O     O_R   0.841934 0.912635 0.895224 -0.671187
H11   H     H_    0.785176 0.941798 0.969019 0.331932
C28   C     C_2   0.399805 0.065969 0.849971 0.473008
H12   H     H_    0.429048 0.076584 0.958914 0.130333
O21   O     O_2   0.260922 0.054361 0.799266 -0.442333
C29   C     C_2   0.670013 0.149785 0.804433 0.917728
O22   O     O_2   0.784619 0.153950 0.744669 -0.562392
O23   O     O_R   0.663238 0.235805 0.903700 -0.825020
H13   H     H_    0.759996 0.295048 0.917842 0.395761
C30   C     C_2   0.742728 0.633265 0.175282 0.498951
H14   H     H_    0.708793 0.679525 0.258723 0.085767
O24   O     O_2   0.880664 0.646612 0.158825 -0.530519

loop_
_geom_bond_atom_site_label_1
_geom_bond_atom_site_label_2
_ccdc_geom_bond_type
C6    C28   S    
C7    C10   A    
C29   O23   S    
C26   O17   D    
C28   O21   D    
C16   H1    S    
C28   H12   S    
C12   O3    A    
C1    O2    A    
O1    Zn1   S    
O3    Zn1   S    
C15   O8    A    
C8    C30   S    
C19   C20   A    
C7    N1    A    
O4    Zn2   S    
C14   O5    A    
C6    C29   S    
C4    C18   A    
C10   N2    A    
C9    C21   S    
C2    C3    A    
C27   O19   D    
C21   O9    D    
C20   C24   S    
C4    C5    S    
C24   O15   S    
C8    N1    A    
C11   C13   S    
C13   H3    S    
O18   H10   S    
C21   H5    S    
C3    C14   S    
C2    C25   S    
C5    C6    S    
O6    Zn2   S    
C22   O11   S    
C22   O10   D    
O7    Zn1   S    
C25   O16   D    
C9    N2    A    
C29   O22   D    
C15   O7    A    
O8    Zn2   S    
C26   O18   S    
O20   H11   S    
C6    C18   S    
O5    Zn1   S    
C27   O20   S    
C17   H4    S    
C1    C19   S    
C10   C11   S    
C5    C27   S    
N1    Zn2   S    
C2    C20   A    
C11   C22   S    
C12   C16   S    
N2    Zn1   S    
C7    C13   S    
C30   H14   S    
C25   H9    S    
O2    Zn2   S    
C15   C17   S    
C18   C19   A    
O11   H6    S    
C1    O1    A    
O13   H7    S    
C24   O14   D    
C30   O24   D    
C11   H2    S    
O15   H8    S    
O23   H13   S    
C12   O4    A    
C5    C26   S    
C13   C23   S    
C23   O12   D    
C3    C4    A    
C16   C17   D    
C14   O6    A    
C8    C9    A    
C23   O13   S    
