data_mof_unit_58652.cif
_audit_creation_date              2012-12-10T17:09:32-0500
_audit_creation_method            fapswitch 2.2
_symmetry_space_group_name_H-M    P1
_symmetry_Int_Tables_number       1
_space_group_crystal_system       triclinic
_cell_length_a                    10.493942
_cell_length_b                    10.642117
_cell_length_c                    10.031083
_cell_angle_alpha                 89.464556
_cell_angle_beta                  90.570067
_cell_angle_gamma                 89.979081
_cell_volume                      1120.1443845

loop_
_atom_site_label
_atom_site_type_symbol
_atom_type_description
_atom_site_fract_x
_atom_site_fract_y
_atom_site_fract_z
_atom_type_partial_charge
C1    C     C_R   0.487065 0.263143 0.500230 0.931043
C2    C     C_2   0.568030 0.425662 0.076438 -0.098412
C3    C     C_R   0.257394 0.499509 0.499207 0.849299
C4    C     C_R   0.499797 0.737788 0.499291 0.935553
C5    C     C_R   0.742519 0.500020 0.500756 0.869605
C6    C     C_3   0.043690 0.393519 0.561144 -0.237883
C7    C     C_3   0.957278 0.397688 0.436296 0.036140
C8    C     C_3   0.877510 0.498779 0.502081 -0.007211
C9    C     C_3   0.961771 0.495797 0.627490 -0.158525
C10   C     C_3   0.043405 0.600684 0.563891 -0.155641
C11   C     C_R   0.900476 0.283886 0.370564 0.120255
C12   C     C_3   0.956820 0.603473 0.438491 -0.191117
C13   C     C_R   0.842302 0.190581 0.448884 -0.169837
C14   C     C_R   0.788124 0.084977 0.388956 -0.121514
C15   C     C_R   0.790711 0.072309 0.250543 -0.101074
C16   C     C_R   0.846698 0.165704 0.171760 -0.157475
C17   C     C_R   0.901276 0.271342 0.231376 -0.146939
C18   C     C_R   0.382049 0.122912 0.264144 0.163938
C19   C     C_R   0.442740 0.086538 0.146310 -0.171462
C20   C     C_R   0.406203 0.139512 0.023688 -0.152853
C21   C     C_R   0.308359 0.228499 0.017544 -0.114257
C22   C     C_R   0.246298 0.263995 0.133886 -0.127289
C23   C     C_3   0.038613 0.501501 0.371543 -0.189139
C24   C     C_R   0.281793 0.210602 0.256648 -0.078497
C25   C     C_3   0.122432 0.498650 0.497549 0.029032
C26   C     C_2   0.424122 0.929440 0.404314 -0.208482
C27   C     C_2   0.496101 0.870823 0.496470 -0.360229
C28   C     C_2   0.421051 0.065995 0.394456 0.044543
C29   C     C_2   0.454132 0.132613 0.503110 -0.413520
C30   C     C_2   0.572416 0.429625 0.926469 -0.145927
H1    H     H_    0.459115 0.089116 0.601250 0.148053
H2    H     H_    0.075087 0.505170 0.268130 0.131575
H3    H     H_    0.370524 0.875860 0.330830 0.164887
H4    H     H_    0.554106 0.918462 0.570231 0.134317
H5    H     H_    0.839045 0.199632 0.556242 0.116370
H6    H     H_    0.744285 0.012929 0.449829 0.126809
H7    H     H_    0.749181 0.990256 0.204378 0.117416
H8    H     H_    0.847471 0.156452 0.064417 0.121068
H9    H     H_    0.942386 0.343558 0.168692 0.108370
H10   H     H_    0.518820 0.017871 0.149518 0.127864
H11   H     H_    0.454148 0.112014 0.933463 0.131676
H12   H     H_    0.638174 0.366282 0.878215 0.153579
H13   H     H_    0.280825 0.270114 0.922669 0.133565
H14   H     H_    0.170905 0.333110 0.128793 0.111684
H15   H     H_    0.232037 0.238181 0.345856 0.109616
H16   H     H_    0.434535 0.557118 0.896433 0.161107
H17   H     H_    0.625347 0.354842 0.127323 0.175005
H18   H     H_    0.450807 0.571850 0.101152 0.155148
H19   H     H_    0.084080 0.308053 0.609894 0.130378
H20   H     H_    0.926532 0.493661 0.731488 0.143698
H21   H     H_    0.083610 0.683710 0.615662 0.131723
H22   H     H_    0.916694 0.688873 0.389392 0.136287
N1    N     N_2   0.501360 0.501330 0.852150 -0.193140
N2    N     N_2   0.501400 0.501360 0.147810 -0.192629
O1    O     O_R   0.499980 0.319060 0.613040 -0.623659
O2    O     O_R   0.500020 0.319100 0.386900 -0.587646
O3    O     O_R   0.313930 0.499950 0.613050 -0.620967
O4    O     O_R   0.313970 0.499990 0.386910 -0.630442
O5    O     O_R   0.499980 0.680900 0.613100 -0.612838
O6    O     O_R   0.500020 0.680940 0.386960 -0.614963
O7    O     O_R   0.686030 0.500010 0.613090 -0.622939
O8    O     O_R   0.686070 0.500050 0.386950 -0.609503
Zn1   Zn    Zn3+2 0.499970 0.499970 0.650990 0.924246
Zn2   Zn    Zn3+2 0.500030 0.500030 0.349010 0.942162

loop_
_geom_bond_atom_site_label_1
_geom_bond_atom_site_label_2
_ccdc_geom_bond_type
C5    C8    S    
H18   N2    S    
O2    Zn2   S    
O3    Zn1   S    
C6    C7    S    
C21   H13   S    
C2    H17   S    
N1    Zn1   S    
C9    C10   S    
C26   H3    S    
O5    Zn1   S    
C19   C20   A    
C2    C30   S    
C3    O4    A    
C8    C12   S    
C23   H2    S    
C4    O6    A    
C6    C9    S    
C1    C29   S    
C20   H11   S    
C1    O1    A    
C22   H14   S    
C5    O7    A    
C7    C8    S    
C29   H1    S    
C27   H4    S    
C13   C14   A    
C7    C11   S    
C11   C13   A    
C12   C23   S    
C26   C27   D    
C16   C17   A    
C10   C12   S    
C18   C24   A    
C24   H15   S    
C3    O3    A    
H16   N1    S    
O1    Zn1   S    
C28   C29   D    
C12   H22   S    
C1    O2    A    
C5    O8    A    
C13   H5    S    
C22   C24   A    
C23   C25   S    
C6    H19   S    
O4    Zn2   S    
C30   N1    D    
C7    C23   S    
C6    C25   S    
C19   H10   S    
C10   H21   S    
C15   C16   A    
C4    O5    A    
N2    Zn2   S    
C3    C25   S    
C4    C27   S    
C18   C28   S    
C20   C21   A    
C10   C25   S    
C18   C19   A    
C2    N2    D    
O7    Zn1   S    
C17   H9    S    
C14   C15   A    
C30   H12   S    
C14   H6    S    
O8    Zn2   S    
C21   C22   A    
C26   C28   S    
C15   H7    S    
C9    H20   S    
C16   H8    S    
C8    C9    S    
O6    Zn2   S    
C11   C17   A    
