data_mof_unit_47537.cif
_audit_creation_date              2013-03-05T16:00:49-0500
_audit_creation_method            fapswitch 2.2
_symmetry_space_group_name_H-M    P1
_symmetry_Int_Tables_number       1
_space_group_crystal_system       triclinic
_cell_length_a                    14.710583
_cell_length_b                    14.691368
_cell_length_c                    15.874302
_cell_angle_alpha                 76.979527
_cell_angle_beta                  102.730658
_cell_angle_gamma                 114.830305
_cell_volume                      3002.69069932

loop_
_atom_site_label
_atom_site_type_symbol
_atom_site_description
_atom_site_fract_x
_atom_site_fract_y
_atom_site_fract_z
_atom_type_partial_charge
O1    O     O_R   0.977910 0.338120 0.529720 -0.592158
O2    O     O_R   0.839850 0.379180 0.491640 -0.589017
C1    C     C_R   0.880389 0.312262 0.513623 0.827671
O3    O     O_R   0.069060 0.479460 0.639610 -0.580425
O4    O     O_R   0.931000 0.520530 0.601530 -0.565444
C2    C     C_R   0.999679 0.500040 0.659634 0.826153
Cu1   Cu    Cu3+1 0.081750 0.475690 0.522550 0.938500
Cu2   Cu    Cu3+1 0.918250 0.524310 0.477450 0.948965
O5    O     O_R   0.160150 0.620820 0.508360 -0.590055
O6    O     O_R   0.022090 0.661880 0.470280 -0.590730
O7    O     O_R   0.069000 0.479470 0.398470 -0.579024
O8    O     O_R   0.930940 0.520540 0.360390 -0.575897
C3    C     C_R   0.119680 0.687780 0.485173 0.791640
C4    C     C_R   0.000274 0.499916 0.340351 0.827628
C5    C     C_3   0.001359 0.399263 0.972349 -0.349837
C6    C     C_3   0.903178 0.515240 0.929143 0.230446
C7    C     C_3   0.903005 0.512408 0.027720 -0.419183
H1    H     H_    0.929942 0.333695 0.091062 0.188401
H2    H     H_    0.937877 0.332190 0.947999 0.212368
H3    H     H_    0.909963 0.592538 0.895054 0.090399
H4    H     H_    0.834288 0.449707 0.051173 0.207945
H5    H     H_    0.900779 0.584247 0.037149 0.140777
C8    C     C_1   0.000655 0.499575 0.250809 -0.172955
C9    C     C_3   0.997891 0.499572 0.916808 0.202708
C10   C     C_3   0.998837 0.398035 0.069624 -0.364542
C11   C     C_3   0.999088 0.499507 0.082762 0.261234
C12   C     C_3   0.093826 0.587832 0.049270 -0.384093
C13   C     C_3   0.093336 0.587842 0.951488 -0.456507
C14   C     C_1   0.000214 0.499458 0.175170 -0.084708
C15   C     C_1   0.998424 0.499933 0.824616 -0.055786
C16   C     C_1   0.998890 0.500069 0.749128 -0.144751
H6    H     H_    0.163026 0.580135 0.943635 0.189800
H7    H     H_    0.095048 0.661841 0.913087 0.168298
H8    H     H_    0.163772 0.580172 0.088212 0.177624
H9    H     H_    0.072080 0.392180 0.966495 0.159018
H10   H     H_    0.065660 0.385345 0.110408 0.164827
H11   H     H_    0.095256 0.661640 0.057688 0.169244
C17   C     C_R   0.813012 0.204883 0.514591 -0.121111
C18   C     C_R   0.187357 0.795585 0.474922 -0.054495
C19   C     C_R   0.783276 0.031131 0.507436 0.492069
C20   C     C_R   0.850017 0.131593 0.514027 -0.279499
C21   C     C_R   0.709095 0.177645 0.508866 -0.247738
C22   C     C_R   0.639447 0.079661 0.495535 0.029151
C23   C     C_R   0.677865 0.005330 0.496501 0.052844
C24   C     C_R   0.532919 0.053766 0.481626 0.096949
C25   C     C_R   0.466043 0.950854 0.477977 0.071200
C26   C     C_R   0.507093 0.879339 0.477917 -0.240035
C27   C     C_R   0.610612 0.906371 0.486358 -0.185648
C28   C     C_R   0.490983 0.127703 0.468827 -0.214691
C29   C     C_R   0.387191 0.100844 0.457771 -0.231502
C30   C     C_R   0.321305 0.999506 0.460974 0.160045
C31   C     C_R   0.360029 0.923265 0.472627 0.087659
C32   C     C_R   0.216769 0.973488 0.453273 -0.193229
C33   C     C_R   0.150051 0.872099 0.459561 -0.193714
C34   C     C_R   0.291423 0.821577 0.481467 -0.250250
H12   H     H_    0.637771 0.848527 0.485507 0.195741
H13   H     H_    0.317584 0.760731 0.496399 0.151361
H14   H     H_    0.069739 0.853616 0.454114 0.160742
H15   H     H_    0.358406 0.159946 0.447925 0.150144
H16   H     H_    0.930413 0.152356 0.516871 0.169381
H17   H     H_    0.684510 0.234862 0.515268 0.156067
H18   H     H_    0.461058 0.801947 0.468445 0.141390
H19   H     H_    0.536035 0.207911 0.464151 0.144715
H20   H     H_    0.186731 0.031621 0.443291 0.139621
N1    N     N_R   0.795410 0.560790 0.443550 -0.181165
N2    N     N_R   0.204590 0.439170 0.556520 -0.177403
C35   C     C_R   0.718288 0.672514 0.359378 -0.297117
C36   C     C_R   0.798726 0.641346 0.380695 0.081692
C37   C     C_R   0.713908 0.507907 0.487019 0.020107
C38   C     C_R   0.628869 0.535314 0.468026 -0.020800
C39   C     C_R   0.633458 0.620244 0.403007 0.165191
C40   C     C_R   0.540844 0.482869 0.511362 0.070973
C41   C     C_R   0.459362 0.517354 0.488992 0.081270
C42   C     C_R   0.468865 0.603223 0.424405 -0.239881
C43   C     C_R   0.553969 0.653123 0.382333 -0.199207
C44   C     C_R   0.531430 0.397125 0.576089 -0.207673
C45   C     C_R   0.446588 0.347628 0.618538 -0.172874
C46   C     C_R   0.367020 0.380407 0.597747 0.153745
C47   C     C_R   0.371314 0.464896 0.532299 -0.022309
C48   C     C_R   0.282365 0.328417 0.641639 -0.311489
C49   C     C_R   0.201693 0.359249 0.619987 0.080050
C50   C     C_R   0.286008 0.491914 0.512923 0.013772
H21   H     H_    0.557734 0.718694 0.333159 0.146328
H22   H     H_    0.281306 0.553160 0.462638 0.120896
H23   H     H_    0.135794 0.318491 0.653112 0.125780
H24   H     H_    0.443041 0.282391 0.668054 0.154343
H25   H     H_    0.722707 0.737610 0.309516 0.144664
H26   H     H_    0.864774 0.682335 0.347788 0.127279
H27   H     H_    0.718348 0.446254 0.536919 0.129471
H28   H     H_    0.411707 0.634442 0.404747 0.127093
H29   H     H_    0.588526 0.365809 0.595700 0.143762
H30   H     H_    0.278244 0.263762 0.691938 0.140594
O9    O     O_3   0.820519 0.960281 0.503149 -0.588132
C51   C     C_3   0.863343 0.930339 0.587745 -0.336634
H31   H     H_    0.807440 0.900114 0.634615 0.165579
H32   H     H_    0.932199 0.993860 0.611669 0.159589
H33   H     H_    0.886595 0.868438 0.585082 0.200351
N3    N     N_R   0.807915 0.441677 0.890332 0.128833
O10   O     O_R   0.773262 0.346633 0.925153 -0.379368
O11   O     O_R   0.754326 0.472562 0.822497 -0.363010

loop_
_geom_bond_atom_site_label_1
_geom_bond_atom_site_label_2
_geom_bond_distance
_ccdc_geom_bond_type
O9    C51   1.409764 S    
C28   H19   1.076883 S    
C41   C42   1.412240 A    
C19   O9    1.384031 S    
C40   C44   1.412350 A    
C43   H21   1.084349 S    
C26   H18   1.076781 S    
Cu1   Cu2   2.694662 S    
C32   C33   1.392959 A    
C5    H2    1.110043 S    
C11   C12   1.551011 S    
C29   H15   1.084491 S    
C8    C14   1.199694 T    
C17   C21   1.395219 A    
C15   C16   1.199397 T    
O7    C4    1.297158 A    
C46   C48   1.401227 A    
C5    C10   1.548648 S    
C18   C33   1.399936 A    
C25   C31   1.424745 A    
C47   C50   1.421329 A    
Cu1   O5    1.939016 S    
O5    C3    1.299919 A    
C18   C34   1.398927 A    
C1    C17   1.467607 S    
C6    C7    1.556529 S    
C38   C39   1.416462 A    
C31   C34   1.404187 A    
C6    H3    1.115402 S    
C2    C16   1.423347 S    
Cu2   N1    2.024125 S    
C6    C9    1.562838 S    
C51   H31   1.114066 S    
H1    C10   1.113080 S    
O3    Cu1   1.923261 S    
C37   H27   1.075052 S    
C5    H9    1.113406 S    
C12   H8    1.113148 S    
C42   C43   1.388480 A    
C35   C36   1.390357 A    
C13   H6    1.113350 S    
C44   C45   1.388593 A    
C17   C20   1.398041 A    
O3    C2    1.296007 A    
C46   C47   1.416371 A    
C48   C49   1.390404 A    
C44   H29   1.076477 S    
C51   H33   1.109389 S    
C10   C11   1.549528 S    
C45   C46   1.393700 A    
C7    H4    1.112791 S    
C30   C31   1.417528 A    
O1    C1    1.300814 A    
C4    C8    1.423800 S    
C48   H30   1.083827 S    
Cu1   O7    1.927318 S    
C22   C23   1.420957 A    
N2    C50   1.363132 A    
C26   C27   1.385927 A    
C24   C28   1.417692 A    
Cu2   O8    1.923263 S    
N1    C36   1.356268 A    
C29   C30   1.390751 A    
C41   C47   1.435100 A    
C51   H32   1.112374 S    
C22   C24   1.426151 A    
C21   H17   1.075986 S    
C19   C20   1.400187 A    
O8    C4    1.295863 A    
C13   H7    1.113220 S    
C28   C29   1.387380 A    
N3    O11   1.301176 A    
C34   H13   1.075468 S    
C36   H26   1.081694 S    
C21   C22   1.403472 A    
C7    C11   1.550239 S    
C33   H14   1.083101 S    
C27   H12   1.083822 S    
C25   C26   1.414949 A    
C5    C9    1.552260 S    
O1    Cu1   1.952234 S    
C35   H25   1.083832 S    
O2    Cu2   1.939016 S    
C9    C13   1.551756 S    
C20   H16   1.083273 S    
C40   C41   1.435585 A    
O6    C3    1.301460 A    
C45   H24   1.084315 S    
O4    Cu2   1.927318 S    
C50   H22   1.075116 S    
C7    H5    1.113434 S    
C42   H28   1.076331 S    
O2    C1    1.300008 A    
N2    C49   1.356220 A    
C39   C43   1.393619 A    
C6    N3    1.469322 S    
O4    C2    1.296800 A    
C12   H11   1.113107 S    
N1    C37   1.363073 A    
C32   H20   1.083925 S    
C35   C39   1.401107 A    
C37   C38   1.421297 A    
C9    C15   1.464043 S    
C3    C18   1.468693 S    
C10   H10   1.113205 S    
C24   C25   1.422051 A    
C19   C23   1.412690 A    
C11   C14   1.463196 S    
Cu2   O6    1.952234 S    
N3    O10   1.301424 A    
C12   C13   1.550606 S    
C38   C40   1.435088 A    
C30   C32   1.403698 A    
C49   H23   1.081701 S    
C23   C27   1.394858 A    
Cu1   N2    2.024479 S    
