data_mof_unit_17498.cif
_audit_creation_date              2012-10-26T21:13:41-0400
_audit_creation_method            fapswitch 2.2
_symmetry_space_group_name_H-M    P1
_symmetry_Int_Tables_number       1
_space_group_crystal_system       triclinic
_cell_length_a                    9.075384
_cell_length_b                    10.817108
_cell_length_c                    9.581863
_cell_angle_alpha                 89.627856
_cell_angle_beta                  89.589456
_cell_angle_gamma                 91.00186
_cell_volume                      940.457266764

loop_
_atom_site_label
_atom_site_type_symbol
_atom_type_description
_atom_site_fract_x
_atom_site_fract_y
_atom_site_fract_z
_atom_type_partial_charge
C1    C     C_R   0.506452 0.262535 0.500024 0.558082
C2    C     C_R   0.611454 0.557170 0.925049 0.171307
C3    C     C_3   0.654864 0.690555 0.917434 -0.266739
C4    C     C_R   0.220792 0.499811 0.500284 0.549390
C5    C     C_3   0.652729 0.691406 0.075772 -0.276614
C6    C     C_R   0.503089 0.737467 0.499829 0.543445
C7    C     C_R   0.779214 0.500111 0.499720 0.561320
C8    C     C_1   0.065578 0.499846 0.500434 -0.034074
C9    C     C_1   0.934428 0.499956 0.499614 -0.031156
C10   C     C_R   0.481878 0.062498 0.620377 0.005830
C11   C     C_R   0.523763 0.129422 0.500979 0.020432
C12   C     C_R   0.582444 0.935283 0.388619 -0.134445
C13   C     C_R   0.586878 0.064637 0.387491 0.067015
C14   C     C_2   0.278217 0.358564 0.862878 0.233873
C15   C     C_R   0.518037 0.870549 0.501343 -0.014101
C16   C     C_R   0.479380 0.935454 0.620572 0.011804
C17   C     C_3   0.341618 0.927494 0.706321 -0.253641
C18   C     C_3   0.344430 0.067751 0.706842 -0.263908
C19   C     C_R   0.611008 0.557598 0.072049 0.178265
C20   C     C_R   0.398195 0.434115 0.077518 0.049669
C21   C     C_R   0.396454 0.433308 0.929050 0.109861
Cu1   Cu    Cu3+1 0.499990 0.499980 0.640670 0.954436
Cu2   Cu    Cu3+1 0.500010 0.500020 0.359330 0.983114
H1    H     H_    0.568386 0.749067 0.871080 0.155335
H2    H     H_    0.767000 0.704759 0.872076 0.143410
H3    H     H_    0.289550 0.322945 0.759254 0.161702
H4    H     H_    0.763285 0.707520 0.122102 0.141203
H5    H     H_    0.563311 0.749020 0.118857 0.150935
H6    H     H_    0.626707 0.885907 0.300477 0.140157
H7    H     H_    0.246938 0.887030 0.648176 0.143968
H8    H     H_    0.360396 0.886283 0.811086 0.145310
H9    H     H_    0.250792 0.109013 0.649775 0.139717
H10   H     H_    0.365740 0.106378 0.812111 0.161374
H11   H     H_    0.316290 0.381952 0.137056 0.175548
I1    I     I_    0.690489 0.149574 0.210336 -0.337071
N1    N     N_R   0.500920 0.500930 0.147930 -0.252457
N2    N     N_R   0.500930 0.500890 0.852020 -0.263755
O1    O     O_R   0.500000 0.319640 0.618810 -0.529493
O2    O     O_R   0.500020 0.319680 0.381230 -0.471451
O3    O     O_R   0.288380 0.499980 0.618770 -0.518354
O4    O     O_R   0.288400 0.500020 0.381190 -0.498617
O5    O     O_R   0.499980 0.680320 0.618770 -0.505381
O6    O     O_R   0.500000 0.680360 0.381190 -0.512342
O7    O     O_R   0.711600 0.499980 0.618810 -0.487384
O8    O     O_R   0.711620 0.500020 0.381230 -0.479667
O9    O     O_2   0.164323 0.333070 0.926291 -0.525849

loop_
_geom_bond_atom_site_label_1
_geom_bond_atom_site_label_2
_ccdc_geom_bond_type
C5    C19   S    
C12   H6    S    
C5    H5    S    
Cu2   O4    S    
C12   C15   A    
C4    C8    S    
C6    O6    A    
Cu1   O3    S    
C14   H3    S    
C2    C3    S    
C2    C19   A    
C21   N2    A    
C14   O9    D    
C10   C16   A    
C7    O7    A    
C12   C13   A    
C17   H7    S    
C11   C13   A    
C2    N2    A    
C3    H1    S    
Cu1   O5    S    
C1    O1    A    
C10   C18   S    
Cu2   O8    S    
C7    O8    A    
C14   C21   S    
C13   I1    S    
C19   N1    A    
C6    O5    A    
C17   H8    S    
C18   H10   S    
Cu2   O2    S    
C18   H9    S    
C10   C11   A    
C1    O2    A    
C15   C16   A    
Cu1   O1    S    
C3    H2    S    
Cu2   O6    S    
C20   C21   A    
C17   C18   S    
Cu2   N1    S    
C4    O4    A    
C20   H11   S    
C7    C9    S    
Cu1   Cu2   S    
C8    C9    T    
C20   N1    A    
C6    C15   S    
C5    H4    S    
Cu1   N2    S    
Cu1   O7    S    
C4    O3    A    
C16   C17   S    
C3    C5    S    
C1    C11   S    
