data_mof_unit_40624.cif
_audit_creation_date              2012-12-10T16:55:47-0500
_audit_creation_method            fapswitch 2.2
_symmetry_space_group_name_H-M    P1
_symmetry_Int_Tables_number       1
_space_group_crystal_system       triclinic
_cell_length_a                    7.881778
_cell_length_b                    8.552781
_cell_length_c                    10.470543
_cell_angle_alpha                 92.34348
_cell_angle_beta                  84.246231
_cell_angle_gamma                 93.81866
_cell_volume                      700.2996004

loop_
_atom_site_label
_atom_site_type_symbol
_atom_type_description
_atom_site_fract_x
_atom_site_fract_y
_atom_site_fract_z
_atom_type_partial_charge
C1    C     C_R   0.545464 0.794310 0.496891 0.953554
C2    C     C_3   0.498366 0.500468 0.877607 0.039223
C3    C     C_3   0.396445 0.379650 0.046111 -0.191236
C4    C     C_3   0.603555 0.620350 0.953888 -0.191236
C5    C     C_2   0.569122 0.958149 0.495152 -0.390353
C6    C     C_2   0.430878 0.041851 0.504848 -0.390353
C7    C     C_3   0.004731 0.307475 0.417444 -0.513691
C8    C     C_3   0.995269 0.692525 0.582556 -0.513691
C9    C     C_R   0.454536 0.205690 0.503109 0.953554
C10   C     C_R   0.499638 0.500549 0.742283 0.847131
C11   C     C_R   0.500362 0.499451 0.257717 0.847131
C12   C     C_3   0.339253 0.516437 0.972450 -0.134848
C13   C     C_3   0.660747 0.483563 0.027550 -0.134848
C14   C     C_3   0.444697 0.636297 0.051427 -0.176199
C15   C     C_3   0.555303 0.363703 0.948573 -0.176199
C16   C     C_3   0.501634 0.499532 0.122393 0.039223
H1    H     H_    0.399956 0.746998 0.098248 0.131344
H2    H     H_    0.124216 0.319388 0.353164 0.209287
H3    H     H_    0.014280 0.229511 0.498265 0.185730
H4    H     H_    0.093039 0.747875 0.641997 0.173935
H5    H     H_    0.985719 0.770488 0.501735 0.185730
H6    H     H_    0.875784 0.680612 0.646836 0.209287
H7    H     H_    0.600044 0.253002 0.901752 0.131344
H8    H     H_    0.208124 0.529854 0.946075 0.141379
H9    H     H_    0.791876 0.470146 0.053924 0.141379
H10   H     H_    0.312442 0.281925 0.088658 0.123495
H11   H     H_    0.687558 0.718075 0.911342 0.123495
H12   H     H_    0.699708 0.009272 0.485953 0.171264
H13   H     H_    0.300292 0.990728 0.514047 0.171264
H14   H     H_    0.906961 0.252125 0.358002 0.173935
N1    N     N_2   0.950320 0.457950 0.465730 0.002551
N2    N     N_2   0.049680 0.542050 0.534270 0.002551
O1    O     O_R   0.389250 0.738570 0.508410 -0.612630
O2    O     O_R   0.610750 0.261430 0.491590 -0.612630
O3    O     O_R   0.678390 0.711620 0.486450 -0.641713
O4    O     O_R   0.321610 0.288380 0.513550 -0.641713
O5    O     O_R   0.355460 0.513510 0.697030 -0.621656
O6    O     O_R   0.644540 0.486490 0.302970 -0.621656
O7    O     O_R   0.644600 0.486560 0.675070 -0.629977
O8    O     O_R   0.355400 0.513440 0.324930 -0.629977
Zn1   Zn    Zn3+2 0.306940 0.517990 0.514670 0.933410
Zn2   Zn    Zn3+2 0.693060 0.482010 0.485330 0.933410

loop_
_geom_bond_atom_site_label_1
_geom_bond_atom_site_label_2
_ccdc_geom_bond_type
C11   O6    A    
C2    C4    S    
N2    Zn1   S    
N1    Zn2   S    
C9    O4    A    
C5    H12   S    
C11   C16   S    
C12   H8    S    
C8    H6    S    
N1    N2    D    
O2    Zn2   S    
C7    H2    S    
O1    Zn1   S    
C6    H13   S    
C6    C9    S    
C15   H7    S    
C8    H5    S    
C1    O1    A    
C7    H14   S    
C4    C14   S    
C2    C15   S    
C14   H1    S    
C13   H9    S    
O4    Zn1   S    
C8    H4    S    
C10   O5    A    
C1    C5    S    
C5    C6    D    
O8    Zn1   S    
C12   C14   S    
O6    Zn2   S    
O7    Zn2   S    
C7    H3    S    
C13   C15   S    
O5    Zn1   S    
C9    O2    A    
C14   C16   S    
C7    N1    S    
C11   O8    A    
C2    C10   S    
C4    H11   S    
C3    C15   S    
C1    O3    A    
C2    C12   S    
C13   C16   S    
C4    C13   S    
O3    Zn2   S    
C3    C12   S    
C3    H10   S    
C3    C16   S    
C10   O7    A    
C8    N2    S    
