data_mof_unit_50213.cif
_audit_creation_date              2013-03-05T16:12:07-0500
_audit_creation_method            fapswitch 2.2
_symmetry_space_group_name_H-M    P1
_symmetry_Int_Tables_number       1
_space_group_crystal_system       triclinic
_cell_length_a                    10.750379
_cell_length_b                    9.393097
_cell_length_c                    27.826196
_cell_angle_alpha                 89.963516
_cell_angle_beta                  89.709384
_cell_angle_gamma                 90.308112
_cell_volume                      2809.79386886

loop_
_atom_site_label
_atom_site_type_symbol
_atom_site_description
_atom_site_fract_x
_atom_site_fract_y
_atom_site_fract_z
_atom_type_partial_charge
O1    O     O_R   0.317570 0.620260 0.500030 -0.604768
O2    O     O_R   0.317570 0.379740 0.500030 -0.597217
C1    C     C_R   0.259702 0.499863 0.500202 0.789609
O3    O     O_R   0.499900 0.620250 0.430280 -0.573265
O4    O     O_R   0.499900 0.379750 0.430280 -0.594398
C2    C     C_R   0.497791 0.500190 0.407411 0.806575
Cu1   Cu    Cu3+1 0.499860 0.642410 0.500020 0.913328
Cu2   Cu    Cu3+1 0.499860 0.357590 0.500020 0.893926
O5    O     O_R   0.682190 0.620260 0.500010 -0.565326
O6    O     O_R   0.682190 0.379740 0.500010 -0.604307
O7    O     O_R   0.499860 0.620280 0.569750 -0.591157
O8    O     O_R   0.499860 0.379720 0.569750 -0.596709
C3    C     C_R   0.740093 0.500924 0.501033 0.829949
C4    C     C_R   0.500367 0.499942 0.592571 0.841184
C5    C     C_R   0.390103 0.494092 0.177635 0.534834
O9    O     O_2   0.281972 0.501992 0.202337 -0.540299
N1    N     N_R   0.500324 0.486301 0.201841 -0.460567
C6    C     C_R   0.611216 0.475557 0.177811 0.538175
C7    C     C_R   0.534879 0.372075 0.279921 -0.104443
C8    C     C_R   0.532909 0.376322 0.329872 -0.275626
C9    C     C_R   0.458384 0.621465 0.327630 0.232353
C10   C     C_R   0.461656 0.615179 0.277099 -0.132854
C11   C     C_R   0.499574 0.491313 0.253393 0.304747
C12   C     C_R   0.501870 0.482929 0.101660 -0.044757
C13   C     C_R   0.388883 0.493349 0.127198 -0.020916
C14   C     C_R   0.277237 0.502180 0.102006 -0.146491
C15   C     C_R   0.613994 0.472979 0.127357 -0.022383
C16   C     C_R   0.495519 0.500063 0.354307 -0.112049
H1    H     H_    0.432869 0.705001 0.255594 0.152489
H2    H     H_    0.188870 0.507800 0.120795 0.186629
C17   C     C_R   0.502653 0.499772 0.645463 -0.061898
C18   C     C_R   0.390935 0.506753 0.974265 0.042930
C19   C     C_R   0.617342 0.462755 0.974309 0.042893
C20   C     C_R   0.504676 0.485956 0.949054 0.068383
C21   C     C_R   0.282780 0.536904 0.947362 -0.204711
C22   C     C_R   0.285484 0.541536 0.897492 -0.147487
C23   C     C_R   0.395934 0.516683 0.872369 -0.028397
C24   C     C_R   0.505797 0.488642 0.897961 -0.043904
C25   C     C_R   0.616764 0.463274 0.872329 -0.017884
C26   C     C_R   0.615827 0.466554 0.821891 0.512683
N2    N     N_R   0.508301 0.495904 0.797865 -0.454691
C27   C     C_R   0.399239 0.519929 0.821954 0.575878
C28   C     C_R   0.518633 0.371354 0.720804 -0.170112
C29   C     C_R   0.515081 0.371370 0.670801 -0.249068
C30   C     C_R   0.493487 0.628183 0.671050 -0.293048
C31   C     C_R   0.497343 0.629020 0.721358 0.307060
C32   C     C_R   0.509402 0.499287 0.746315 0.342647
O10   O     O_2   0.294202 0.545901 0.797140 -0.536991
C33   C     C_R   0.389100 0.498421 0.025264 0.043096
C34   C     C_R   0.502742 0.482942 0.050556 0.067859
C35   C     C_R   0.617258 0.467946 0.025372 0.043221
C36   C     C_R   0.277039 0.504433 0.052112 -0.205861
H3    H     H_    0.522656 0.270831 0.652042 0.150903
H4    H     H_    0.527446 0.271441 0.739903 0.150726
H5    H     H_    0.200043 0.565125 0.878666 0.186384
H6    H     H_    0.194340 0.560719 0.963700 0.137337
H7    H     H_    0.186627 0.508404 0.035728 0.135444
O11   O     O_2   0.718525 0.468910 0.202664 -0.538211
C37   C     C_R   0.726388 0.462595 0.102291 -0.146589
H8    H     H_    0.561826 0.282532 0.349435 0.159387
H9    H     H_    0.563588 0.275702 0.261733 0.149906
H10   H     H_    0.814087 0.456647 0.121191 0.186523
C38   C     C_R   0.726495 0.434482 0.947352 -0.207185
C39   C     C_R   0.725950 0.434930 0.897438 -0.148875
O12   O     O_2   0.721696 0.442183 0.797015 -0.549339
C40   C     C_R   0.728286 0.460221 0.052384 -0.205329
H11   H     H_    0.814157 0.408795 0.963653 0.137564
H12   H     H_    0.483864 0.728235 0.652111 0.141484
H13   H     H_    0.812155 0.413063 0.878564 0.186977
H14   H     H_    0.819238 0.455437 0.036126 0.135429
C41   C     C_3   0.074161 0.655643 0.505398 -0.412495
C42   C     C_3   0.072831 0.414518 0.544744 -0.429852
H15   H     H_    0.114855 0.723906 0.476513 0.150611
H16   H     H_    0.106394 0.302726 0.542689 0.153877
H17   H     H_    0.104882 0.700510 0.540461 0.172109
H18   H     H_    0.111839 0.459968 0.578402 0.156666
C43   C     C_3   0.931993 0.660362 0.501210 0.136651
C44   C     C_3   0.928320 0.413794 0.545275 0.103915
H19   H     H_    0.909489 0.705173 0.465143 0.135683
H20   H     H_    0.898314 0.301308 0.538961 0.146436
H21   H     H_    0.103547 0.495842 0.422511 0.166687
H22   H     H_    0.105905 0.322761 0.449906 0.175674
H23   H     H_    0.890484 0.485790 0.422973 0.173171
H24   H     H_    0.893817 0.318347 0.453423 0.180403
C45   C     C_3   0.070709 0.433303 0.454160 -0.396958
C46   C     C_3   0.122024 0.500440 0.500965 0.086898
C47   C     C_3   0.878120 0.503645 0.502030 0.047410
C48   C     C_3   0.926989 0.430703 0.455375 -0.511997
C49   C     C_3   0.586322 0.084315 0.464113 -0.189236
C50   C     C_3   0.585529 0.916663 0.463897 -0.195952
H25   H     H_    0.682728 0.122971 0.470547 0.139821
H26   H     H_    0.681229 0.876963 0.469579 0.162666
H27   H     H_    0.560002 0.122915 0.427837 0.142164
H28   H     H_    0.557632 0.879066 0.427670 0.174711
H29   H     H_    0.634945 0.123735 0.556918 0.130582
H30   H     H_    0.633452 0.875825 0.557481 0.172128
C51   C     C_3   0.540300 0.083874 0.548034 -0.189447
C52   C     C_3   0.539789 0.916265 0.548084 -0.182538
C53   C     C_3   0.374920 0.083078 0.490923 -0.185063
C54   C     C_3   0.374830 0.915578 0.491024 -0.190526
N3    N     N_3   0.500250 0.143650 0.501060 -0.111076
N4    N     N_3   0.500250 0.856350 0.501060 -0.115113
H31   H     H_    0.307197 0.120530 0.518434 0.137961
H32   H     H_    0.307290 0.877837 0.518700 0.137701
H33   H     H_    0.341476 0.122490 0.455574 0.139605
H34   H     H_    0.340853 0.875579 0.455797 0.143455
H35   H     H_    0.476980 0.120863 0.577091 0.139391
H36   H     H_    0.475416 0.879289 0.576929 0.133269
N5    N     N_2   0.412269 0.744563 0.351992 -0.421594
H37   H     H_    0.334199 0.726634 0.372880 0.247902
C55   C     C_3   0.416971 0.882065 0.328527 -0.725667
H38   H     H_    0.400438 0.966841 0.355584 0.217020
H39   H     H_    0.343470 0.889043 0.300740 0.237074
H40   H     H_    0.510134 0.900489 0.312130 0.237694
N6    N     N_2   0.486343 0.759808 0.746751 -0.417633
H41   H     H_    0.432084 0.834008 0.729441 0.249824
C56   C     C_3   0.603606 0.819996 0.762173 -0.670423
H42   H     H_    0.586175 0.918556 0.783113 0.229732
H43   H     H_    0.662467 0.847166 0.730473 0.218744
H44   H     H_    0.654011 0.744212 0.785554 0.255309
N7    N     N_2   0.878314 0.755711 0.537152 -0.399096
H45   H     H_    0.887897 0.725318 0.572332 0.266609
C57   C     C_3   0.904231 0.906236 0.530463 -0.777525
H46   H     H_    0.003175 0.930161 0.538622 0.222686
H47   H     H_    0.845103 0.969546 0.555200 0.220921
H48   H     H_    0.884178 0.939757 0.493051 0.220104
N8    N     N_2   0.878446 0.461579 0.591416 -0.438759
H49   H     H_    0.933242 0.532774 0.610027 0.256866
C58   C     C_3   0.827124 0.352021 0.622348 -0.700926
H50   H     H_    0.789481 0.401262 0.655609 0.256033
H51   H     H_    0.900572 0.274772 0.632298 0.227708
H52   H     H_    0.749937 0.295708 0.603941 0.226609

loop_
_geom_bond_atom_site_label_1
_geom_bond_atom_site_label_2
_geom_bond_distance
_ccdc_geom_bond_type
C44   C47   1.568986 S    
C53   H31   1.112328 S    
C47   C48   1.558516 S    
C10   H1    1.081541 S    
N2    C27   1.367453 A    
C21   C22   1.388512 A    
C12   C15   1.408133 A    
C4    C17   1.472113 S    
C42   H18   1.112579 S    
C51   C52   1.574343 S    
C57   H46   1.110596 S    
C40   H14   1.076428 S    
C45   C46   1.550137 S    
Cu1   O7    1.951292 S    
C25   C39   1.395796 A    
N1    C11   1.435298 S    
C31   N6    1.422790 S    
C22   C23   1.395640 A    
N5    C55   1.447381 S    
C37   C40   1.388975 A    
C24   C25   1.408266 A    
O7    C4    1.296206 A    
C44   H20   1.117340 S    
C57   H47   1.109783 S    
N6    H41   1.031890 S    
C54   H32   1.112271 S    
C52   H36   1.111409 S    
C5    N1    1.368218 A    
C23   C27   1.403449 A    
O5    C3    1.285470 A    
C50   N4    1.488235 S    
C42   C44   1.553517 S    
C29   H3    1.082566 S    
C6    O11   1.349743 S    
C2    C16   1.478009 S    
C55   H38   1.110623 S    
N6    C56   1.446062 S    
Cu1   N4    2.009768 S    
H30   C52   1.110499 S    
C8    H8    1.083113 S    
Cu2   N3    2.009776 S    
Cu2   O8    1.951555 S    
C58   H52   1.109340 S    
H23   C48   1.113471 S    
C20   C24   1.421929 A    
C9    C10   1.407621 A    
C1    C46   1.480173 S    
O3    Cu1   1.951860 S    
C44   N8    1.460757 S    
C50   H28   1.110523 S    
C43   H19   1.116204 S    
C12   C34   1.422035 A    
C53   H33   1.112838 S    
C38   H11   1.076435 S    
C17   C29   1.404002 A    
C18   C21   1.415832 A    
Cu1   Cu2   2.675341 S    
C12   C13   1.408033 A    
C42   H16   1.113580 S    
C56   H44   1.109403 S    
C25   C26   1.403902 A    
C41   H15   1.114155 S    
C57   H48   1.109935 S    
C8    C16   1.406441 A    
C34   C35   1.421165 A    
C13   C14   1.395839 A    
C52   N4    1.487807 S    
O1    C1    1.287781 A    
C35   C40   1.415928 A    
C18   C20   1.421087 A    
C7    C11   1.396323 A    
C28   C29   1.392113 A    
N8    C58   1.446446 S    
C23   C24   1.408207 A    
C14   C36   1.388504 A    
C41   C46   1.553355 S    
C28   H4    1.083066 S    
C50   H26   1.108239 S    
C53   C54   1.573348 S    
C19   C38   1.415918 A    
C33   C36   1.415735 A    
C3    C47   1.484326 S    
C30   H12   1.082872 S    
C54   N4    1.489002 S    
N1    C6    1.368132 A    
N2    C32   1.434762 S    
C55   H39   1.110494 S    
C27   O10   1.349817 S    
C39   H13   1.083564 S    
N7    H45   1.025359 S    
O3    C2    1.295396 A    
C26   N2    1.367559 A    
C53   N3    1.488091 S    
C9    C16   1.420434 A    
O8    C4    1.295910 A    
C14   H2    1.083582 S    
C26   O12   1.349784 S    
C49   H25   1.111727 S    
N8    H49   1.030394 S    
C41   C43   1.534264 S    
C58   H50   1.110427 S    
C45   C48   1.545304 S    
Cu1   O5    1.972239 S    
C31   C32   1.409103 A    
C37   H10   1.083575 S    
C49   N3    1.490114 S    
C21   H6    1.076424 S    
O1    Cu1   1.969587 S    
O2    Cu2   1.971812 S    
C6    C15   1.404317 A    
H24   C48   1.113621 S    
O6    C3    1.294836 A    
O4    Cu2   1.951596 S    
C42   C46   1.550050 S    
H29   C51   1.111362 S    
C19   C35   1.421758 A    
H22   C45   1.113208 S    
C54   H34   1.112675 S    
C7    C8    1.390621 A    
C56   H43   1.111735 S    
O2    C1    1.291388 A    
C22   H5    1.083579 S    
C15   C37   1.395979 A    
C56   H42   1.110466 S    
C41   H17   1.113944 S    
O4    C2    1.298009 A    
C7    H9    1.082981 S    
C19   C20   1.421139 A    
C55   H40   1.111133 S    
C49   H27   1.110850 S    
H21   C45   1.113198 S    
C18   C33   1.421255 A    
N7    C57   1.451305 S    
C43   N7    1.461599 S    
C36   H7    1.076479 S    
C38   C39   1.388979 A    
C51   H35   1.111377 S    
C30   C31   1.400727 A    
C43   C47   1.579103 S    
C5    C13   1.403625 A    
Cu2   O6    1.970013 S    
C33   C34   1.421079 A    
C17   C30   1.404689 A    
C10   C11   1.399400 A    
C49   C50   1.574766 S    
N5    H37   1.031512 S    
C28   C32   1.399818 A    
C51   N3    1.488803 S    
C5    O9    1.349863 S    
C9    N5    1.430390 S    
C58   H51   1.111188 S    
