data_mof_unit_51449.cif
_audit_creation_date              2012-12-11T20:24:17-0500
_audit_creation_method            fapswitch 2.2
_symmetry_space_group_name_H-M    P1
_symmetry_Int_Tables_number       1
_space_group_crystal_system       triclinic
_cell_length_a                    8.260758
_cell_length_b                    17.30682
_cell_length_c                    19.005482
_cell_angle_alpha                 103.311212
_cell_angle_beta                  92.033364
_cell_angle_gamma                 98.108649
_cell_volume                      2611.2095669

loop_
_atom_site_label
_atom_site_type_symbol
_atom_type_description
_atom_site_fract_x
_atom_site_fract_y
_atom_site_fract_z
_atom_type_partial_charge
Ba1   Ba    Ba6+2 0.854170 0.535040 0.467640 1.638329
Ba2   Ba    Ba6+2 0.335670 0.465030 0.532370 1.635324
C1    C     C_3   0.695034 0.807644 0.276884 -0.381603
C2    C     C_R   0.022104 0.532094 0.729116 0.057928
C3    C     C_R   0.844900 0.445334 0.814885 -0.158010
C4    C     C_3   0.103560 0.706591 0.284018 0.366582
C5    C     C_R   0.780431 0.444901 0.745421 0.003907
C6    C     C_R   0.355380 0.557464 0.187185 -0.156886
C7    C     C_R   0.416049 0.547044 0.253169 0.029136
C8    C     C_R   0.097978 0.479747 0.200612 -0.146336
C9    C     C_R   0.159357 0.473159 0.270046 0.061499
C10   C     C_R   0.981553 0.503161 0.848875 0.000303
C11   C     C_R   0.877627 0.481387 0.700610 -0.257165
C12   C     C_3   0.644778 0.730424 0.301169 0.343975
C13   C     C_R   0.191600 0.528349 0.158952 -0.021386
C14   C     C_R   0.317442 0.508304 0.295284 -0.224508
C15   C     C_R   0.740696 0.500739 0.963191 -0.076951
C16   C     C_3   0.088327 0.740712 0.216948 -0.110111
C17   C     C_R   0.626316 0.484922 0.011772 -0.082270
C18   C     C_R   0.676665 0.496410 0.083832 -0.065784
C19   C     C_R   0.840082 0.523973 0.106789 -0.070821
C20   C     C_R   0.961376 0.522303 0.057754 0.007853
C21   C     C_R   0.911450 0.512007 0.982457 0.039687
C22   C     C_R   0.128422 0.542157 0.084494 -0.030926
C23   C     C_3   0.479904 0.321152 0.301323 0.312758
C24   C     C_R   0.232802 0.573874 0.036388 0.037860
C25   C     C_R   0.196510 0.547354 0.959873 0.023862
C26   C     C_R   0.031382 0.517613 0.930452 -0.012298
C27   C     C_R   0.361162 0.638955 0.060716 -0.076090
C28   C     C_3   0.244562 0.711362 0.630438 0.318344
C29   C     C_R   0.477094 0.659315 0.013864 -0.054284
C30   C     C_R   0.465082 0.615451 0.942240 -0.070864
C31   C     C_R   0.327611 0.557825 0.915983 -0.110166
C32   C     C_2   0.445874 0.716931 0.477892 -0.249338
C33   C     C_3   0.368770 0.763031 0.430860 -0.049531
C34   C     C_3   0.527181 0.293419 0.223576 -0.056062
C35   C     C_2   0.423035 0.852023 0.454089 -0.106892
C36   C     C_2   0.554447 0.883173 0.501744 0.012373
C37   C     C_2   0.635761 0.828423 0.536486 -0.126848
C38   C     C_1   0.576301 0.750991 0.522579 0.058559
C39   C     C_R   0.803085 0.138747 0.535374 -0.129036
C40   C     C_3   0.278239 0.802697 0.650712 -0.382236
C41   C     C_R   0.861984 0.220533 0.545736 0.015659
C42   C     C_R   0.617323 0.238620 0.481261 0.043964
C43   C     C_R   0.558520 0.156934 0.470012 -0.116967
C44   C     C_R   0.649723 0.106662 0.497684 0.008336
C45   C     C_3   0.073380 0.307202 0.721105 0.366100
C46   C     C_2   0.619102 0.970408 0.521347 -0.074078
C47   C     C_2   0.588779 0.019892 0.478997 -0.073229
C48   C     C_R   0.766404 0.270721 0.520941 -0.286817
C49   C     C_3   0.947233 0.286610 0.366176 0.305154
C50   C     C_3   0.906954 0.195524 0.342392 -0.392448
C51   C     C_3   0.724263 0.649029 0.690092 0.320792
C52   C     C_3   0.736962 0.673355 0.772497 -0.397023
C53   C     C_3   0.325667 0.326611 0.142131 -0.275279
C54   C     C_3   0.097752 0.288146 0.794671 -0.368349
C55   C     C_3   0.534968 0.256596 0.675836 0.366753
C56   C     C_3   0.491761 0.175357 0.693901 -0.361713
C57   C     C_R   0.062096 0.550208 0.804235 -0.142274
H1    H     H_    0.682638 0.741556 0.359841 0.062576
H2    H     H_    0.840912 0.630490 0.671237 -0.000875
H3    H     H_    0.623343 0.597670 0.672544 0.078458
H4    H     H_    0.826219 0.831273 0.292986 0.145372
H5    H     H_    0.843189 0.721595 0.792199 0.122236
H6    H     H_    0.753566 0.620919 0.794819 0.061891
H7    H     H_    0.622926 0.695414 0.792202 0.125907
H8    H     H_    0.509295 0.716179 0.292821 -0.063172
H9    H     H_    0.621543 0.853828 0.303407 0.067784
H10   H     H_    0.347713 0.326801 0.301691 0.006802
H11   H     H_    0.554638 0.380640 0.325462 0.061402
H12   H     H_    0.376835 0.823927 0.695075 0.115607
H13   H     H_    0.466347 0.230751 0.199437 0.095205
H14   H     H_    0.661796 0.292640 0.225364 0.092476
H15   H     H_    0.672765 0.796673 0.217170 0.112654
H16   H     H_    0.117941 0.696545 0.168888 0.064927
H17   H     H_    0.147815 0.366381 0.722484 0.082045
H18   H     H_    0.941520 0.310232 0.711377 -0.063070
H19   H     H_    0.228091 0.283098 0.805893 0.155304
H20   H     H_    0.062949 0.336626 0.837970 0.069063
H21   H     H_    0.020173 0.230531 0.795536 0.106811
H22   H     H_    0.669829 0.267925 0.672432 -0.075542
H23   H     H_    0.317232 0.825612 0.603136 0.074080
H24   H     H_    0.472457 0.253897 0.622413 0.081814
H25   H     H_    0.531835 0.127875 0.651169 0.071259
H26   H     H_    0.357327 0.161104 0.697053 0.152965
H27   H     H_    0.023971 0.647306 0.274125 0.063547
H28   H     H_    0.554633 0.176114 0.746744 0.105646
H29   H     H_    0.155428 0.601172 0.826445 0.070835
H30   H     H_    0.780592 0.404501 0.843494 0.074010
H31   H     H_    0.444957 0.585400 0.158422 0.072650
H32   H     H_    0.980074 0.445182 0.179814 0.090180
H33   H     H_    0.835023 0.474887 0.644749 0.065936
H34   H     H_    0.165230 0.826990 0.668850 0.132894
H35   H     H_    0.367338 0.502153 0.346817 0.052219
H36   H     H_    0.690919 0.506459 0.912010 0.077640
H37   H     H_    0.497232 0.469317 0.994640 0.081941
H38   H     H_    0.587879 0.487708 0.122109 0.092641
H39   H     H_    0.232422 0.696495 0.290560 -0.094168
H40   H     H_    0.873761 0.551426 0.162680 0.123888
H41   H     H_    0.369611 0.676268 0.115241 0.065811
H42   H     H_    0.578184 0.707524 0.033605 0.069805
H43   H     H_    0.559801 0.627412 0.906595 0.073649
H44   H     H_    0.321458 0.524137 0.860811 0.129238
H45   H     H_    0.835478 0.311397 0.384306 0.010778
H46   H     H_    0.514636 0.997132 0.428312 0.067168
H47   H     H_    0.742504 0.852917 0.574218 0.076995
H48   H     H_    0.880301 0.100201 0.552969 0.074397
H49   H     H_    0.695477 0.993901 0.571513 0.070103
H50   H     H_    0.355336 0.889307 0.429377 0.064457
H51   H     H_    0.960684 0.749877 0.206367 0.135684
H52   H     H_    0.444566 0.132080 0.437515 0.079191
H53   H     H_    0.404434 0.652713 0.466818 0.075922
H54   H     H_    0.813632 0.333704 0.527429 0.068837
H55   H     H_    0.359668 0.688083 0.615705 0.000913
H56   H     H_    0.042284 0.302559 0.411965 0.076302
H57   H     H_    0.153251 0.692018 0.583165 0.085789
H58   H     H_    0.577333 0.358326 0.145544 0.210565
H59   H     H_    0.304324 0.373821 0.113580 0.120066
H60   H     H_    0.229864 0.322071 0.181106 0.117226
H61   H     H_    0.316161 0.268497 0.101263 0.110784
H62   H     H_    0.169911 0.858431 0.269377 0.202576
H63   H     H_    0.319128 0.806899 0.234200 0.172695
H64   H     H_    0.806237 0.177936 0.298840 0.127599
H65   H     H_    0.868045 0.170313 0.388726 0.066928
H66   H     H_    0.016952 0.169947 0.321787 0.125061
N1    N     N_2   0.487059 0.347172 0.179571 -0.442104
N2    N     N_3   0.198919 0.816378 0.224457 -0.498216
O1    O     O_2   0.873520 0.443690 0.322540 -0.451976
O2    O     O_2   0.195305 0.222720 0.532195 -0.484881
O3    O     O_3   0.123889 0.246706 0.667539 -0.597055
O4    O     O_3   0.122020 0.450920 0.411670 -0.491349
O5    O     O_3   0.580730 0.598500 0.542710 -0.500619
O6    O     O_2   0.336360 0.303040 0.452600 -0.455772
O7    O     O_3   0.510463 0.262423 0.338019 -0.668389
O8    O     O_2   0.455058 0.469148 0.756253 -0.505473
O9    O     O_3   0.482387 0.316231 0.729766 -0.594460
O10   O     O_3   0.663590 0.591680 0.375790 -0.470962
O11   O     O_2   0.728203 0.512525 0.249018 -0.497806
O12   O     O_3   0.693853 0.714832 0.663139 -0.634348
O13   O     O_3   0.003796 0.315904 0.307276 -0.644191
O14   O     O_3   0.719041 0.667559 0.260794 -0.613042
O15   O     O_2   0.853350 0.696990 0.547450 -0.457175
O16   O     O_3   0.086060 0.635230 0.414460 -0.483209
O17   O     O_2   0.058538 0.783044 0.487813 -0.480117
O18   O     O_3   0.054769 0.759032 0.345307 -0.595962
O19   O     O_2   0.316180 0.556340 0.677510 -0.466883
O20   O     O_3   0.067690 0.549150 0.588340 -0.495342
O21   O     O_3   0.526120 0.408390 0.624220 -0.474590
O22   O     O_3   0.185300 0.684282 0.690037 -0.633196
O23   O     O_3   0.608980 0.401570 0.457310 -0.486675
O24   O     O_3   0.103650 0.364840 0.585560 -0.489855
P1    P     P_3+3 0.040700 0.421000 0.332140 0.970537
P2    P     P_3+3 0.677490 0.686860 0.568200 0.976464
P3    P     P_3+3 0.141344 0.737383 0.422449 0.955912
P4    P     P_3+3 0.149010 0.579070 0.667870 0.976830
P5    P     P_3+3 0.071811 0.262382 0.582447 0.950803
P6    P     P_3+3 0.631297 0.579287 0.283501 0.933576
P7    P     P_3+3 0.518457 0.300372 0.431913 0.943213
P8    P     P_3+3 0.562490 0.409845 0.715285 0.933474

loop_
_geom_bond_atom_site_label_1
_geom_bond_atom_site_label_2
_ccdc_geom_bond_type
Ba2   O23   S    
C37   H47   S    
C16   H16   S    
C40   H34   S    
C42   P7    S    
C1    H9    S    
C40   H23   S    
C33   P3    S    
Ba1   O5    S    
C56   H28   S    
C54   H19   S    
C52   H6    S    
C53   H60   S    
C51   C52   S    
C25   C31   A    
C44   C47   S    
C24   C25   A    
Ba2   P4    S    
C54   H20   S    
C10   C26   S    
C32   C38   D    
C29   H42   S    
C33   C35   S    
C7    C14   A    
C22   C24   A    
C45   H17   S    
C32   C33   S    
C8    C13   A    
C36   C37   S    
C19   H40   S    
C50   H64   S    
C5    P8    S    
O12   P2    S    
Ba2   O21   S    
C2    C11   A    
C32   H53   S    
Ba1   P1    S    
Ba1   Ba2   S    
C51   H3    S    
H63   N2    S    
C1    H15   S    
C57   H29   S    
Ba1   O15   S    
O9    P8    S    
C51   H2    S    
O1    P1    D    
C18   H38   S    
C17   C18   A    
C6    C7    A    
Ba2   O5    S    
C12   H8    S    
C55   H24   S    
C55   O9    S    
C15   H36   S    
O20   P4    S    
H58   N1    S    
O13   P1    S    
C35   H50   S    
C49   O13   S    
C12   O14   S    
C31   H44   S    
C19   C20   A    
C39   C41   A    
O4    P1    S    
Ba2   O4    S    
C53   H61   S    
C4    C16   S    
Ba2   O6    S    
O8    P8    D    
O19   P4    D    
C45   O3    S    
C49   C50   S    
C3    C10   A    
C34   H14   S    
C37   C38   D    
C3    C5    A    
C4    O18   S    
O16   P3    S    
C28   H57   S    
C49   H45   S    
C43   C44   A    
C49   H56   S    
O21   P8    S    
C35   C36   D    
Ba1   O16   S    
C56   H25   S    
C16   N2    S    
C9    C14   A    
C29   C30   A    
C53   N1    S    
C7    P6    S    
C39   C44   A    
O5    P2    S    
Ba1   O23   S    
C15   C21   A    
O24   P5    S    
Ba1   P2    S    
C23   O7    S    
C1    C12   S    
O18   P3    S    
Ba1   O1    S    
O14   P6    S    
C46   C47   D    
O7    P7    S    
C34   H13   S    
C8    H32   S    
C6    C13   A    
C11   H33   S    
C30   H43   S    
C38   P2    S    
Ba1   O20   S    
C6    H31   S    
C21   C26   A    
C45   H18   S    
C41   P5    S    
C56   H26   S    
C4    H39   S    
Ba1   O10   S    
C42   C43   A    
C28   H55   S    
C42   C48   A    
Ba2   O24   S    
C13   C22   S    
O23   P7    S    
C27   H41   S    
C51   O12   S    
C36   C46   S    
C34   N1    S    
C16   H51   S    
Ba1   O4    S    
C54   H21   S    
O2    P5    D    
C47   H46   S    
C50   H66   S    
C43   H52   S    
C41   C48   A    
H62   N2    S    
C52   H7    S    
C1    H4    S    
Ba2   O20   S    
Ba2   O19   S    
C12   H1    S    
C14   H35   S    
C4    H27   S    
O10   P6    S    
C48   H54   S    
C30   C31   A    
O22   P4    S    
C27   C29   A    
C50   H65   S    
O11   P6    D    
C55   C56   S    
C46   H49   S    
C52   H5    S    
C2    C57   A    
C40   H12   S    
C15   C17   A    
C20   C22   A    
C10   C57   A    
O15   P2    D    
O17   P3    D    
O6    P7    D    
C55   H22   S    
C8    C9    A    
C23   C34   S    
C39   H48   S    
C9    P1    S    
C5    C11   A    
C2    P4    S    
C23   H10   S    
C18   C19   A    
C24   C27   A    
C25   C26   A    
C20   C21   A    
C28   C40   S    
O3    P5    S    
C23   H11   S    
C3    H30   S    
C17   H37   S    
C28   O22   S    
C45   C54   S    
C53   H59   S    
