data_mof_unit_10772.cif
_audit_creation_date              2012-12-10T20:51:28-0500
_audit_creation_method            fapswitch 2.2
_symmetry_space_group_name_H-M    P1
_symmetry_Int_Tables_number       1
_space_group_crystal_system       triclinic
_cell_length_a                    17.519007
_cell_length_b                    8.916721
_cell_length_c                    8.114413
_cell_angle_alpha                 89.885598
_cell_angle_beta                  89.023712
_cell_angle_gamma                 90.035693
_cell_volume                      1267.38266546

loop_
_atom_site_label
_atom_site_type_symbol
_atom_type_description
_atom_site_fract_x
_atom_site_fract_y
_atom_site_fract_z
_atom_type_partial_charge
C1    C     C_R   0.500024 0.218046 0.500105 0.991087
C2    C     C_R   0.847375 0.375310 0.425228 -0.108791
C3    C     C_R   0.767088 0.636588 0.522266 0.233427
C4    C     C_R   0.232917 0.363397 0.477726 0.233430
C5    C     C_R   0.232222 0.627899 0.558569 0.234341
C6    C     C_R   0.767773 0.372080 0.441446 0.234345
C7    C     C_R   0.728656 0.501568 0.492509 -0.164305
C8    C     C_R   0.271344 0.498420 0.507492 -0.164304
C9    C     C_R   0.886415 0.508857 0.464613 -0.026442
C10   C     C_R   0.113586 0.491106 0.535396 -0.026438
C11   C     C_1   0.966601 0.502989 0.488276 0.174722
C12   C     C_R   0.499975 0.781954 0.499895 0.991078
C13   C     C_1   0.033399 0.496965 0.511735 0.174726
C14   C     C_2   0.887156 0.786958 0.529345 0.548775
C15   C     C_2   0.112854 0.213009 0.470641 0.548776
C16   C     C_2   0.111349 0.761085 0.632962 0.575079
C17   C     C_2   0.888642 0.238871 0.367072 0.575075
C18   C     C_1   0.500011 0.065230 0.500151 -0.061563
C19   C     C_1   0.499989 0.934770 0.499849 -0.061568
C20   C     C_R   0.353535 0.500291 0.501571 1.017425
C21   C     C_R   0.646465 0.499709 0.498429 1.017428
C22   C     C_R   0.846676 0.641931 0.505364 -0.089802
C23   C     C_R   0.153329 0.358040 0.494632 -0.089809
C24   C     C_R   0.152621 0.624656 0.574792 -0.108788
Cl1   Cl    Cl    0.714324 0.800467 0.572712 -0.585560
Cl2   Cl    Cl    0.285687 0.199528 0.427263 -0.585565
Cl3   Cl    Cl    0.283958 0.793612 0.603593 -0.581412
Cl4   Cl    Cl    0.716031 0.206372 0.396432 -0.581409
H1    H     H_    0.863782 0.871160 0.612175 0.127674
H2    H     H_    0.136231 0.128815 0.387805 0.127684
H3    H     H_    0.134193 0.871885 0.607085 0.131159
H4    H     H_    0.865794 0.128076 0.392959 0.131147
N1    N     N_1   0.500000 0.500000 0.073640 -0.003331
N2    N     N_1   0.500000 0.500000 0.926360 -0.003332
O1    O     O_R   0.500000 0.285350 0.636850 -0.619870
O2    O     O_2   0.054335 0.183656 0.548001 -0.542959
O3    O     O_2   0.052706 0.751003 0.715705 -0.536995
O4    O     O_2   0.947286 0.248938 0.284330 -0.536978
O5    O     O_R   0.500000 0.714650 0.363150 -0.619869
O6    O     O_R   0.500000 0.714650 0.636850 -0.598424
O7    O     O_R   0.500000 0.285350 0.363150 -0.598420
O8    O     O_R   0.389120 0.500000 0.636930 -0.598788
O9    O     O_R   0.610880 0.500000 0.363070 -0.598789
O10   O     O_R   0.610880 0.500000 0.636930 -0.600506
O11   O     O_R   0.389120 0.500000 0.363070 -0.600503
O12   O     O_2   0.945677 0.816299 0.451985 -0.542962
Zn1   Zn    Zn3+2 0.500000 0.500000 0.682780 1.085051
Zn2   Zn    Zn3+2 0.500000 0.500000 0.317220 1.085053

loop_
_geom_bond_atom_site_label_1
_geom_bond_atom_site_label_2
_ccdc_geom_bond_type
C12   O6    A    
O6    Zn1   S    
C20   O8    A    
C6    C7    A    
C10   C23   A    
C5    C8    A    
C21   O10   A    
C11   C13   T    
O9    Zn2   S    
C4    Cl2   S    
C20   O11   A    
O10   Zn1   S    
C16   O3    D    
C4    C8    A    
O1    Zn1   S    
C14   C22   S    
C12   O5    A    
C15   C23   S    
N1    N2    T    
C16   C24   S    
C21   O9    A    
C16   H3    S    
C7    C21   S    
C9    C11   S    
C1    C18   S    
C2    C6    A    
C5    C24   A    
C8    C20   S    
C12   C19   S    
C1    O7    A    
O7    Zn2   S    
C4    C23   A    
C3    C7    A    
O8    Zn1   S    
C9    C22   A    
C14   H1    S    
C15   O2    D    
C3    Cl1   S    
C17   O4    D    
C1    O1    A    
C15   H2    S    
C14   O12   D    
C18   C19   T    
O11   Zn2   S    
N1    Zn2   S    
C17   H4    S    
C3    C22   A    
N2    Zn1   S    
C10   C24   A    
C5    Cl3   S    
C2    C9    A    
C6    Cl4   S    
O5    Zn2   S    
C2    C17   S    
C10   C13   S    
