data_mof_unit_48102.cif
_audit_creation_date              2013-03-05T15:50:44-0500
_audit_creation_method            fapswitch 2.2
_symmetry_space_group_name_H-M    P1
_symmetry_Int_Tables_number       1
_space_group_crystal_system       triclinic
_cell_length_a                    10.682845
_cell_length_b                    12.037096
_cell_length_c                    12.900712
_cell_angle_alpha                 92.195882
_cell_angle_beta                  89.859665
_cell_angle_gamma                 85.729945
_cell_volume                      1653.06508952

loop_
_atom_site_label
_atom_site_type_symbol
_atom_site_description
_atom_site_fract_x
_atom_site_fract_y
_atom_site_fract_z
_atom_type_partial_charge
O1    O     O_R   0.506240 0.421700 0.658830 -0.580793
O2    O     O_R   0.491240 0.609310 0.646410 -0.626604
C1    C     C_R   0.495609 0.520529 0.700405 0.946925
O3    O     O_R   0.692710 0.406190 0.506230 -0.635485
O4    O     O_R   0.677700 0.593810 0.493810 -0.639772
C2    C     C_R   0.742002 0.500039 0.500266 0.857094
Zn1   Zn    Zn3+2 0.510020 0.374730 0.508290 1.002694
Zn2   Zn    Zn3+2 0.489980 0.625270 0.491710 0.966999
O5    O     O_R   0.508760 0.390690 0.353590 -0.635536
O6    O     O_R   0.493760 0.578300 0.341170 -0.621871
O7    O     O_R   0.322300 0.406190 0.506190 -0.581927
O8    O     O_R   0.307290 0.593810 0.493770 -0.612106
C3    C     C_R   0.504302 0.478453 0.300224 0.913429
C4    C     C_R   0.257395 0.499888 0.502441 0.963159
C5    C     C_3   0.927148 0.453494 0.605269 -0.430337
H1    H     H_    0.892946 0.369539 0.615630 0.209012
H2    H     H_    0.886575 0.507208 0.670974 0.191800
C6    C     C_3   0.072228 0.448423 0.606841 0.446935
H3    H     H_    0.905380 0.339885 0.413680 0.185301
H4    H     H_    0.116482 0.337640 0.415038 0.176835
C7    C     C_3   0.933287 0.426841 0.408803 -0.406587
C8    C     C_3   0.918061 0.620165 0.493978 -0.387258
C9    C     C_3   0.877740 0.499990 0.501815 0.040064
H5    H     H_    0.881542 0.657558 0.421257 0.193609
H6    H     H_    0.879596 0.673989 0.560535 0.210181
C10   C     C_3   0.120313 0.497771 0.503723 -0.040037
C11   C     C_3   0.077413 0.425281 0.409038 0.064939
C12   C     C_3   0.059879 0.618350 0.494526 -0.418181
H7    H     H_    0.090788 0.675365 0.557768 0.222628
H8    H     H_    0.088982 0.650325 0.420544 0.232070
H9    H     H_    0.894490 0.459646 0.335089 0.204959
C13   C     C_R   0.503733 0.463137 0.190261 -0.024727
C14   C     C_R   0.499195 0.529398 0.811835 -0.118249
C15   C     C_R   0.581648 0.619266 0.964066 -0.205518
C16   C     C_R   0.560196 0.617076 0.858534 -0.226653
C17   C     C_R   0.454820 0.444039 0.871088 0.229530
C18   C     C_R   0.474789 0.447288 0.977644 0.095078
C19   C     C_R   0.539592 0.535121 0.023638 0.128574
C20   C     C_R   0.557059 0.540076 0.129719 -0.266722
C21   C     C_R   0.444518 0.373752 0.145930 -0.157794
C22   C     C_R   0.430867 0.365154 0.040040 -0.123302
H10   H     H_    0.607956 0.605866 0.165694 0.139042
H11   H     H_    0.404670 0.312768 0.193440 0.171333
H12   H     H_    0.630249 0.686972 0.999224 0.163279
H13   H     H_    0.382539 0.295504 0.009493 0.198449
H14   H     H_    0.595644 0.681638 0.812705 0.190343
N1    N     N_R   0.523380 0.207800 0.519350 -0.120805
N2    N     N_R   0.476620 0.792180 0.480650 -0.128115
C23   C     C_R   0.397896 0.960686 0.397471 -0.312532
C24   C     C_R   0.404894 0.844714 0.405126 0.134789
C25   C     C_R   0.543512 0.856211 0.547859 -0.021287
C26   C     C_R   0.539449 0.974831 0.541171 0.014865
C27   C     C_R   0.464410 0.026138 0.464415 0.036616
C28   C     C_R   0.457197 0.142700 0.454911 -0.013206
C29   C     C_R   0.597531 0.160889 0.594537 0.027692
C30   C     C_R   0.607281 0.044539 0.607372 0.171721
H15   H     H_    0.398588 0.181909 0.396213 0.137527
H16   H     H_    0.649183 0.214300 0.645409 0.168846
H17   H     H_    0.340691 0.999859 0.337568 0.156830
H18   H     H_    0.600520 0.814503 0.605867 0.169731
Br1   Br    Br    0.139795 0.470286 0.275392 -0.569758
Br2   Br    Br    0.365742 0.323209 0.809140 -0.385459
Br3   Br    Br    0.713504 0.986731 0.715446 -0.509718
C31   C     C_R   0.331951 0.786823 0.326278 0.189416
C32   C     C_R   0.386194 0.759458 0.228532 -0.131488
C33   C     C_R   0.311374 0.730487 0.144270 -0.116280
C34   C     C_R   0.181297 0.732869 0.155824 -0.018347
C35   C     C_R   0.125755 0.767207 0.250848 -0.122510
C36   C     C_R   0.200706 0.796170 0.334978 -0.196261
H19   H     H_    0.485745 0.765447 0.216859 0.120869
H20   H     H_    0.353517 0.709817 0.069103 0.157657
H21   H     H_    0.123399 0.711247 0.090446 0.157712
H22   H     H_    0.024574 0.773149 0.258993 0.141654
H23   H     H_    0.156237 0.829241 0.406394 0.142709
Br4   Br    Br    0.127047 0.532391 0.729458 -0.470772
Br5   Br    Br    0.132911 0.292110 0.623870 -0.416892

loop_
_geom_bond_atom_site_label_1
_geom_bond_atom_site_label_2
_geom_bond_distance
_ccdc_geom_bond_type
C5    C6    1.546735 S    
C29   C30   1.412752 A    
C6    Br4   1.958814 S    
C24   C31   1.468980 S    
C3    C13   1.423601 S    
C6    C10   1.577664 S    
C27   C28   1.409500 A    
Zn1   O7    2.013372 S    
C7    H9    1.112814 S    
C10   C11   1.563354 S    
C12   H7    1.112578 S    
H3    C7    1.113476 S    
C15   C16   1.380719 A    
C19   C20   1.381256 A    
O7    C4    1.281810 A    
C1    C14   1.438221 S    
C5    H1    1.112528 S    
C14   C17   1.412686 A    
C5    H2    1.113046 S    
C34   H21   1.082297 S    
C13   C20   1.387111 A    
O5    C3    1.280884 A    
C11   Br1   1.957009 S    
O1    Zn1   2.001251 S    
C21   H11   1.084183 S    
C35   C36   1.399076 A    
C8    H6    1.114385 S    
C5    C9    1.545887 S    
C33   C34   1.395251 A    
C7    C11   1.538408 S    
C8    C12   1.513589 S    
O3    Zn1   2.015842 S    
C17   Br2   1.944330 S    
C20   H10   1.084143 S    
N2    C25   1.374887 A    
C25   C26   1.431181 A    
C15   H12   1.084126 S    
O3    C2    1.286240 A    
C35   H22   1.082533 S    
C34   C35   1.395268 A    
O1    C1    1.283138 A    
Zn1   N1    2.014346 S    
Zn2   N2    2.014106 S    
C18   C19   1.418465 A    
C33   H20   1.080562 S    
Zn2   O8    2.015842 S    
C30   Br3   1.918403 S    
C36   H23   1.083774 S    
C31   C36   1.402076 A    
C4    C10   1.466611 S    
N1    C28   1.356635 A    
C21   C22   1.374953 A    
O8    C4    1.293793 A    
C32   C33   1.399593 A    
C7    C9    1.550787 S    
C8    H5    1.114871 S    
C26   C27   1.407688 A    
N1    C29   1.366133 A    
Zn1   O5    2.012261 S    
C17   C18   1.391136 A    
C6    Br5   1.964558 S    
C15   C19   1.394311 A    
O2    Zn2   2.012262 S    
O6    C3    1.291158 A    
O4    Zn2   2.013371 S    
H4    C11   1.110838 S    
C10   C12   1.552911 S    
C23   H17   1.086429 S    
C31   C32   1.403761 A    
C12   H8    1.095552 S    
O2    C1    1.295839 A    
O4    C2    1.282523 A    
C23   C27   1.380460 A    
C2    C9    1.450212 S    
N2    C24   1.383837 A    
C14   C16   1.398946 A    
C13   C21   1.393133 A    
C18   C22   1.404902 A    
Zn2   O6    2.001251 S    
C23   C24   1.399690 A    
C29   H16   1.082020 S    
C22   H13   1.079290 S    
C8    C9    1.546632 S    
C25   H18   1.080952 S    
C32   H19   1.081825 S    
C16   H14   1.083906 S    
C26   C30   1.413221 A    
C28   H15   1.083465 S    
