data_mof_unit_41368.cif
_audit_creation_date              2012-12-10T19:47:51-0500
_audit_creation_method            fapswitch 2.2
_symmetry_space_group_name_H-M    P1
_symmetry_Int_Tables_number       1
_space_group_crystal_system       triclinic
_cell_length_a                    18.260031
_cell_length_b                    18.260031
_cell_length_c                    21.739046
_cell_angle_alpha                 90.00005
_cell_angle_beta                  90.00005
_cell_angle_gamma                 90.0
_cell_volume                      7248.42254529

loop_
_atom_site_label
_atom_site_type_symbol
_atom_type_description
_atom_site_fract_x
_atom_site_fract_y
_atom_site_fract_z
_atom_type_partial_charge
C1    C     C_R   0.000000 0.358736 0.000000 0.910849
C2    C     C_1   0.282234 0.000000 0.000000 -0.188126
C3    C     C_2   0.699051 0.817440 0.819884 0.487221
C4    C     C_2   0.817440 0.699051 0.180116 0.487221
C5    C     C_2   0.300949 0.817441 0.180116 0.487219
C6    C     C_2   0.182560 0.300949 0.180116 0.487221
C7    C     C_2   0.699050 0.182560 0.180116 0.487220
C8    C     C_2   0.317440 0.800950 0.319883 0.487220
C9    C     C_2   0.800949 0.682559 0.319884 0.487221
C10   C     C_2   0.682559 0.199051 0.319884 0.487219
C11   C     C_2   0.199050 0.317440 0.319884 0.487221
C12   C     C_2   0.317440 0.199051 0.680116 0.487221
C13   C     C_1   0.000000 0.717766 1.000000 -0.188126
C14   C     C_2   0.800949 0.317441 0.680116 0.487219
C15   C     C_2   0.682560 0.800949 0.680116 0.487221
C16   C     C_2   0.199050 0.682560 0.680116 0.487220
C17   C     C_1   0.717766 0.000000 1.000000 -0.188126
C18   C     C_1   0.500000 0.782234 0.500000 -0.188126
C19   C     C_1   0.782234 0.500000 0.500000 -0.188126
C20   C     C_1   0.500000 0.217766 0.500000 -0.188126
C21   C     C_1   0.217766 0.500000 0.500000 -0.188126
C22   C     C_R   1.000000 0.500000 0.879838 0.876487
C23   C     C_R   0.500000 1.000000 0.879838 0.876487
C24   C     C_R   1.000000 0.500000 0.120162 0.876486
C25   C     C_R   0.358736 0.000000 0.000000 0.910849
C26   C     C_R   0.500000 0.000000 0.120162 0.876486
C27   C     C_R   0.500000 0.000000 0.379838 0.876487
C28   C     C_R   1.000000 0.500000 0.379838 0.876487
C29   C     C_R   0.500000 0.000000 0.620162 0.876486
C30   C     C_R   1.000000 0.500000 0.620162 0.876487
C31   C     C_R   0.085691 0.605706 0.812616 -0.260028
C32   C     C_R   0.605705 0.914308 0.812616 -0.260028
C33   C     C_R   0.914308 0.394295 0.812615 -0.260028
C34   C     C_R   0.394294 0.085691 0.812616 -0.260028
C35   C     C_R   0.085692 0.394294 0.187384 -0.260028
C36   C     C_R   0.000000 0.641264 1.000000 0.910849
C37   C     C_R   0.605705 0.085692 0.187385 -0.260028
C38   C     C_R   0.914308 0.605705 0.187384 -0.260028
C39   C     C_R   0.394294 0.914309 0.187384 -0.260028
C40   C     C_R   0.585691 0.105705 0.312616 -0.260028
C41   C     C_R   0.105705 0.414308 0.312615 -0.260028
C42   C     C_R   0.414308 0.894295 0.312615 -0.260028
C43   C     C_R   0.894295 0.585691 0.312615 -0.260028
C44   C     C_R   0.585692 0.894294 0.687384 -0.260028
C45   C     C_R   0.105705 0.585692 0.687385 -0.260028
C46   C     C_R   0.414309 0.105705 0.687384 -0.260028
C47   C     C_R   0.641264 0.000000 1.000000 0.910849
C48   C     C_R   0.894294 0.414309 0.687384 -0.260028
C49   C     C_R   0.137950 0.648339 0.781928 0.014292
C50   C     C_R   0.648339 0.862050 0.781928 0.014291
C51   C     C_R   0.862050 0.351661 0.781927 0.014291
C52   C     C_R   0.351661 0.137950 0.781928 0.014291
C53   C     C_R   0.137950 0.351661 0.218072 0.014291
C54   C     C_R   0.648339 0.137950 0.218073 0.014291
C55   C     C_R   0.862050 0.648339 0.218072 0.014291
C56   C     C_R   0.351661 0.862050 0.218072 0.014292
C57   C     C_R   0.637950 0.148339 0.281928 0.014292
C58   C     C_R   0.500000 0.858736 0.500000 0.910849
C59   C     C_R   0.148339 0.362050 0.281928 0.014291
C60   C     C_R   0.362050 0.851661 0.281927 0.014291
C61   C     C_R   0.851661 0.637950 0.281928 0.014291
C62   C     C_R   0.637950 0.851661 0.718072 0.014291
C63   C     C_R   0.148339 0.637950 0.718073 0.014291
C64   C     C_R   0.362050 0.148339 0.718072 0.014291
C65   C     C_R   0.851661 0.362050 0.718072 0.014292
C66   C     C_R   0.140902 0.000000 0.000000 0.917008
C67   C     C_R   0.000000 0.859098 1.000000 0.917009
C68   C     C_R   0.859098 0.000000 1.000000 0.917009
C69   C     C_R   0.858736 0.500000 0.500000 0.910849
C70   C     C_R   0.000000 0.140902 0.000000 0.917008
C71   C     C_R   0.640902 0.500000 0.500000 0.917008
C72   C     C_R   0.500000 0.359098 0.500000 0.917009
C73   C     C_R   0.359098 0.500000 0.500000 0.917009
C74   C     C_R   0.500000 0.640902 0.500000 0.917008
C75   C     C_R   0.050517 0.545138 0.718043 0.088094
C76   C     C_R   0.545138 0.949482 0.718043 0.088094
C77   C     C_R   0.949482 0.454862 0.718042 0.088094
C78   C     C_R   0.454862 0.050518 0.718043 0.088094
C79   C     C_R   0.050518 0.454862 0.281957 0.088094
C80   C     C_R   0.500000 0.141264 0.500000 0.910849
C81   C     C_R   0.545138 0.050518 0.281958 0.088094
C82   C     C_R   0.949482 0.545138 0.281957 0.088094
C83   C     C_R   0.454862 0.949483 0.281957 0.088094
C84   C     C_R   0.550517 0.045138 0.218043 0.088094
C85   C     C_R   0.045138 0.449482 0.218043 0.088094
C86   C     C_R   0.449482 0.954862 0.218042 0.088094
C87   C     C_R   0.954862 0.550518 0.218043 0.088094
C88   C     C_R   0.550517 0.954862 0.781957 0.088094
C89   C     C_R   0.045138 0.550518 0.781957 0.088094
C90   C     C_R   0.449482 0.045138 0.781957 0.088094
C91   C     C_R   0.141264 0.500000 0.500000 0.910849
C92   C     C_R   0.954862 0.449483 0.781957 0.088094
C93   C     C_R   1.000000 0.500000 0.686329 -0.166806
C94   C     C_R   0.500000 0.000000 0.686329 -0.166806
C95   C     C_R   0.000000 0.500000 0.313671 -0.166806
C96   C     C_R   0.500000 0.000000 0.313671 -0.166806
C97   C     C_R   0.500000 0.000000 0.186329 -0.166806
C98   C     C_R   1.000000 0.500000 0.186329 -0.166806
C99   C     C_R   0.500000 1.000000 0.813671 -0.166806
C100  C     C_R   1.000000 0.500000 0.813671 -0.166806
C101  C     C_1   0.000000 0.217421 0.000000 -0.172583
C102  C     C_1   0.000000 0.282234 0.000000 -0.188126
C103  C     C_1   0.217421 0.000000 0.000000 -0.172583
C104  C     C_1   0.000000 0.782579 1.000000 -0.172583
C105  C     C_1   0.782579 0.000000 1.000000 -0.172583
C106  C     C_1   0.500000 0.717421 0.500000 -0.172583
C107  C     C_1   0.717421 0.500000 0.500000 -0.172583
C108  C     C_1   0.500000 0.282579 0.500000 -0.172583
C109  C     C_1   0.282579 0.500000 0.500000 -0.172583
C110  C     C_2   0.817440 0.300950 0.819884 0.487220
C111  C     C_2   0.300949 0.182560 0.819884 0.487221
C112  C     C_2   0.182559 0.699051 0.819884 0.487219
H1    H     H_    0.077907 0.615956 0.861162 0.146218
H2    H     H_    0.115956 0.422093 0.361161 0.146218
H3    H     H_    0.422093 0.884044 0.361161 0.146218
H4    H     H_    0.884044 0.577907 0.361161 0.146218
H5    H     H_    0.577907 0.884044 0.638838 0.146218
H6    H     H_    0.115956 0.577907 0.638839 0.146218
H7    H     H_    0.422093 0.115956 0.638839 0.146218
H8    H     H_    0.884044 0.422093 0.638838 0.146218
H9    H     H_    0.840373 0.278216 0.861829 0.041613
H10   H     H_    0.278216 0.159626 0.861829 0.041613
H11   H     H_    0.159626 0.721785 0.861829 0.041613
H12   H     H_    0.615956 0.922093 0.861161 0.146218
H13   H     H_    0.721784 0.840374 0.861829 0.041613
H14   H     H_    0.840374 0.721784 0.138171 0.041613
H15   H     H_    0.278215 0.840374 0.138171 0.041613
H16   H     H_    0.159626 0.278216 0.138171 0.041613
H17   H     H_    0.721784 0.159626 0.138171 0.041613
H18   H     H_    0.340373 0.778216 0.361829 0.041613
H19   H     H_    0.778216 0.659626 0.361829 0.041613
H20   H     H_    0.659626 0.221785 0.361829 0.041613
H21   H     H_    0.221784 0.340374 0.361829 0.041613
H22   H     H_    0.340374 0.221784 0.638171 0.041613
H23   H     H_    0.922093 0.384044 0.861161 0.146218
H24   H     H_    0.778215 0.340374 0.638170 0.041613
H25   H     H_    0.659626 0.778216 0.638171 0.041613
H26   H     H_    0.221784 0.659626 0.638171 0.041613
H27   H     H_    0.384044 0.077907 0.861161 0.146218
H28   H     H_    0.077907 0.384044 0.138839 0.146218
H29   H     H_    0.615956 0.077907 0.138839 0.146218
H30   H     H_    0.922093 0.615956 0.138839 0.146218
H31   H     H_    0.384044 0.922093 0.138838 0.146218
H32   H     H_    0.577907 0.115956 0.361162 0.146218
O1    O     O_R   0.939380 0.392670 0.000020 -0.618913
O2    O     O_R   0.892670 0.560620 0.500020 -0.618914
O3    O     O_R   0.560620 0.107330 0.500020 -0.618914
O4    O     O_R   0.107330 0.439380 0.500020 -0.618913
O5    O     O_R   0.439380 0.107330 0.499980 -0.618913
O6    O     O_R   0.892670 0.439380 0.499980 -0.618913
O7    O     O_R   0.560620 0.892670 0.499980 -0.618914
O8    O     O_R   0.107330 0.560620 0.499980 -0.618914
O9    O     O_R   0.939380 0.500000 0.908420 -0.616696
O10   O     O_R   0.500000 0.060620 0.908420 -0.616696
O11   O     O_R   0.060620 0.500000 0.908420 -0.616696
O12   O     O_R   0.392670 0.060620 0.000020 -0.618914
O13   O     O_R   0.500000 0.939380 0.908420 -0.616696
O14   O     O_R   0.939380 0.500000 0.091580 -0.616696
O15   O     O_R   0.500000 0.939380 0.091580 -0.616696
O16   O     O_R   0.060620 0.500000 0.091580 -0.616696
O17   O     O_R   0.500000 0.060620 0.091580 -0.616696
O18   O     O_R   0.439380 0.000000 0.408420 -0.616696
O19   O     O_R   1.000000 0.560620 0.408420 -0.616696
O20   O     O_R   0.560620 0.000000 0.408420 -0.616696
O21   O     O_R   1.000000 0.439380 0.408420 -0.616696
O22   O     O_R   0.439380 0.000000 0.591580 -0.616696
O23   O     O_R   0.060620 0.607330 0.000020 -0.618914
O24   O     O_R   0.000000 0.439380 0.591580 -0.616696
O25   O     O_R   0.560620 0.000000 0.591580 -0.616696
O26   O     O_R   0.000000 0.560620 0.591580 -0.616696
O27   O     O_R   0.107300 0.999970 0.948290 -0.614660
O28   O     O_R   0.999970 0.892700 0.948290 -0.614661
O29   O     O_R   0.892700 0.000030 0.948290 -0.614661
O30   O     O_R   0.000030 0.107300 0.948290 -0.614660
O31   O     O_R   0.107300 0.000030 0.051710 -0.614661
O32   O     O_R   0.999970 0.107300 0.051710 -0.614661
O33   O     O_R   0.892700 0.999970 0.051710 -0.614660
O34   O     O_R   0.607330 0.939380 0.000020 -0.618913
O35   O     O_R   0.000030 0.892700 0.051710 -0.614660
O36   O     O_R   0.607300 0.499970 0.448290 -0.614660
O37   O     O_R   0.499970 0.392700 0.448290 -0.614661
O38   O     O_R   0.392700 0.500030 0.448290 -0.614661
O39   O     O_R   0.500030 0.607300 0.448290 -0.614660
O40   O     O_R   0.607300 0.500030 0.551710 -0.614661
O41   O     O_R   0.499970 0.607300 0.551710 -0.614661
O42   O     O_R   0.392700 0.499970 0.551710 -0.614660
O43   O     O_R   0.500030 0.392700 0.551710 -0.614660
O44   O     O_2   0.753719 0.287538 0.807229 -0.509508
O45   O     O_R   0.939380 0.607330 0.999980 -0.618913
O46   O     O_2   0.287538 0.246281 0.807229 -0.509508
O47   O     O_2   0.246280 0.712462 0.807230 -0.509507
O48   O     O_2   0.712462 0.753719 0.807229 -0.509508
O49   O     O_2   0.753719 0.712462 0.192771 -0.509508
O50   O     O_2   0.287538 0.753720 0.192770 -0.509507
O51   O     O_2   0.246281 0.287538 0.192771 -0.509508
O52   O     O_2   0.712462 0.246281 0.192771 -0.509507
O53   O     O_2   0.253719 0.787538 0.307229 -0.509508
O54   O     O_2   0.787538 0.746281 0.307229 -0.509508
O55   O     O_2   0.746280 0.212462 0.307230 -0.509507
O56   O     O_R   0.392670 0.939380 0.999980 -0.618913
O57   O     O_2   0.212462 0.253719 0.307229 -0.509508
O58   O     O_2   0.253719 0.212462 0.692771 -0.509508
O59   O     O_2   0.787538 0.253719 0.692770 -0.509507
O60   O     O_2   0.746281 0.787538 0.692771 -0.509508
O61   O     O_2   0.212462 0.746281 0.692771 -0.509507
O62   O     O_R   0.060620 0.392670 0.999980 -0.618914
O63   O     O_R   0.607330 0.060620 0.999980 -0.618914
O64   O     O_R   0.439380 0.892670 0.500020 -0.618913
Zn1   Zn    Zn3+2 0.919060 0.500000 0.000000 1.002093
Zn2   Zn    Zn3+2 1.000000 1.000000 0.069040 1.011637
Zn3   Zn    Zn3+2 0.500000 0.500000 0.430960 1.011637
Zn4   Zn    Zn3+2 0.500000 0.500000 0.569040 1.011637
Zn5   Zn    Zn3+2 0.500000 0.080940 0.000000 1.002093
Zn6   Zn    Zn3+2 0.080940 0.500000 0.000000 1.002093
Zn7   Zn    Zn3+2 0.500000 0.919060 0.000000 1.002093
Zn8   Zn    Zn3+2 0.419060 0.000000 0.500000 1.002093
Zn9   Zn    Zn3+2 0.000000 0.580940 0.500000 1.002093
Zn10  Zn    Zn3+2 0.580940 0.000000 0.500000 1.002093
Zn11  Zn    Zn3+2 0.000000 0.419060 0.500000 1.002093
Zn12  Zn    Zn3+2 0.000000 0.000000 0.930960 1.011637

loop_
_geom_bond_atom_site_label_1
_geom_bond_atom_site_label_2
_ccdc_geom_bond_type
C45   H6    S    
C29   O22   A    
C23   C99   S    
C77   C92   A    
C101  C102  T    
C49   C63   A    
O42   Zn4   S    
C111  H10   S    
C35   C53   A    
C32   H12   S    
C5    C56   S    
C1    O1    A    
C41   H2    S    
C110  O44   D    
C10   O55   D    
C34   C90   A    
C15   O60   D    
C27   C96   S    
C70   C101  S    
C48   H8    S    
O18   Zn8   S    
C78   C90   A    
O35   Zn2   S    
C92   C100  A    
C37   H29   S    
O34   Zn7   S    
C28   C95   S    
C24   C98   S    
C69   O6    A    
C44   H5    S    
O41   Zn4   S    
C72   O37   A    
C47   O34   A    
C71   C107  S    
C11   H21   S    
C27   O18   A    
C11   O57   D    
C29   C94   S    
C12   C64   S    
C24   O14   A    
O39   Zn3   S    
C82   C87   A    
C32   C88   A    
C55   C61   A    
C34   H27   S    
O63   Zn5   S    
O56   Zn7   S    
C51   C65   A    
O31   Zn2   S    
C44   C76   A    
C86   C97   A    
C68   O33   A    
C30   O26   A    
C85   C98   A    
C76   C94   A    
O2    Zn9   S    
C18   C58   S    
C80   O3    A    
C38   C55   A    
C72   C108  S    
O9    Zn1   S    
C31   C89   A    
O6    Zn11  S    
C37   C84   A    
C40   C57   A    
C16   C63   S    
C12   O58   D    
C48   C65   A    
C76   C88   A    
O27   Zn12  S    
O28   Zn12  S    
C74   O41   A    
O62   Zn6   S    
O14   Zn1   S    
O25   Zn10  S    
O64   Zn8   S    
C12   H22   S    
O8    Zn9   S    
C25   O12   A    
C69   O2    A    
C38   H30   S    
C8    O53   D    
C4    O49   D    
C31   C49   A    
O10   Zn5   S    
C11   C59   S    
C40   C81   A    
C20   C108  T    
C6    O51   D    
C3    C50   S    
C67   C104  S    
O40   Zn4   S    
O1    Zn1   S    
C22   O11   A    
C9    H19   S    
C53   C59   A    
C80   O5    A    
O13   Zn7   S    
O15   Zn7   S    
C20   C80   S    
C89   C100  A    
C36   O45   A    
C58   O7    A    
C66   O27   A    
C10   C57   S    
C22   C100  S    
C41   C59   A    
C13   C36   S    
C16   O61   D    
C52   C64   A    
C33   C92   A    
C42   C60   A    
C46   C78   A    
C81   C96   A    
O21   Zn11  S    
C22   O9    A    
C74   O39   A    
C52   C111  S    
C44   C62   A    
C45   C63   A    
C36   O23   A    
C33   C51   A    
C56   C60   A    
O36   Zn3   S    
C46   C64   A    
C71   O36   A    
O11   Zn6   S    
C18   C106  T    
C72   O43   A    
C79   C95   A    
C17   C105  T    
C27   O20   A    
C74   C106  S    
C91   O4    A    
C33   H23   S    
C39   C56   A    
C71   O40   A    
C58   O64   A    
O16   Zn6   S    
C14   O59   D    
C5    H15   S    
O33   Zn2   S    
C24   O16   A    
O7    Zn10  S    
C26   O15   A    
C13   C104  T    
O26   Zn9   S    
C1    O62   A    
C70   O30   A    
C32   C50   A    
C45   C75   A    
C28   O21   A    
C112  H11   S    
C49   C112  S    
C15   C62   S    
C37   C54   A    
O19   Zn9   S    
C39   H31   S    
C51   C110  S    
C40   H32   S    
C4    C55   S    
C73   O42   A    
C50   C62   A    
C9    C61   S    
C66   O31   A    
C19   C69   S    
O30   Zn12  S    
C68   C105  S    
C84   C97   A    
C6    C53   S    
C90   C99   A    
C79   C85   A    
C81   C84   A    
C9    O54   D    
C75   C93   A    
C21   C91   S    
O20   Zn10  S    
O17   Zn5   S    
C82   C95   A    
C66   C103  S    
C16   H26   S    
C42   C83   A    
C17   C47   S    
C41   C79   A    
C21   C109  T    
C68   O29   A    
C3    H13   S    
C43   H4    S    
C73   C109  S    
C47   O63   A    
C67   O28   A    
C30   C93   S    
C26   O17   A    
C34   C52   A    
C7    C54   S    
C4    H14   S    
C38   C87   A    
O37   Zn3   S    
C87   C98   A    
O5    Zn8   S    
C6    H16   S    
C110  H9    S    
O3    Zn10  S    
C67   O35   A    
C3    O48   D    
C8    C60   S    
C112  O47   D    
C8    H18   S    
C73   O38   A    
C35   C85   A    
C43   C61   A    
C48   C77   A    
C91   O8    A    
C14   H24   S    
C2    C103  T    
C78   C94   A    
C83   C96   A    
C23   O13   A    
C77   C93   A    
O38   Zn3   S    
C14   C65   S    
O32   Zn2   S    
C46   H7    S    
C2    C25   S    
O24   Zn11  S    
O4    Zn11  S    
C10   H20   S    
C7    H17   S    
C88   C99   A    
C75   C89   A    
C26   C97   S    
C30   O24   A    
C35   H28   S    
C42   H3    S    
C83   C86   A    
O43   Zn4   S    
O29   Zn12  S    
C111  O46   D    
C23   O10   A    
O22   Zn8   S    
O12   Zn5   S    
C25   O56   A    
C43   C82   A    
O45   Zn1   S    
O23   Zn6   S    
C29   O25   A    
C7    O52   D    
C70   O32   A    
C1    C102  S    
C31   H1    S    
C28   O19   A    
C39   C86   A    
C5    O50   D    
C15   H25   S    
C54   C57   A    
C19   C107  T    
