data_mof_unit_52234.cif
_audit_creation_date              2012-12-10T17:21:15-0500
_audit_creation_method            fapswitch 2.2
_symmetry_space_group_name_H-M    P1
_symmetry_Int_Tables_number       1
_space_group_crystal_system       triclinic
_cell_length_a                    10.15929
_cell_length_b                    10.914384
_cell_length_c                    11.077368
_cell_angle_alpha                 91.898485
_cell_angle_beta                  94.853178
_cell_angle_gamma                 81.773283
_cell_volume                      1211.0118957

loop_
_atom_site_label
_atom_site_type_symbol
_atom_type_description
_atom_site_fract_x
_atom_site_fract_y
_atom_site_fract_z
_atom_type_partial_charge
C1    C     C_R   0.445845 0.511130 0.268489 0.928475
C2    C     C_2   0.936559 0.487375 0.520640 0.077927
C3    C     C_R   0.498023 0.258249 0.500827 0.921491
C4    C     C_R   0.553837 0.491066 0.731337 0.997143
C5    C     C_R   0.498839 0.742203 0.495215 0.941330
C6    C     C_3   0.567192 0.057933 0.392571 -0.203659
C7    C     C_3   0.538555 0.922040 0.368318 -0.114280
C8    C     C_3   0.576476 0.068907 0.626939 -0.149193
C9    C     C_3   0.338529 0.093141 0.492796 -0.058940
C10   C     C_3   0.492379 0.122703 0.505053 -0.137613
C11   C     C_2   0.507257 0.122546 0.740145 1.082452
C12   C     C_3   0.496843 0.879195 0.497750 -0.144770
C13   C     C_2   0.585937 0.856150 0.734325 0.992948
C14   C     C_2   0.347765 0.436479 0.893470 0.971794
C15   C     C_2   0.313626 0.629007 0.095130 0.908771
C16   C     C_2   0.917563 0.505119 0.650308 0.924530
C17   C     C_2   0.078563 0.508944 0.346770 1.025310
C18   C     C_2   0.566453 0.129641 0.275946 0.889075
C19   C     C_2   0.658450 0.843292 0.311161 0.992065
C20   C     C_2   0.750631 0.871073 0.602068 0.905765
C21   C     C_2   0.233905 0.171792 0.570704 0.928563
C22   C     C_2   0.222837 0.900475 0.442166 0.951845
C23   C     C_3   0.600325 0.918409 0.613405 -0.255715
C24   C     C_3   0.343250 0.948815 0.517715 -0.027672
C25   C     C_2   0.422001 0.529706 0.138793 -0.268032
C26   C     C_2   0.512079 0.472143 0.063092 0.009304
C27   C     C_2   0.577935 0.493536 0.861860 -0.053791
C28   C     C_2   0.481265 0.472856 0.933848 0.074416
C29   C     C_2   0.069601 0.504059 0.478326 -0.048722
H1    H     H_    0.673370 0.048307 0.423330 0.159126
H2    H     H_    0.709926 0.616059 0.883118 0.216508
H3    H     H_    0.255197 0.772110 0.982730 0.370598
H4    H     H_    0.900524 0.624105 0.792665 0.339362
H5    H     H_    0.129728 0.418453 0.192282 0.363117
H6    H     H_    0.848983 0.381460 0.281938 0.195216
H7    H     H_    0.838887 0.277050 0.387517 0.258563
H8    H     H_    0.460867 0.215525 0.131977 0.360534
H9    H     H_    0.122320 0.682407 0.677805 0.235056
H10   H     H_    0.029304 0.713831 0.544292 0.238751
H11   H     H_    0.417010 0.827350 0.251331 0.235032
H12   H     H_    0.224324 0.979250 0.667115 0.232369
H13   H     H_    0.449915 0.953670 0.192407 0.223952
H14   H     H_    0.729379 0.683565 0.226356 0.366885
H15   H     H_    0.775274 0.093280 0.579658 0.227795
H16   H     H_    0.752607 0.107306 0.729355 0.274932
H17   H     H_    0.940809 0.867277 0.677290 0.362228
H18   H     H_    0.187826 0.285546 0.712432 0.374415
H19   H     H_    0.189536 0.101292 0.344832 0.247531
H20   H     H_    0.278426 0.215963 0.353728 0.272172
H21   H     H_    0.022086 0.908133 0.417432 0.393738
H22   H     H_    0.303774 0.840538 0.659977 0.248214
H23   H     H_    0.399964 0.104244 0.882942 0.388166
H24   H     H_    0.637814 0.847368 0.914835 0.362334
H25   H     H_    0.159502 0.489037 0.822680 0.340424
H26   H     H_    0.625741 0.335709 0.163972 0.243284
H27   H     H_    0.701480 0.462825 0.139980 0.233004
H28   H     H_    0.779686 0.464654 0.885344 0.250022
N1    N     N_2   0.157300 0.551950 0.551120 -0.111748
N2    N     N_3   0.286517 0.120884 0.366208 -0.375926
N3    N     N_2   0.842730 0.448000 0.448950 -0.132244
N4    N     N_3   0.316007 0.931739 0.644890 -0.401682
N5    N     N_3   0.638151 0.401745 0.102591 -0.395730
N6    N     N_3   0.701596 0.528548 0.914289 -0.438990
N7    N     N_3   0.885108 0.352937 0.368605 -0.348512
N8    N     N_3   0.122918 0.676426 0.583656 -0.350081
N9    N     N_3   0.427340 0.919358 0.274029 -0.383267
N10   N     N_3   0.705327 0.120950 0.642157 -0.407168
O1    O     O_R   0.568940 0.489540 0.307530 -0.631787
O2    O     O_R   0.432611 0.056782 0.808554 -0.764827
O3    O     O_2   0.525863 0.767507 0.738447 -0.658173
O4    O     O_R   0.652770 0.895411 0.841583 -0.729251
O5    O     O_2   0.320671 0.337217 0.924459 -0.626688
O6    O     O_R   0.248085 0.521734 0.836295 -0.770782
O7    O     O_2   0.207953 0.645535 0.141955 -0.529950
O8    O     O_R   0.335248 0.707411 0.003540 -0.760730
O9    O     O_2   0.929903 0.414324 0.714089 -0.638431
O10   O     O_R   0.891962 0.623819 0.700980 -0.813685
O11   O     O_2   0.027653 0.602228 0.293281 -0.556871
O12   O     O_R   0.348880 0.522880 0.340350 -0.570594
O13   O     O_R   0.134309 0.404735 0.282690 -0.802361
O14   O     O_2   0.672138 0.130782 0.230859 -0.599025
O15   O     O_R   0.448157 0.185551 0.215175 -0.808409
O16   O     O_2   0.760704 0.886491 0.296723 -0.551118
O17   O     O_R   0.646188 0.724565 0.264058 -0.798955
O18   O     O_2   0.789948 0.803196 0.519861 -0.603503
O19   O     O_R   0.845520 0.898138 0.695057 -0.753608
O20   O     O_2   0.114909 0.174874 0.539842 -0.585636
O21   O     O_R   0.268455 0.240580 0.673680 -0.747822
O22   O     O_2   0.236565 0.822698 0.360887 -0.564084
O23   O     O_R   0.610030 0.298130 0.483570 -0.629805
O24   O     O_R   0.092892 0.944760 0.471382 -0.791190
O25   O     O_R   0.389960 0.331470 0.516390 -0.608924
O26   O     O_R   0.651120 0.477120 0.659650 -0.599566
O27   O     O_R   0.431060 0.510460 0.692470 -0.563259
O28   O     O_R   0.610040 0.668530 0.483610 -0.553763
O29   O     O_R   0.389970 0.701870 0.516430 -0.595933
O30   O     O_2   0.521949 0.227745 0.774229 -0.632392
Zn1   Zn    Zn3+2 0.646940 0.477740 0.478080 1.035973
Zn2   Zn    Zn3+2 0.353060 0.522260 0.521920 1.076352

loop_
_geom_bond_atom_site_label_1
_geom_bond_atom_site_label_2
_ccdc_geom_bond_type
C15   O8    S    
C21   O20   D    
C24   N4    S    
C17   C29   S    
H22   N4    S    
H12   N4    S    
H4    O10   S    
C1    O1    A    
H3    O8    S    
O28   Zn1   S    
C12   C23   S    
C3    O23   A    
O12   Zn2   S    
N3    Zn1   S    
C2    N3    D    
C15   C25   S    
C13   O3    D    
O29   Zn2   S    
C8    C23   S    
C13   C23   S    
C16   O10   S    
H23   O2    S    
H5    O13   S    
C20   O19   S    
H16   N10   S    
C22   O24   S    
H9    N8    S    
H6    N7    S    
C2    C16   S    
C9    C10   S    
C21   O21   S    
H11   N9    S    
C1    C25   S    
H14   O17   S    
H10   N8    S    
C19   O16   D    
C5    O28   A    
H28   N6    S    
C7    C12   S    
C6    C18   S    
C14   O6    S    
H2    N6    S    
C5    C12   S    
C13   O4    S    
C25   C26   D    
C17   O13   S    
C3    O25   A    
C9    N2    S    
H25   O6    S    
N1    N8    S    
C20   C23   S    
C20   O18   D    
C29   N1    D    
C27   N6    S    
C4    O27   A    
C6    H1    S    
C7    C19   S    
C18   O14   D    
C2    C29   S    
C1    O12   A    
H27   N5    S    
H8    O15   S    
C19   O17   S    
H24   O4    S    
C5    O29   A    
H19   N2    S    
C16   O9    D    
C14   O5    D    
N1    Zn2   S    
C6    C10   S    
C11   O2    S    
C9    C24   S    
C6    C7    S    
C12   C24   S    
C26   C28   S    
H20   N2    S    
C11   O30   D    
N3    N7    S    
H18   O21   S    
C26   N5    S    
C3    C10   S    
C7    N9    S    
C9    C21   S    
O27   Zn2   S    
C8    C11   S    
C17   O11   D    
C18   O15   S    
C22   O22   D    
C4    C27   S    
C22   C24   S    
O1    Zn1   S    
C4    O26   A    
H21   O24   S    
C15   O7    D    
H26   N5    S    
C8    N10   S    
C8    C10   S    
C27   C28   D    
H13   N9    S    
H15   N10   S    
C14   C28   S    
H7    N7    S    
O26   Zn1   S    
O23   Zn1   S    
O25   Zn2   S    
H17   O19   S    
