data_mof_unit_61111.cif
_audit_creation_date              2012-12-10T19:58:41-0500
_audit_creation_method            fapswitch 2.2
_symmetry_space_group_name_H-M    P1
_symmetry_Int_Tables_number       1
_space_group_crystal_system       triclinic
_cell_length_a                    14.972139
_cell_length_b                    14.270805
_cell_length_c                    19.275567
_cell_angle_alpha                 90.00017
_cell_angle_beta                  91.163542
_cell_angle_gamma                 90.000017
_cell_volume                      4117.65471787

loop_
_atom_site_label
_atom_site_type_symbol
_atom_type_description
_atom_site_fract_x
_atom_site_fract_y
_atom_site_fract_z
_atom_type_partial_charge
C1    C     C_R   0.327972 0.499990 0.499900 0.969565
C2    C     C_R   0.672028 0.499990 0.500099 0.969567
C3    C     C_R   0.185361 0.573945 0.468570 -0.231270
C4    C     C_R   0.812839 0.425627 0.468961 -0.228419
C5    C     C_R   0.814640 0.573947 0.531427 -0.231268
C6    C     C_R   0.187161 0.425628 0.531040 -0.228417
C7    C     C_R   0.232159 0.499878 0.499839 -0.243802
C8    C     C_R   0.767841 0.499878 0.500161 -0.243804
C9    C     C_R   0.048073 0.499676 0.499914 -0.137979
C10   C     C_R   0.951928 0.499676 0.500084 -0.137979
C11   C     C_R   0.427906 0.105186 0.471586 0.576243
C12   C     C_R   0.537366 0.894786 0.555700 0.578103
C13   C     C_R   0.572093 0.105186 0.528414 0.576243
C14   C     C_R   0.462634 0.894786 0.444300 0.578101
C15   C     C_R   0.432264 0.203577 0.467523 0.291529
C16   C     C_R   0.542542 0.796397 0.552261 0.295089
C17   C     C_R   0.567736 0.203577 0.532477 0.291530
C18   C     C_R   0.457458 0.796396 0.447739 0.295092
C19   C     C_R   0.500000 0.053243 0.500000 -0.193797
C20   C     C_R   0.500000 0.946731 0.500000 -0.192595
C21   C     C_R   0.499929 0.499979 0.365778 0.932592
C22   C     C_R   0.500070 0.499979 0.634222 0.932591
C23   C     C_R   0.513610 0.415754 0.745858 -0.180300
C24   C     C_R   0.513093 0.583751 0.254312 -0.164881
C25   C     C_R   0.486380 0.415754 0.254142 -0.180321
C26   C     C_R   0.486901 0.583751 0.745688 -0.164866
C27   C     C_R   0.513847 0.415227 0.817776 0.385126
C28   C     C_R   0.513038 0.583934 0.182401 0.385489
C29   C     C_R   0.486136 0.415229 0.182224 0.385158
C30   C     C_R   0.486950 0.583933 0.817599 0.385465
C31   C     C_R   0.500426 0.499487 0.853599 -0.145175
C32   C     C_R   0.499556 0.499490 0.146402 -0.145223
C33   C     C_R   0.500211 0.499853 0.709590 -0.188533
C34   C     C_R   0.499784 0.499853 0.290410 -0.188528
C35   C     C_R   0.418762 0.499360 0.962634 -0.068021
C36   C     C_R   0.581219 0.499132 0.037370 -0.068038
C37   C     C_R   0.418533 0.499326 0.034508 -0.054441
C38   C     C_R   0.581448 0.499097 0.965496 -0.054431
C39   C     C_R   0.499764 0.499267 0.071514 0.157614
C40   C     C_R   0.500218 0.499265 0.928489 0.157585
C41   C     C_R   0.093109 0.573520 0.468005 0.700602
C42   C     C_R   0.905051 0.425859 0.468307 0.708746
C43   C     C_R   0.906892 0.573522 0.531991 0.700600
C44   C     C_R   0.094949 0.425861 0.531693 0.708746
H1    H     H_    0.524161 0.350467 0.718529 0.229786
H2    H     H_    0.523994 0.649115 0.281758 0.231901
H3    H     H_    0.475827 0.350467 0.281471 0.229787
H4    H     H_    0.476006 0.649115 0.718241 0.231903
H5    H     H_    0.356036 0.499461 0.933599 0.169452
H6    H     H_    0.643945 0.499059 0.066406 0.169424
H7    H     H_    0.355635 0.499468 0.061329 0.173289
H8    H     H_    0.644347 0.499063 0.938676 0.173312
H9    H     H_    0.220108 0.631023 0.443703 0.238828
H10   H     H_    0.776645 0.368580 0.444156 0.217013
H11   H     H_    0.779893 0.631026 0.556292 0.238828
H12   H     H_    0.223354 0.368582 0.555846 0.217012
N1    N     N_R   0.500000 0.252470 0.500000 -0.237131
N2    N     N_R   0.500000 0.747530 0.500000 -0.232130
O1    O     O_R   0.369060 0.579480 0.500010 -0.594097
O2    O     O_R   0.630940 0.420520 0.499990 -0.576895
O3    O     O_R   0.630940 0.579480 0.499990 -0.594097
O4    O     O_R   0.369060 0.420520 0.500010 -0.576894
O5    O     O_R   0.500020 0.579510 0.398180 -0.582887
O6    O     O_R   0.499980 0.420490 0.601820 -0.600481
O7    O     O_R   0.499980 0.579510 0.601820 -0.582888
O8    O     O_R   0.500020 0.420490 0.398180 -0.600483
Zn1   Zn    Zn3+2 0.500000 0.606140 0.500000 1.065128
Zn2   Zn    Zn3+2 0.500000 0.393860 0.500000 1.063358
Cl1   Cl    Cl    0.530115 0.307918 0.861509 -0.447807
Cl2   Cl    Cl    0.529205 0.691031 0.138871 -0.443636
Cl3   Cl    Cl    0.469845 0.307927 0.138487 -0.447766
Cl4   Cl    Cl    0.470799 0.691036 0.861125 -0.443668
F1    F     F_    0.047731 0.644062 0.435734 -0.571857
F2    F     F_    0.948556 0.355224 0.435996 -0.568513
F3    F     F_    0.952269 0.644065 0.564260 -0.571856
F4    F     F_    0.051443 0.355227 0.564005 -0.568513
F5    F     F_    0.352057 0.061724 0.449050 -0.504323
F6    F     F_    0.567208 0.938235 0.614381 -0.505899
F7    F     F_    0.647942 0.061724 0.550949 -0.504324
F8    F     F_    0.432791 0.938234 0.385619 -0.505901
Cl5   Cl    Cl    0.349887 0.260864 0.417196 -0.404631
Cl6   Cl    Cl    0.608216 0.739017 0.615632 -0.433494
Cl7   Cl    Cl    0.650113 0.260864 0.582804 -0.404633
Cl8   Cl    Cl    0.391784 0.739016 0.384368 -0.433506

loop_
_geom_bond_atom_site_label_1
_geom_bond_atom_site_label_2
_ccdc_geom_bond_type
O8    Zn2   S    
C13   F7    S    
C23   H1    S    
C21   O8    A    
C10   C42   A    
C14   C18   A    
C19   C20   S    
C4    C8    A    
C1    O4    A    
C15   Cl5   S    
C11   C19   A    
O6    Zn2   S    
C35   C37   A    
C29   C32   A    
C3    C7    A    
C1    O1    A    
C30   C31   A    
C37   H7    S    
C2    O2    A    
C38   H8    S    
C31   C40   S    
C32   C39   S    
C44   F4    S    
C11   F5    S    
O1    Zn1   S    
C11   C15   A    
C18   N2    A    
C12   C16   A    
C23   C33   A    
C12   F6    S    
C35   H5    S    
C18   Cl8   S    
C14   F8    S    
C9    C10   S    
C25   H3    S    
C27   Cl1   S    
C2    O3    A    
C26   H4    S    
C25   C34   A    
C5    C43   A    
C6    C44   A    
C43   F3    S    
C15   N1    A    
C25   C29   A    
O5    Zn1   S    
C42   F2    S    
C13   C19   A    
C27   C31   A    
C14   C20   A    
C28   C32   A    
C21   C34   S    
O7    Zn1   S    
C22   O6    A    
C24   C34   A    
C17   Cl7   S    
C22   O7    A    
O3    Zn1   S    
C26   C33   A    
C12   C20   A    
C16   Cl6   S    
C16   N2    A    
C26   C30   A    
C23   C27   A    
N1    Zn2   S    
C36   H6    S    
C22   C33   S    
C3    C41   A    
C9    C44   A    
C4    H10   S    
C10   C43   A    
C1    C7    S    
C5    H11   S    
C36   C39   A    
C28   Cl2   S    
C24   C28   A    
C6    H12   S    
C5    C8    A    
C30   Cl4   S    
C6    C7    A    
C13   C17   A    
C9    C41   A    
O4    Zn2   S    
C24   H2    S    
C36   C38   A    
C35   C40   A    
C37   C39   A    
C38   C40   A    
C3    H9    S    
C4    C42   A    
C21   O5    A    
C41   F1    S    
N2    Zn1   S    
O2    Zn2   S    
C2    C8    S    
C17   N1    A    
C29   Cl3   S    
