data_mof_unit_43426.cif
_audit_creation_date              2012-12-10T17:29:24-0500
_audit_creation_method            fapswitch 2.2
_symmetry_space_group_name_H-M    P1
_symmetry_Int_Tables_number       1
_space_group_crystal_system       triclinic
_cell_length_a                    12.070092
_cell_length_b                    12.901558
_cell_length_c                    13.174751
_cell_angle_alpha                 85.514807
_cell_angle_beta                  113.116999
_cell_angle_gamma                 92.967932
_cell_volume                      1880.60223053

loop_
_atom_site_label
_atom_site_type_symbol
_atom_type_description
_atom_site_fract_x
_atom_site_fract_y
_atom_site_fract_z
_atom_type_partial_charge
C1    C     C_R   0.475534 0.300009 0.493108 0.961275
C2    C     C_R   0.603954 0.529878 0.824309 -0.154310
C3    C     C_R   0.535994 0.811132 0.505405 -0.036874
C4    C     C_R   0.565927 0.506862 0.707253 0.882446
C5    C     C_R   0.457805 0.189201 0.482155 -0.219980
C6    C     C_R   0.335344 0.032926 0.431043 -0.236828
C7    C     C_R   0.342291 0.140535 0.432830 0.443870
C8    C     C_R   0.562316 0.130569 0.520576 -0.270879
C9    C     C_R   0.554571 0.024517 0.514237 0.166291
C10   C     C_R   0.440147 0.975461 0.471405 0.068244
C11   C     C_R   0.431688 0.869085 0.468576 -0.169673
C12   C     C_R   0.549090 0.551955 0.981336 0.110174
C13   C     C_R   0.650221 0.859498 0.545364 -0.167536
C14   C     C_R   0.659548 0.966615 0.550688 -0.149606
C15   C     C_R   0.000955 0.592616 0.389570 -0.295976
C16   C     C_R   0.522760 0.700128 0.503434 0.933809
C17   C     C_R   0.119969 0.584658 0.397567 0.544555
C18   C     C_R   0.162876 0.463540 0.552572 -0.045790
C19   C     C_R   0.041741 0.469137 0.542794 0.010449
C20   C     C_R   0.960295 0.534749 0.461058 -0.007714
C21   C     C_R   0.839059 0.540082 0.451165 -0.086977
C22   C     C_R   0.879856 0.414486 0.601769 0.475295
C23   C     C_R   0.518185 0.559618 0.866118 0.090974
C24   C     C_R   0.000314 0.409829 0.612818 -0.307621
C25   C     C_R   0.434469 0.508015 0.291692 0.970981
C26   C     C_R   0.245450 0.521851 0.986378 -0.157182
C27   C     C_R   0.396228 0.526977 0.172671 -0.182688
C28   C     C_R   0.723052 0.511861 0.897710 -0.141205
C29   C     C_R   0.754984 0.511683 0.011335 -0.098530
C30   C     C_R   0.667955 0.527139 0.053094 -0.116318
C31   C     C_R   0.456242 0.557991 0.020377 -0.004181
C32   C     C_R   0.334687 0.551198 0.946101 0.121267
C33   C     C_R   0.306548 0.576279 0.834534 -0.198791
C34   C     C_R   0.399542 0.591452 0.797347 -0.164316
C35   C     C_R   0.479294 0.571755 0.130452 0.326175
C36   C     C_R   0.279241 0.500112 0.099851 -0.123444
H1    H     H_    0.214195 0.465198 0.130548 0.239342
H2    H     H_    0.225225 0.412796 0.616581 0.168901
H3    H     H_    0.152570 0.510050 0.930462 0.187227
H4    H     H_    0.790373 0.493415 0.867484 0.222243
H5    H     H_    0.692993 0.514508 0.141354 0.163731
H6    H     H_    0.846124 0.493561 0.067432 0.194536
H7    H     H_    0.375351 0.623964 0.713643 0.176724
H8    H     H_    0.343249 0.831750 0.437632 0.204662
H9    H     H_    0.022268 0.171852 0.258146 0.394301
H10   H     H_    0.877071 0.192800 0.640730 0.331541
H11   H     H_    0.055603 0.782708 0.171528 0.402370
H12   H     H_    0.731485 0.814604 0.574363 0.169127
H13   H     H_    0.544394 0.849071 0.113289 0.394353
H14   H     H_    0.248289 0.993585 0.396371 0.217389
H15   H     H_    0.747993 0.003932 0.583285 0.154856
H16   H     H_    0.650815 0.167221 0.555881 0.206712
H17   H     H_    0.777658 0.592528 0.389712 0.217468
H18   H     H_    0.937473 0.641236 0.323891 0.238219
H19   H     H_    0.062962 0.359708 0.677688 0.208558
H20   H     H_    0.213878 0.585768 0.776972 0.152468
N1    N     N_R   0.798200 0.480260 0.519790 -0.163730
N2    N     N_R   0.201820 0.519740 0.480210 -0.158963
O1    O     O_R   0.579910 0.341070 0.505280 -0.597015
O2    O     O_2   0.221434 0.297706 0.293090 -0.308056
O3    O     O_3   0.094865 0.128542 0.289898 -0.533903
O4    O     O_2   0.922961 0.383195 0.815329 -0.309289
O5    O     O_2   0.727777 0.313352 0.697257 -0.277179
O6    O     O_3   0.916587 0.218466 0.715861 -0.521108
O7    O     O_2   0.268400 0.688508 0.303239 -0.269490
O8    O     O_2   0.098130 0.582192 0.189385 -0.335568
O9    O     O_3   0.056511 0.758524 0.245088 -0.560403
O10   O     O_2   0.535686 0.718199 0.281288 -0.295071
O11   O     O_2   0.688917 0.684956 0.209835 -0.351468
O12   O     O_R   0.388440 0.353740 0.492580 -0.552046
O13   O     O_3   0.500362 0.784813 0.081199 -0.509567
O14   O     O_R   0.643280 0.490550 0.663120 -0.560641
O15   O     O_R   0.451810 0.503220 0.650420 -0.655870
O16   O     O_R   0.611560 0.646260 0.507420 -0.611376
O17   O     O_R   0.420090 0.658930 0.494720 -0.617201
O18   O     O_R   0.548190 0.496780 0.349580 -0.629873
O19   O     O_R   0.356720 0.509450 0.336880 -0.526184
O20   O     O_2   0.169719 0.248924 0.453410 -0.301159
S1    S     S_3+6 0.205403 0.208441 0.366932 0.037240
S2    S     S_3+6 0.854563 0.334238 0.707789 0.030988
S3    S     S_3+6 0.142464 0.652369 0.283638 0.031558
S4    S     S_3+6 0.556150 0.690230 0.181734 0.035672
Zn1   Zn    Zn3+2 0.627850 0.491540 0.508480 1.032016
Zn2   Zn    Zn3+2 0.372150 0.508460 0.491520 1.063572

loop_
_geom_bond_atom_site_label_1
_geom_bond_atom_site_label_2
_ccdc_geom_bond_type
O2    S1    D    
C26   C32   A    
C29   H6    S    
C16   O17   A    
C19   C20   A    
O16   Zn1   S    
C22   N1    A    
C24   H19   S    
C12   C23   A    
C16   O16   A    
C22   C24   A    
O4    S2    D    
C36   H1    S    
O1    Zn1   S    
C1    O1    A    
C26   H3    S    
C28   H4    S    
C18   C19   A    
C25   O19   A    
O11   S4    D    
C18   N2    A    
C14   H15   S    
C8    C9    A    
N1    Zn1   S    
C30   H5    S    
O12   Zn2   S    
C9    C10   A    
C8    H16   S    
O15   Zn2   S    
C17   S3    S    
C3    C13   A    
C17   N2    A    
O13   S4    S    
C33   H20   S    
C13   C14   A    
O6    S2    S    
O18   Zn1   S    
H11   O9    S    
C35   S4    S    
O5    S2    D    
C15   C20   A    
C15   H18   S    
C5    C7    A    
O20   S1    D    
O19   Zn2   S    
C27   C35   A    
H10   O6    S    
C2    C4    S    
C9    C14   A    
C21   N1    A    
C29   C30   A    
N2    Zn2   S    
C5    C8    A    
O7    S3    D    
C31   C32   A    
C23   C34   A    
C33   C34   A    
C11   H8    S    
C6    H14   S    
C4    O15   A    
C26   C36   A    
O9    S3    S    
C12   C31   A    
C1    C5    S    
C4    O14   A    
C7    S1    S    
C15   C17   A    
C28   C29   A    
C12   C30   A    
C34   H7    S    
C6    C10   A    
C13   H12   S    
C6    C7    A    
C27   C36   A    
C25   C27   S    
C1    O12   A    
C25   O18   A    
O10   S4    D    
C32   C33   A    
C19   C24   A    
C18   H2    S    
C22   S2    S    
O8    S3    D    
C21   H17   S    
O3    S1    S    
H9    O3    S    
C31   C35   A    
O17   Zn2   S    
O14   Zn1   S    
C3    C11   A    
C10   C11   A    
C20   C21   A    
H13   O13   S    
C2    C23   A    
C2    C28   A    
C3    C16   S    
