data_mof_unit_40080.cif
_audit_creation_date              2012-12-11T17:29:23-0500
_audit_creation_method            fapswitch 2.2
_symmetry_space_group_name_H-M    P1
_symmetry_Int_Tables_number       1
_space_group_crystal_system       triclinic
_cell_length_a                    7.00864
_cell_length_b                    21.42496
_cell_length_c                    23.727633
_cell_angle_alpha                 90.204615
_cell_angle_beta                  89.448387
_cell_angle_gamma                 89.518123
_cell_volume                      3562.62248994

loop_
_atom_site_label
_atom_site_type_symbol
_atom_type_description
_atom_site_fract_x
_atom_site_fract_y
_atom_site_fract_z
_atom_type_partial_charge
O1    O     O_R   0.385180 0.195030 0.193850 -0.531517
O2    O     O_R   0.614820 0.804970 0.806150 -0.532139
O3    O     O_R   0.714780 0.188250 0.308340 -0.536607
O4    O     O_R   0.285220 0.811750 0.691660 -0.534730
O5    O     O_R   0.885140 0.307540 0.308730 -0.533741
O6    O     O_R   0.114860 0.692460 0.691270 -0.534423
C1    C     C_R   0.545994 0.173726 0.327843 0.719652
C2    C     C_R   0.454047 0.826675 0.672463 0.719229
O7    O     O_R   0.714890 0.187670 0.194260 -0.536600
O8    O     O_R   0.285110 0.812330 0.805740 -0.538109
O9    O     O_R   0.885250 0.306950 0.193830 -0.531809
O10   O     O_R   0.114750 0.693050 0.806170 -0.532160
C3    C     C_R   0.547728 0.172186 0.175063 0.714939
C4    C     C_R   0.452591 0.827874 0.824752 0.715948
O11   O     O_R   0.385070 0.195610 0.308740 -0.536488
O12   O     O_R   0.614930 0.804390 0.691260 -0.531040
O13   O     O_3   0.551660 0.290420 0.251280 -0.366650
O14   O     O_3   0.448340 0.709580 0.748720 -0.369319
V1    V     V_3+5 0.826490 0.244020 0.251290 1.425236
V2    V     V_3+5 0.173510 0.755980 0.748710 1.433398
O15   O     O_R   0.214970 0.314310 0.194240 -0.537527
O16   O     O_R   0.785030 0.685690 0.805760 -0.539091
C5    C     C_R   0.046348 0.329241 0.175005 0.721773
C6    C     C_R   0.953294 0.671175 0.825338 0.715836
O17   O     O_R   0.214860 0.314890 0.308320 -0.535549
O18   O     O_R   0.785140 0.685110 0.691680 -0.534953
C7    C     C_R   0.045169 0.329831 0.327407 0.723717
C8    C     C_R   0.954832 0.670186 0.672575 0.726747
V3    V     V_3+5 0.326500 0.258540 0.251290 1.424083
V4    V     V_3+5 0.673500 0.741460 0.748710 1.431915
O19   O     O_3   0.051460 0.212150 0.251290 -0.370027
O20   O     O_3   0.948540 0.787850 0.748710 -0.366507
C9    C     C_3   0.964016 0.470788 0.547670 0.172306
C10   C     C_3   0.036110 0.529396 0.452149 0.172719
C11   C     C_3   0.138629 0.459516 0.509488 0.222176
C12   C     C_3   0.861492 0.540672 0.490335 0.222279
H1    H     H_    0.308930 0.555074 0.506377 0.167013
H2    H     H_    0.691196 0.445113 0.493446 0.166829
C13   C     C_1   0.033391 0.375221 0.372527 -0.183067
C14   C     C_1   0.966626 0.624859 0.627396 -0.182764
C15   C     C_3   0.830143 0.469378 0.495981 -0.269986
C16   C     C_3   0.169981 0.530810 0.503843 -0.269979
C17   C     C_3   0.009042 0.458416 0.457416 0.068083
C18   C     C_3   0.991074 0.541771 0.542411 0.067955
C19   C     C_1   0.022775 0.412868 0.410661 0.016931
C20   C     C_1   0.977288 0.587271 0.589210 0.017299
C21   C     C_R   0.173694 0.491870 0.027169 0.330799
C22   C     C_R   0.819500 0.527996 0.988963 0.348431
C23   C     C_R   0.012044 0.459602 0.047402 -0.279929
C24   C     C_R   0.981666 0.547386 0.958281 -0.268695
C25   C     C_R   0.834418 0.475106 0.024154 0.345121
C26   C     C_R   0.160017 0.524488 0.975573 0.354505
C27   C     C_1   0.026231 0.413357 0.092468 0.049441
C28   C     C_1   0.968411 0.590825 0.911004 0.060259
C29   C     C_1   0.961059 0.627119 0.871714 -0.220128
C30   C     C_1   0.036500 0.375038 0.130086 -0.218028
C31   C     C_R   0.340006 0.000669 0.537143 0.371404
C32   C     C_R   0.662647 0.002433 0.465527 0.364428
C33   C     C_R   0.487300 0.956396 0.544667 -0.093960
C34   C     C_R   0.513216 0.046037 0.457298 -0.119198
C35   C     C_R   0.648777 0.957526 0.508953 0.081718
C36   C     C_R   0.350508 0.044350 0.492862 0.077268
C37   C     C_1   0.473785 0.910400 0.589789 0.100772
C38   C     C_1   0.526375 0.091824 0.411959 0.023905
C39   C     C_1   0.536134 0.129147 0.373623 -0.203136
C40   C     C_1   0.463932 0.872297 0.627503 -0.184960
C41   C     C_R   0.325657 0.980932 0.982310 -0.311324
C42   C     C_R   0.684232 0.009245 0.024707 -0.295761
H3    H     H_    0.186041 0.972136 0.965230 0.202479
H4    H     H_    0.823673 0.022373 0.039052 0.200150
C43   C     C_R   0.487389 0.952233 0.957897 -0.037771
C44   C     C_R   0.521856 0.037595 0.049316 -0.038804
C45   C     C_R   0.667854 0.963426 0.981968 0.429010
C46   C     C_R   0.340738 0.019349 0.030343 0.462538
C47   C     C_1   0.467741 0.910483 0.909356 0.006995
C48   C     C_1   0.538452 0.085296 0.093515 0.015517
C49   C     C_1   0.543537 0.124944 0.130559 -0.193979
C50   C     C_1   0.458690 0.873626 0.870235 -0.199094
N1    N     N_3   0.289908 0.414307 0.520441 -0.668767
H5    H     H_    0.348394 0.425555 0.559492 0.240454
H6    H     H_    0.226244 0.370634 0.524755 0.227155
N2    N     N_3   0.710211 0.585877 0.479375 -0.667906
H7    H     H_    0.651713 0.574617 0.440328 0.240592
H8    H     H_    0.773878 0.629547 0.475047 0.228241
N3    N     N_3   0.929420 0.438219 0.600474 -0.663771
H9    H     H_    0.911850 0.391023 0.590749 0.225700
H10   H     H_    0.798627 0.454361 0.616527 0.233814
N4    N     N_3   0.070706 0.561948 0.399335 -0.662968
H11   H     H_    0.088486 0.609137 0.409052 0.225133
H12   H     H_    0.201388 0.545750 0.383246 0.234539
O21   O     O_3   0.323799 0.536878 0.945081 -0.520845
C51   C     C_3   0.330245 0.504410 0.892657 0.166794
H13   H     H_    0.479330 0.507683 0.876653 0.149245
H14   H     H_    0.240573 0.528189 0.860878 0.101495
C52   C     C_3   0.277017 0.434742 0.896104 -0.385859
H15   H     H_    0.343814 0.412991 0.933470 0.221459
H16   H     H_    0.119892 0.430655 0.900586 0.170849
C53   C     C_3   0.339035 0.399318 0.843032 -0.817449
H17   H     H_    0.270198 0.419970 0.805387 0.234108
H18   H     H_    0.295678 0.349747 0.846558 0.238497
H19   H     H_    0.496483 0.400986 0.837642 0.233427
O22   O     O_3   0.670614 0.443448 0.038993 -0.517037
C54   C     C_3   0.670671 0.380923 0.018565 0.170898
H20   H     H_    0.521113 0.364458 0.022000 0.146224
H21   H     H_    0.754935 0.349863 0.046311 0.104101
C55   C     C_3   0.737891 0.372963 0.956760 -0.395920
H22   H     H_    0.677678 0.410770 0.930322 0.217006
H23   H     H_    0.895806 0.375893 0.954767 0.175224
C56   C     C_3   0.679967 0.309775 0.932845 -0.807235
H24   H     H_    0.742582 0.271434 0.958274 0.235404
H25   H     H_    0.733004 0.305273 0.888758 0.237902
H26   H     H_    0.522168 0.305455 0.932933 0.234122
O23   O     O_3   0.346012 0.491481 0.055177 -0.501954
C57   C     C_3   0.322498 0.507843 0.112968 0.182315
H27   H     H_    0.333597 0.464775 0.138704 0.132201
H28   H     H_    0.183787 0.531849 0.122744 0.070644
C58   C     C_3   0.481270 0.551578 0.130747 -0.283587
H29   H     H_    0.621951 0.529576 0.121243 0.223078
H30   H     H_    0.466910 0.595647 0.106787 0.196271
C59   C     C_3   0.469961 0.566529 0.193624 -0.872309
H31   H     H_    0.331275 0.589353 0.204272 0.235878
H32   H     H_    0.586824 0.598817 0.204874 0.240810
H33   H     H_    0.485710 0.523167 0.218750 0.238324
O24   O     O_3   0.643273 0.556651 0.984438 -0.504176
C60   C     C_3   0.643618 0.622383 0.993956 0.197827
H34   H     H_    0.494542 0.635500 0.005507 0.155726
H35   H     H_    0.672811 0.647652 0.954152 0.099021
C61   C     C_3   0.776461 0.645819 0.041180 -0.419154
H36   H     H_    0.784928 0.611640 0.075990 0.194510
H37   H     H_    0.923026 0.651696 0.023964 0.195313
C62   C     C_3   0.707520 0.708474 0.065074 -0.843167
H38   H     H_    0.689838 0.743068 0.030748 0.229408
H39   H     H_    0.813196 0.726410 0.095572 0.236672
H40   H     H_    0.568599 0.702998 0.087311 0.232149
N5    N     N_3   0.194954 0.087310 0.485262 -0.599601
H41   H     H_    0.246905 0.132633 0.489785 0.217321
H42   H     H_    0.144898 0.082386 0.444156 0.260031
N6    N     N_3   0.798364 0.912418 0.516715 -0.635558
H43   H     H_    0.926620 0.936072 0.521662 0.303247
H44   H     H_    0.809698 0.885297 0.480137 0.220303
O25   O     O_3   0.177952 0.998472 0.570702 -0.555972
C63   C     C_3   0.201902 0.038251 0.617557 0.114311
H45   H     H_    0.217799 0.087584 0.603653 0.134193
H46   H     H_    0.329606 0.024106 0.642273 0.098412
C64   C     C_3   0.025380 0.033687 0.655560 -0.280215
H47   H     H_    0.896837 0.047796 0.631458 0.203949
H48   H     H_    0.007358 0.984516 0.669332 0.202054
C65   C     C_3   0.042158 0.075453 0.707461 -0.846323
H49   H     H_    0.167740 0.061306 0.732771 0.235739
H50   H     H_    0.911757 0.071041 0.734050 0.238135
H51   H     H_    0.057123 0.125020 0.694700 0.232722
O26   O     O_3   0.832921 0.008396 0.436155 -0.556385
C66   C     C_3   0.818870 0.980154 0.382515 0.085883
H52   H     H_    0.677867 0.988671 0.362382 0.108964
H53   H     H_    0.841442 0.928921 0.386398 0.112224
C67   C     C_3   0.974560 0.007105 0.344426 -0.272871
H54   H     H_    0.957974 0.058731 0.342673 0.201762
H55   H     H_    0.116994 0.996041 0.362272 0.190047
C68   C     C_3   0.964218 0.980839 0.284798 -0.874268
H56   H     H_    0.982379 0.929293 0.285404 0.237163
H57   H     H_    0.079805 0.001229 0.258535 0.231608
H58   H     H_    0.824805 0.992913 0.265592 0.229751
O27   O     O_3   0.175410 0.039873 0.057138 -0.571823
C69   C     C_3   0.150979 0.008029 0.109153 0.061420
H59   H     H_    0.027216 0.030046 0.131351 0.151590
H60   H     H_    0.275124 0.013643 0.137471 0.115715
C70   C     C_3   0.109374 0.938283 0.100658 -0.353271
H61   H     H_    0.995191 0.933377 0.069357 0.216382
H62   H     H_    0.239014 0.913650 0.084506 0.185720
C71   C     C_3   0.046051 0.907167 0.155251 -0.843406
H63   H     H_    0.911869 0.929096 0.171212 0.239097
H64   H     H_    0.159198 0.911244 0.187465 0.237346
H65   H     H_    0.019286 0.856904 0.147274 0.232614
O28   O     O_3   0.832264 0.935501 0.960342 -0.570368
C72   C     C_3   0.838773 0.871413 0.975237 0.050445
H66   H     H_    0.725999 0.844656 0.953734 0.131641
H67   H     H_    0.819755 0.864805 0.021451 0.105826
C73   C     C_3   0.031555 0.843796 0.956714 -0.285647
H68   H     H_    0.055968 0.854096 0.911350 0.216701
H69   H     H_    0.146751 0.865376 0.981606 0.186493
C74   C     C_3   0.042156 0.773370 0.965262 -0.850803
H70   H     H_    0.037026 0.762567 0.010936 0.241742
H71   H     H_    0.179023 0.755058 0.947648 0.227075
H72   H     H_    0.922906 0.749858 0.943446 0.227208

loop_
_geom_bond_atom_site_label_1
_geom_bond_atom_site_label_2
_ccdc_geom_bond_type
V4    O20   S    
C2    C40   S    
O13   V3    S    
O27   C69   S    
C10   C16   S    
C65   H51   S    
O4    C2    A    
C62   H40   S    
V1    O19   S    
C61   H36   S    
C64   H47   S    
C52   C53   S    
C31   C36   A    
C21   C23   A    
C74   H70   S    
C25   O22   S    
C14   C20   T    
O9    V1    S    
C69   H60   S    
C24   C28   S    
C71   H64   S    
C67   H54   S    
C65   H50   S    
O3    C1    A    
C56   H25   S    
C21   O23   S    
C46   O27   S    
C35   N6    S    
C74   H72   S    
C71   H63   S    
C8    C14   S    
O12   V4    S    
C53   H17   S    
H1    C16   S    
C4    C50   S    
O14   V2    S    
C34   C36   A    
C12   N2    S    
C45   O28   S    
C11   C16   S    
O7    C3    A    
O28   C72   S    
C9    N3    S    
O13   V1    S    
O5    C7    A    
O25   C63   S    
C67   H55   S    
O7    V1    S    
C22   C25   A    
O6    C8    A    
C52   H15   S    
C18   C20   S    
C23   C25   A    
C60   C61   S    
C24   C26   A    
C68   H57   S    
O3    V1    S    
O14   V4    S    
C66   H53   S    
C11   C17   S    
C10   C12   S    
C59   H33   S    
C44   C48   S    
C13   C19   T    
C32   C35   A    
C22   C24   A    
C37   C40   T    
C2    O12   A    
C15   C17   S    
C63   C64   S    
C12   C15   S    
C16   C18   S    
C51   H14   S    
C64   H48   S    
C32   O26   S    
C34   C38   S    
O11   V3    S    
C72   C73   S    
N3    H10   S    
O17   V3    S    
C3    C49   S    
C33   C35   A    
C7    C13   S    
C57   C58   S    
C73   H68   S    
N5    H41   S    
C48   C49   T    
H2    C15   S    
C72   H67   S    
O8    C4    A    
C58   C59   S    
O8    V2    S    
C70   H61   S    
N1    H6    S    
C1    O11   A    
C42   C45   A    
N3    H9    S    
O15   V3    S    
C51   C52   S    
C70   H62   S    
C6    C29   S    
C36   N5    S    
C1    C39   S    
C73   H69   S    
C68   H56   S    
C42   C44   A    
O10   V2    S    
O1    V3    S    
C68   H58   S    
C54   H21   S    
C41   C46   A    
C10   N4    S    
C11   N1    S    
C65   H49   S    
C66   C67   S    
C17   C19   S    
C5    C30   S    
N6    H44   S    
C70   C71   S    
C44   C46   A    
N4    H12   S    
O18   V4    S    
N2    H8    S    
O15   C5    A    
C60   H34   S    
O16   C6    A    
C56   H26   S    
C31   C33   A    
O1    C3    A    
C62   H38   S    
C61   C62   S    
O21   C51   S    
C64   C65   S    
C59   H31   S    
C59   H32   S    
C43   C45   A    
O23   C57   S    
V2    O20   S    
C27   C30   T    
N5    H42   S    
C28   C29   T    
C69   H59   S    
O16   V4    S    
C9    C18   S    
C33   C37   S    
C67   C68   S    
C10   C17   S    
C62   H39   S    
C61   H37   S    
C22   O24   S    
C57   H28   S    
C52   H16   S    
C57   H27   S    
C21   C26   A    
O5    V1    S    
O17   C7    A    
C53   H19   S    
O6    V2    S    
O10   C6    A    
O18   C8    A    
C31   O25   S    
O2    V4    S    
C9    C15   S    
C38   C39   T    
C58   H30   S    
V3    O19   S    
C72   H66   S    
C58   H29   S    
C43   C47   S    
C55   H23   S    
C23   C27   S    
O9    C5    A    
C51   H13   S    
C9    C11   S    
C54   C55   S    
C41   C43   A    
C69   C70   S    
O22   C54   S    
O2    C4    A    
C47   C50   T    
C73   C74   S    
C12   C18   S    
N6    H43   S    
N1    H5    S    
O4    V2    S    
C74   H71   S    
N4    H11   S    
C42   H4    S    
N2    H7    S    
C55   H22   S    
C54   H20   S    
C60   H35   S    
C63   H45   S    
C26   O21   S    
O26   C66   S    
C41   H3    S    
C66   H52   S    
C56   H24   S    
C32   C34   A    
C55   C56   S    
C63   H46   S    
C53   H18   S    
O24   C60   S    
C71   H65   S    
