data_mof_unit_13260.cif
_audit_creation_date              2012-10-26T19:17:54-0400
_audit_creation_method            fapswitch 2.2
_symmetry_space_group_name_H-M    P1
_symmetry_Int_Tables_number       1
_space_group_crystal_system       triclinic
_cell_length_a                    10.798306
_cell_length_b                    12.32191
_cell_length_c                    13.199829
_cell_angle_alpha                 116.85511
_cell_angle_beta                  77.027672
_cell_angle_gamma                 101.431343
_cell_volume                      1517.41653025

loop_
_atom_site_label
_atom_site_type_symbol
_atom_type_description
_atom_site_fract_x
_atom_site_fract_y
_atom_site_fract_z
_atom_type_partial_charge
C1    C     C_R   0.516035 0.854628 0.286127 0.537634
C2    C     C_R   0.297330 0.244946 0.292785 -0.059626
C3    C     C_R   0.371628 0.160615 0.200523 -0.053728
C4    C     C_R   0.737073 0.001773 0.502851 0.535231
C5    C     C_R   0.351261 0.037262 0.179898 -0.097685
C6    C     C_R   0.257615 0.998278 0.252362 -0.072915
C7    C     C_R   0.183778 0.082889 0.346270 0.040407
C8    C     C_R   0.301275 0.283830 0.013398 0.259567
C9    C     C_R   0.450047 0.228177 0.834288 -0.054808
C10   C     C_R   0.633271 0.806720 0.087573 0.125901
C11   C     C_R   0.662103 0.724031 0.973471 -0.144821
C12   C     C_R   0.620640 0.842812 0.797640 -0.104520
C13   C     C_R   0.602359 0.605367 0.934011 -0.154236
C14   C     C_R   0.509756 0.565267 0.008091 0.030537
C15   C     C_R   0.467999 0.652872 0.120114 -0.009226
C16   C     C_R   0.480512 0.145099 0.713414 0.543210
C17   C     C_R   0.457367 0.440834 0.974199 -0.005605
C18   C     C_R   0.354867 0.407264 0.047130 0.058687
C19   C     C_R   0.305193 0.498265 0.151477 -0.126631
C20   C     C_R   0.359804 0.618939 0.186826 -0.147472
C21   C     C_R   0.505715 0.348469 0.870109 -0.157088
C22   C     C_R   0.352133 0.194397 0.907066 -0.137751
C23   C     C_R   0.037886 0.955386 0.567738 -0.159176
C24   C     C_R   0.535501 0.772136 0.162417 0.015395
C25   C     C_R   0.703466 0.345504 0.326722 -0.157221
C26   C     C_R   0.327919 0.760837 0.647190 0.050104
C27   C     C_R   0.290711 0.664921 0.679766 -0.167946
C28   C     C_R   0.262873 0.998831 0.497967 0.539931
C29   C     C_R   0.355065 0.560755 0.623950 -0.143654
C30   C     C_R   0.458459 0.551494 0.534589 -0.013806
C31   C     C_R   0.493401 0.652550 0.504473 0.188956
C32   C     C_R   0.529070 0.446833 0.474794 -0.023366
C33   C     C_R   0.632488 0.445853 0.386676 0.030232
C34   C     C_R   0.129112 0.997803 0.496027 -0.000589
C35   C     C_R   0.665149 0.545182 0.359066 -0.181098
C36   C     C_R   0.597538 0.646242 0.416849 -0.092174
C37   C     C_R   0.502253 0.342270 0.498135 0.042985
C38   C     C_R   0.672459 0.246214 0.354178 0.043215
C39   C     C_R   0.643649 0.966431 0.819395 -0.097994
C40   C     C_R   0.740774 0.005393 0.749203 -0.060918
C41   C     C_R   0.815511 0.920497 0.656547 0.047897
C42   C     C_R   0.794274 0.796974 0.637222 -0.090797
C43   C     C_R   0.696715 0.758365 0.707431 -0.113516
C44   C     C_3   0.101473 0.174963 0.035820 -0.011990
C45   C     C_R   0.091339 0.043602 0.428343 -0.031012
C46   C     C_3   0.094787 0.049679 0.034596 -0.388550
C47   C     C_3   0.819810 0.921862 0.171402 -0.298971
C48   C     C_R   0.962266 0.048660 0.436339 -0.162940
C49   C     C_R   0.870867 0.004208 0.506286 -0.004085
C50   C     C_R   0.908614 0.959234 0.574600 -0.032682
C51   C     C_R   0.203196 0.206305 0.365191 -0.096175
Cu1   Cu    Cu3+1 0.529370 0.098270 0.475420 0.939256
Cu2   Cu    Cu3+1 0.470630 0.901730 0.524580 0.912736
H1    H     H_    0.543845 0.812482 0.850730 0.113239
H2    H     H_    0.584901 0.031741 0.889487 0.099415
H3    H     H_    0.314297 0.685458 0.266487 0.143618
H4    H     H_    0.726898 0.168715 0.308512 0.137774
H5    H     H_    0.744607 0.545214 0.292152 0.107364
H6    H     H_    0.782667 0.344006 0.259211 0.086189
H7    H     H_    0.424997 0.334728 0.563057 0.121006
H8    H     H_    0.277570 0.841426 0.691101 0.116161
H9    H     H_    0.322230 0.489359 0.652727 0.099901
H10   H     H_    0.211751 0.671372 0.748562 0.096183
H11   H     H_    0.631358 0.718012 0.390280 0.181643
H12   H     H_    0.444694 0.190836 0.144845 0.114549
H13   H     H_    0.755602 0.100934 0.765015 0.090865
H14   H     H_    0.850230 0.730190 0.565650 0.105705
H15   H     H_    0.678822 0.662653 0.690878 0.109388
H16   H     H_    0.067526 0.922797 0.621480 0.119934
H17   H     H_    0.933009 0.084115 0.384850 0.118905
H18   H     H_    0.147770 0.272865 0.437525 0.101083
H19   H     H_    0.313262 0.340449 0.308580 0.128302
H20   H     H_    0.101531 0.165116 0.947539 0.111414
H21   H     H_    0.012346 0.215397 0.088383 0.138440
H22   H     H_    0.086557 0.059775 0.123685 0.165999
H23   H     H_    0.408765 0.972033 0.108361 0.103701
H24   H     H_    0.010173 0.990325 0.996429 0.091622
H25   H     H_    0.181834 0.004877 0.983334 0.138217
H26   H     H_    0.731780 0.959875 0.069149 0.235646
H27   H     H_    0.871163 0.015355 0.204381 0.116526
H28   H     H_    0.885643 0.858538 0.101958 0.128084
H29   H     H_    0.791159 0.893335 0.242819 0.159860
H30   H     H_    0.244115 0.902805 0.236677 0.087713
H31   H     H_    0.312186 0.099629 0.878462 0.116213
H32   H     H_    0.223765 0.476678 0.206919 0.151279
H33   H     H_    0.586588 0.366993 0.813284 0.125844
H34   H     H_    0.630602 0.547912 0.844454 0.103686
H35   H     H_    0.736548 0.750316 0.915955 0.117978
N1    N     N_R   0.573890 0.246290 0.438210 -0.229519
N2    N     N_R   0.426890 0.754320 0.561170 -0.227162
N3    N     N_2   0.708631 0.922187 0.127632 -0.503164
O1    O     O_R   0.536940 0.972510 0.318130 -0.458666
O2    O     O_R   0.487330 0.806530 0.359650 -0.535997
O3    O     O_R   0.705160 0.082990 0.479250 -0.509858
O4    O     O_R   0.655550 0.917010 0.520760 -0.505108
O5    O     O_R   0.512670 0.193470 0.640350 -0.505659
O6    O     O_R   0.463060 0.027490 0.681870 -0.502983
O7    O     O_R   0.344450 0.082990 0.479240 -0.491555
O8    O     O_R   0.294840 0.917010 0.520750 -0.520962
O9    O     O_3   0.205820 0.252954 0.089320 -0.579927

loop_
_geom_bond_atom_site_label_1
_geom_bond_atom_site_label_2
_ccdc_geom_bond_type
C40   C41   A    
C27   C29   A    
C11   C13   A    
C41   C42   A    
C23   H16   S    
C19   C20   A    
C20   H3    S    
Cu2   O8    S    
C38   N1    A    
C26   C27   A    
C35   H5    S    
C7    C45   S    
C26   H8    S    
C12   C43   A    
C30   C31   A    
C9    C22   A    
Cu2   O4    S    
C4    O4    A    
C18   C19   A    
C47   H29   S    
C21   H33   S    
C39   H2    S    
C35   C36   A    
C43   H15   S    
C8    C22   A    
Cu1   O3    S    
H26   N3    S    
C23   C34   A    
C28   C34   S    
C40   H13   S    
C13   C14   A    
C14   C17   A    
Cu1   N1    S    
C3    H12   S    
C51   H18   S    
C47   H27   S    
C2    H19   S    
C46   H22   S    
C44   C46   S    
C15   C20   A    
C16   O5    A    
Cu2   O2    S    
C10   C11   A    
C39   C40   A    
C46   H25   S    
C23   C50   A    
Cu2   O6    S    
C19   H32   S    
C8    C18   A    
C22   H31   S    
C29   C30   A    
C25   C38   A    
C38   H4    S    
C11   H35   S    
C31   N2    A    
C13   H34   S    
C17   C18   A    
C34   C45   A    
C32   C37   A    
C44   H21   S    
C27   H10   S    
C4    O3    A    
C28   O8    A    
C48   C49   A    
C10   N3    S    
C1    O1    A    
C42   H14   S    
Cu1   O1    S    
C42   C43   A    
C41   C50   S    
Cu1   Cu2   S    
C45   C48   A    
C28   O7    A    
C29   H9    S    
C15   C24   A    
C6    H30   S    
C31   C36   A    
C47   N3    S    
C9    C16   S    
C48   H17   S    
C3    C5    A    
C46   H24   S    
C6    C7    A    
C26   N2    A    
C37   N1    A    
C4    C49   S    
C10   C24   A    
C32   C33   A    
C12   C39   A    
C2    C3    A    
C8    O9    S    
C7    C51   A    
C30   C32   A    
C44   O9    S    
C9    C21   A    
C5    C6    A    
C5    H23   S    
Cu1   O7    S    
C33   C35   A    
Cu1   O5    S    
C47   H28   S    
C44   H20   S    
C16   O6    A    
C17   C21   A    
C37   H7    S    
C2    C51   A    
C1    C24   S    
C1    O2    A    
C49   C50   A    
Cu2   N2    S    
C14   C15   A    
C25   H6    S    
C36   H11   S    
C12   H1    S    
C25   C33   A    
