data_mof_unit_36694.cif
_audit_creation_date              2012-12-10T20:36:33-0500
_audit_creation_method            fapswitch 2.2
_symmetry_space_group_name_H-M    P1
_symmetry_Int_Tables_number       1
_space_group_crystal_system       triclinic
_cell_length_a                    10.521911
_cell_length_b                    10.689427
_cell_length_c                    9.876632
_cell_angle_alpha                 89.928383
_cell_angle_beta                  90.766492
_cell_angle_gamma                 90.126114
_cell_volume                      1110.75348232

loop_
_atom_site_label
_atom_site_type_symbol
_atom_type_description
_atom_site_fract_x
_atom_site_fract_y
_atom_site_fract_z
_atom_type_partial_charge
C1    C     C_R   0.494967 0.260424 0.500023 0.904614
C2    C     C_3   0.955486 0.603087 0.447330 -0.200354
C3    C     C_3   0.037850 0.507084 0.370833 -0.201850
C4    C     C_3   0.123123 0.497978 0.497692 -0.043053
C5    C     C_R   0.568551 0.064666 0.593013 -0.002895
C6    C     C_R   0.492796 0.128150 0.498728 -0.126569
C7    C     C_R   0.429606 0.061979 0.393919 0.004333
C8    C     C_R   0.436212 0.932826 0.393215 -0.249681
C9    C     C_R   0.503012 0.870956 0.496603 -0.076115
C10   C     C_R   0.575746 0.937211 0.590303 0.076994
C11   C     C_3   0.587140 0.925927 0.740973 -0.573133
C12   C     C_R   0.257616 0.500196 0.499082 0.877261
C13   C     C_3   0.576472 0.068401 0.745178 -0.036436
C14   C     C_R   0.404948 0.441481 0.069837 0.256970
C15   C     C_R   0.599225 0.548330 0.073214 -0.073334
C16   C     C_R   0.599122 0.548503 0.929385 -0.091566
C17   C     C_R   0.405063 0.441393 0.927341 0.241448
C18   C     C_3   0.267332 0.472891 0.919019 -0.443717
C19   C     C_3   0.267234 0.473945 0.072440 -0.515963
C20   C     C_R   0.500681 0.739470 0.499730 0.877494
C21   C     C_R   0.742428 0.497384 0.501116 0.921100
C22   C     C_3   0.045197 0.389649 0.553399 -0.103946
C23   C     C_3   0.958106 0.398655 0.428081 -0.020776
C24   C     C_3   0.877153 0.493868 0.503513 -0.074044
C25   C     C_3   0.963785 0.484740 0.629066 -0.001587
C26   C     C_3   0.043497 0.594243 0.573992 -0.140007
H1    H     H_    0.681768 0.888939 0.772488 0.197741
H2    H     H_    0.677957 0.590265 0.128251 0.159735
H3    H     H_    0.677505 0.590853 0.876343 0.170850
H4    H     H_    0.249358 0.566497 0.873456 0.225581
H5    H     H_    0.209906 0.395407 0.874567 0.226111
H6    H     H_    0.250150 0.568401 0.115521 0.212755
H7    H     H_    0.208709 0.397694 0.116038 0.219328
H8    H     H_    0.082699 0.674137 0.633070 0.158855
H9    H     H_    0.914870 0.690433 0.404047 0.152131
H10   H     H_    0.069473 0.517376 0.264910 0.162973
H11   H     H_    0.383147 0.880419 0.317126 0.163689
H12   H     H_    0.505536 0.874834 0.785874 0.218619
N1    N     N_R   0.499140 0.499140 0.142800 -0.119726
N2    N     N_R   0.499140 0.499180 0.857150 -0.119294
O1    O     O_R   0.500020 0.316790 0.614690 -0.617326
O2    O     O_R   0.500000 0.316760 0.385350 -0.575513
O3    O     O_R   0.313960 0.499990 0.614650 -0.628183
O4    O     O_R   0.313940 0.499950 0.385310 -0.636243
O5    O     O_R   0.500000 0.683240 0.614650 -0.624191
O6    O     O_R   0.499980 0.683210 0.385310 -0.631557
O7    O     O_R   0.686060 0.500050 0.614690 -0.644773
O8    O     O_R   0.686040 0.500010 0.385350 -0.585774
Zn1   Zn    Zn3+2 0.500010 0.500020 0.653130 0.964941
Zn2   Zn    Zn3+2 0.499990 0.499980 0.346870 0.989406
C27   C     C_2   0.914734 0.287824 0.346634 0.404548
H13   H     H_    0.984220 0.232389 0.293293 0.076239
O9    O     O_2   0.802625 0.258815 0.340406 -0.549795
C28   C     C_1   0.458096 0.110244 0.810183 0.311316
N3    N     N_1   0.365577 0.142549 0.861500 -0.199646
C29   C     C_2   0.695308 0.133477 0.796048 0.422342
H14   H     H_    0.786371 0.111732 0.751353 0.063230
O10   O     O_2   0.691135 0.210750 0.886907 -0.568883
C30   C     C_1   0.097814 0.273062 0.609450 0.108962
N4    N     N_1   0.139142 0.181095 0.653201 -0.198764
C31   C     C_2   0.922684 0.469791 0.772826 0.394071
H15   H     H_    0.867284 0.388690 0.801750 0.115947
O11   O     O_2   0.951464 0.548139 0.857622 -0.590504
C32   C     C_1   0.348480 0.121988 0.294063 0.206060
N5    N     N_1   0.283197 0.169455 0.214141 -0.220446

loop_
_geom_bond_atom_site_label_1
_geom_bond_atom_site_label_2
_ccdc_geom_bond_type
C2    H9    S    
C8    C9    A    
C11   H12   S    
C4    C26   S    
C23   C24   S    
C30   N4    T    
C6    C7    A    
C18   H4    S    
O5    Zn1   S    
C4    C12   S    
C4    C22   S    
C9    C10   A    
O6    Zn2   S    
C9    C20   S    
C23   C27   S    
C20   O5    A    
C11   H1    S    
C13   C29   S    
C5    C13   S    
C32   N5    T    
C21   O8    A    
O8    Zn2   S    
C17   C18   S    
C14   N1    A    
C7    C8    A    
O7    Zn1   S    
C25   C31   S    
C24   C25   S    
C11   C13   S    
C14   C17   A    
C15   N1    A    
C15   H2    S    
C5    C6    A    
C3    H10   S    
C16   N2    A    
C19   H6    S    
O1    Zn1   S    
C22   C25   S    
O2    Zn2   S    
C2    C3    S    
C12   O3    A    
C2    C24   S    
C31   H15   S    
C20   O6    A    
C7    C32   S    
C10   C11   S    
O4    Zn2   S    
N2    Zn1   S    
C1    O2    A    
C5    C10   A    
N1    Zn2   S    
C27   H13   S    
C29   H14   S    
C16   H3    S    
C12   O4    A    
C13   C28   S    
C8    H11   S    
C21   C24   S    
C1    O1    A    
C22   C30   S    
C31   O11   D    
C22   C23   S    
C18   C19   S    
C18   H5    S    
C19   H7    S    
C27   O9    D    
C25   C26   S    
C28   N3    T    
C3    C23   S    
C14   C19   S    
C26   H8    S    
C15   C16   A    
O3    Zn1   S    
C3    C4    S    
C1    C6    S    
C29   O10   D    
C2    C26   S    
C21   O7    A    
C17   N2    A    
