data_mof_unit_40879.cif
_audit_creation_date              2013-03-05T16:02:25-0500
_audit_creation_method            fapswitch 2.2
_symmetry_space_group_name_H-M    P1
_symmetry_Int_Tables_number       1
_space_group_crystal_system       triclinic
_cell_length_a                    14.968269
_cell_length_b                    14.016662
_cell_length_c                    10.712815
_cell_angle_alpha                 88.507501
_cell_angle_beta                  90.005217
_cell_angle_gamma                 89.736715
_cell_volume                      2246.8176571

loop_
_atom_site_label
_atom_site_type_symbol
_atom_site_description
_atom_site_fract_x
_atom_site_fract_y
_atom_site_fract_z
_atom_type_partial_charge
O1    O     O_R   0.367860 0.580280 0.500020 -0.629736
O2    O     O_R   0.367860 0.419720 0.500020 -0.620410
C1    C     C_R   0.326763 0.500223 0.500752 0.870215
O3    O     O_R   0.500000 0.580270 0.314790 -0.648962
O4    O     O_R   0.500000 0.419730 0.314790 -0.635251
C2    C     C_R   0.497685 0.500791 0.257889 0.899577
Zn1   Zn    Zn3+2 0.500020 0.607200 0.499990 0.926784
Zn2   Zn    Zn3+2 0.500020 0.392800 0.499990 0.926950
O5    O     O_R   0.632160 0.580270 0.499960 -0.606070
O6    O     O_R   0.632160 0.419730 0.499960 -0.625998
O7    O     O_R   0.500030 0.580270 0.685200 -0.640045
O8    O     O_R   0.500030 0.419730 0.685200 -0.628042
C3    C     C_R   0.673142 0.500142 0.492963 0.881971
C4    C     C_R   0.497394 0.498480 0.742266 0.894425
C5    C     C_3   0.591619 0.528598 0.071903 -0.053859
C6    C     C_3   0.424913 0.574407 0.070007 -0.036104
H1    H     H_    0.605553 0.602170 0.103572 0.134779
H2    H     H_    0.447562 0.646784 0.096850 0.145022
C7    C     C_3   0.589421 0.532724 0.926524 -0.053332
C8    C     C_3   0.425267 0.573098 0.924335 -0.047107
H3    H     H_    0.591648 0.610364 0.901259 0.139580
H4    H     H_    0.452383 0.644168 0.894761 0.138847
H5    H     H_    0.519050 0.345888 0.121921 0.193695
H6    H     H_    0.406552 0.377230 0.120941 0.172721
C9    C     C_3   0.471679 0.398789 0.079213 -0.360766
C10   C     C_3   0.496305 0.500803 0.121723 -0.005633
C11   C     C_3   0.495617 0.495635 0.878658 0.042034
C12   C     C_3   0.471571 0.391473 0.935989 0.428655
C13   C     C_R   0.814229 0.572340 0.411762 0.138151
C14   C     C_R   0.768821 0.500430 0.481831 -0.083180
C15   C     C_R   0.814807 0.428164 0.546905 -0.316401
C16   C     C_R   0.906802 0.427214 0.548544 0.120291
C17   C     C_R   0.953713 0.501637 0.487075 0.011216
C18   C     C_R   0.907915 0.575379 0.419931 0.106312
C19   C     C_R   0.952380 0.353638 0.612964 -0.205833
C20   C     C_R   0.045065 0.353056 0.616147 -0.222210
C21   C     C_R   0.092471 0.426701 0.556263 0.124955
C22   C     C_R   0.046852 0.501837 0.492467 0.072218
C23   C     C_R   0.094599 0.576930 0.433809 0.125865
C24   C     C_R   0.049719 0.650754 0.370163 -0.229932
C25   C     C_R   0.957268 0.650038 0.362832 -0.214150
C26   C     C_R   0.184967 0.426501 0.558565 -0.264388
C27   C     C_R   0.231332 0.501150 0.499914 -0.064587
C28   C     C_R   0.186859 0.576661 0.439240 -0.265209
H7    H     H_    0.778531 0.373198 0.598815 0.168113
H8    H     H_    0.916311 0.296488 0.660474 0.144435
H9    H     H_    0.079608 0.295409 0.665610 0.145671
H10   H     H_    0.220923 0.369076 0.606736 0.150017
H11   H     H_    0.224190 0.633995 0.393911 0.155530
H12   H     H_    0.086179 0.708905 0.325464 0.147395
H13   H     H_    0.925405 0.709174 0.313351 0.164268
C29   C     C_R   0.540191 0.799819 0.405096 -0.011371
C30   C     C_R   0.541098 0.203254 0.405921 -0.004636
N1    N     N_R   0.500070 0.750030 0.500050 -0.114656
N2    N     N_R   0.500070 0.249970 0.500050 -0.116572
C31   C     C_R   0.456320 0.795488 0.592523 -0.042936
C32   C     C_R   0.456516 0.200645 0.592715 -0.064409
C33   C     C_R   0.451686 0.896418 0.593984 -0.004227
C34   C     C_R   0.454198 0.099270 0.596284 0.005023
C35   C     C_R   0.496210 0.949174 0.498683 -0.034561
C36   C     C_R   0.496420 0.050279 0.498875 -0.033846
C37   C     C_R   0.539030 0.900461 0.401347 -0.132783
C38   C     C_R   0.540112 0.102605 0.402275 -0.130771
C39   C     C_R   0.403718 0.945185 0.687261 0.199816
C40   C     C_R   0.410719 0.046287 0.693690 0.203676
C41   C     C_R   0.581743 0.053563 0.304390 0.345330
C42   C     C_R   0.578224 0.952964 0.301580 0.346272
H14   H     H_    0.572897 0.760508 0.332341 0.166131
H15   H     H_    0.574299 0.244966 0.333445 0.166630
H16   H     H_    0.426079 0.751803 0.665315 0.153214
H17   H     H_    0.422520 0.241425 0.662429 0.152247
C43   C     C_3   0.668419 0.466643 0.128484 -0.859510
H18   H     H_    0.667140 0.466388 0.231725 0.229165
H19   H     H_    0.664964 0.391809 0.099915 0.241835
H20   H     H_    0.734199 0.496268 0.100155 0.249512
C44   C     C_3   0.331376 0.563430 0.130716 -0.868591
H21   H     H_    0.335179 0.570635 0.233274 0.234989
H22   H     H_    0.286070 0.621238 0.096247 0.245397
H23   H     H_    0.300670 0.493659 0.111628 0.240633
C45   C     C_3   0.341776 0.889722 0.774620 -0.963135
H24   H     H_    0.287167 0.934556 0.811476 0.258072
H25   H     H_    0.305932 0.833553 0.723678 0.235225
H26   H     H_    0.380457 0.856568 0.852915 0.233339
C46   C     C_3   0.377600 0.097532 0.807322 -0.970838
H27   H     H_    0.362167 0.049748 0.888220 0.256534
H28   H     H_    0.431884 0.143250 0.841071 0.238740
H29   H     H_    0.317888 0.141460 0.783001 0.240920
O9    O     O_3   0.620443 0.103934 0.205848 -0.615948
C47   C     C_3   0.713222 0.109835 0.227689 0.128544
H30   H     H_    0.744219 0.037551 0.236920 0.174121
H31   H     H_    0.726942 0.150258 0.313827 0.122221
C48   C     C_3   0.756926 0.162175 0.117707 -0.832900
H32   H     H_    0.728381 0.235083 0.106690 0.243935
H33   H     H_    0.829977 0.167714 0.133916 0.207587
H34   H     H_    0.745301 0.122775 0.030529 0.261909
O10   O     O_3   0.616884 0.906217 0.202902 -0.611380
C49   C     C_3   0.551800 0.895943 0.108759 0.129176
H35   H     H_    0.528655 0.966959 0.072065 0.175975
H36   H     H_    0.493250 0.854675 0.144538 0.113516
C50   C     C_3   0.592419 0.841844 0.001231 -0.846339
H37   H     H_    0.616515 0.770762 0.035036 0.239173
H38   H     H_    0.541478 0.831800 0.927451 0.201771
H39   H     H_    0.649420 0.882530 0.960688 0.268952
C51   C     C_3   0.675536 0.498737 0.859319 -0.845040
H40   H     H_    0.697102 0.425513 0.883600 0.246013
H41   H     H_    0.668745 0.505101 0.756579 0.235111
H42   H     H_    0.731856 0.545989 0.884233 0.234355
C52   C     C_3   0.332170 0.577579 0.859337 -0.865645
H43   H     H_    0.282107 0.528235 0.899070 0.253670
H44   H     H_    0.303499 0.650351 0.868673 0.232600
H45   H     H_    0.336668 0.564843 0.758075 0.237838
C53   C     C_3   0.538571 0.309485 0.903872 -0.844285
H46   H     H_    0.518669 0.242543 0.954009 0.225974
H47   H     H_    0.541966 0.291293 0.804519 0.263128
H48   H     H_    0.606270 0.321914 0.937807 0.223473
C54   C     C_3   0.377539 0.356515 0.894695 -0.902117
H49   H     H_    0.322953 0.389467 0.947499 0.226773
H50   H     H_    0.364660 0.368734 0.793768 0.245775
H51   H     H_    0.369163 0.279443 0.916387 0.236198
C55   C     C_3   0.765155 0.642552 0.325033 -0.899512
H52   H     H_    0.797661 0.644664 0.231845 0.229162
H53   H     H_    0.695221 0.622864 0.305941 0.251446
H54   H     H_    0.766031 0.714901 0.364799 0.252430

loop_
_geom_bond_atom_site_label_1
_geom_bond_atom_site_label_2
_geom_bond_distance
_ccdc_geom_bond_type
C28   H11   1.085225 S    
C19   C20   1.387735 A    
C44   H23   1.106337 S    
C30   H15   1.081992 S    
C53   H47   1.102036 S    
C49   H35   1.114354 S    
C2    C10   1.458863 S    
C12   C53   1.566797 S    
C9    C12   1.540415 S    
C5    C7    1.557329 S    
C5    C43   1.551219 S    
C1    C27   1.428454 S    
C21   C22   1.413606 A    
C37   C42   1.411081 A    
C20   C21   1.397476 A    
C7    H3    1.115195 S    
C46   H28   1.103797 S    
C43   H20   1.109615 S    
C41   O9    1.383290 S    
C14   C15   1.393743 A    
O7    C4    1.285880 A    
C32   C34   1.421042 A    
C33   C35   1.413725 A    
C52   H43   1.100262 S    
C20   H9    1.083894 S    
C35   C37   1.413336 A    
C21   C26   1.384714 A    
C36   C38   1.414765 A    
O5    C3    1.281166 A    
C53   H46   1.110843 S    
C12   C54   1.560245 S    
C46   H27   1.106462 S    
C55   H53   1.104222 S    
C46   H29   1.110116 S    
C4    C11   1.460891 S    
C47   H31   1.114905 S    
C7    C11   1.589056 S    
C29   H14   1.081993 S    
C55   H54   1.110252 S    
C6    C8    1.561157 S    
H5    C9    1.113255 S    
C41   C42   1.412401 A    
C38   C41   1.412147 A    
O1    Zn1   2.015574 S    
C33   C39   1.418615 A    
C39   C45   1.519446 S    
C18   C25   1.410264 A    
C45   H26   1.109884 S    
Zn2   N2    2.001981 S    
C51   H41   1.106550 S    
C51   H40   1.099233 S    
C49   H36   1.114789 S    
C29   N1    1.359933 A    
C30   N2    1.361463 A    
C6    C10   1.572659 S    
C22   C23   1.409287 A    
C13   C55   1.522157 S    
N1    C31   1.358450 A    
C34   C36   1.411856 A    
C16   C19   1.400573 A    
C3    C14   1.437139 S    
C44   H21   1.107417 S    
C43   H19   1.101730 S    
C23   C24   1.394151 A    
C45   H24   1.107795 S    
C40   C46   1.511933 S    
O3    Zn1   2.029239 S    
C9    C10   1.557762 S    
C13   C18   1.405946 A    
C50   H39   1.110612 S    
C32   H17   1.078440 S    
C35   C36   1.417232 A    
O1    C1    1.282002 A    
Zn1   O7    2.010026 S    
C27   C28   1.394087 A    
C13   C14   1.417158 A    
C7    C51   1.555371 S    
C15   C16   1.377115 A    
Zn2   O8    2.029343 S    
O10   C49   1.412655 S    
C48   H33   1.110527 S    
C17   C18   1.417873 A    
C26   H10   1.085430 S    
H6    C9    1.112289 S    
C47   C48   1.521146 S    
C51   H42   1.111248 S    
C54   H50   1.107042 S    
C45   H25   1.109832 S    
C24   C25   1.386157 A    
C8    H4    1.115687 S    
C31   H16   1.079661 S    
N2    C32   1.362713 A    
C42   O10   1.383616 S    
O3    C2    1.284353 A    
C26   C27   1.394178 A    
C49   C50   1.520855 S    
C55   H52   1.110369 S    
C50   H38   1.110231 S    
C5    H1    1.114550 S    
C6    C44   1.550429 S    
Zn2   O6    2.015304 S    
O2    Zn2   2.012170 S    
C44   H22   1.110001 S    
C43   H18   1.106083 S    
C5    C10   1.570501 S    
O6    C3    1.286175 A    
O4    Zn2   2.009921 S    
C52   H45   1.105976 S    
C23   C28   1.382170 A    
C8    C11   1.595137 S    
C17   C22   1.395338 A    
C54   H51   1.106770 S    
C16   C17   1.409224 A    
O2    C1    1.282896 A    
O8    C4    1.276105 A    
C29   C37   1.410211 A    
C34   C40   1.424124 A    
C30   C38   1.412462 A    
O4    C2    1.275649 A    
C52   H44   1.111715 S    
C24   H12   1.084117 S    
C39   C40   1.424924 A    
C48   H32   1.109287 S    
C31   C33   1.416567 A    
C54   H49   1.100514 S    
C48   H34   1.111386 S    
Zn1   O5    2.011899 S    
O9    C47   1.411446 S    
C6    H2    1.115857 S    
C15   H7    1.085926 S    
C11   C12   1.611373 S    
C50   H37   1.109855 S    
Zn1   N1    2.002020 S    
C47   H30   1.114465 S    
C19   H8    1.083975 S    
C25   H13   1.081171 S    
C53   H48   1.092808 S    
C8    C52   1.558014 S    
