data_mof_unit_24991.cif
_audit_creation_date              2012-12-11T16:20:21-0500
_audit_creation_method            fapswitch 2.2
_symmetry_space_group_name_H-M    P1
_symmetry_Int_Tables_number       1
_space_group_crystal_system       triclinic
_cell_length_a                    6.909908
_cell_length_b                    34.334788
_cell_length_c                    38.363179
_cell_angle_alpha                 99.669973
_cell_angle_beta                  89.706728
_cell_angle_gamma                 90.356968
_cell_volume                      8972.10231368

loop_
_atom_site_label
_atom_site_type_symbol
_atom_type_description
_atom_site_fract_x
_atom_site_fract_y
_atom_site_fract_z
_atom_type_partial_charge
O1    O     O_R   0.494320 0.461440 0.460990 -0.539142
O2    O     O_R   0.821450 0.462560 0.532500 -0.542048
O3    O     O_R   0.994330 0.538560 0.539010 -0.538536
C1    C     C_R   0.652088 0.453974 0.543818 0.707754
O4    O     O_R   0.823870 0.456770 0.460860 -0.540594
O5    O     O_R   0.996760 0.532730 0.466860 -0.538374
C2    C     C_R   0.654995 0.446153 0.447848 0.708882
O6    O     O_R   0.491880 0.467270 0.533140 -0.537988
O7    O     O_3   0.661650 0.524930 0.502050 -0.367165
V1    V     V_3+5 0.935500 0.495380 0.499620 1.413663
O8    O     O_R   0.326630 0.537440 0.467500 -0.542614
C3    C     C_R   0.158394 0.546049 0.456123 0.709094
O9    O     O_R   0.324210 0.543230 0.539140 -0.540350
C4    C     C_R   0.155244 0.553923 0.552191 0.708790
V2    V     V_3+5 0.435810 0.504620 0.500380 1.412981
O10   O     O_3   0.159790 0.475070 0.497950 -0.366728
C5    C     C_R   0.910525 0.821696 0.800062 0.586577
N1    N     N_R   0.052029 0.824615 0.825326 -0.556621
C6    C     C_R   0.204403 0.798772 0.821779 0.554527
C7    C     C_R   0.221069 0.769241 0.791560 -0.026920
C8    C     C_R   0.076399 0.765871 0.765464 -0.018813
C9    C     C_R   0.918887 0.792111 0.769792 -0.029064
C10   C     C_R   0.378806 0.743173 0.786737 -0.142490
C11   C     C_R   0.391608 0.713967 0.756636 -0.145905
C12   C     C_R   0.246908 0.710033 0.730577 -0.031933
C13   C     C_R   0.089169 0.736176 0.734987 -0.022349
C14   C     C_R   0.944072 0.732678 0.709007 -0.025742
C15   C     C_R   0.786578 0.758859 0.713779 -0.141521
C16   C     C_R   0.774214 0.788210 0.743769 -0.159524
C17   C     C_R   0.255294 0.680357 0.700314 0.578753
N2    N     N_R   0.113486 0.677294 0.674921 -0.554047
C18   C     C_R   0.960304 0.703117 0.678795 0.581970
O11   O     O_2   0.762308 0.847389 0.804186 -0.544747
O12   O     O_2   0.340649 0.801936 0.847175 -0.522101
H1    H     H_    0.493230 0.745290 0.806167 0.170340
H2    H     H_    0.515483 0.694499 0.753869 0.171293
O13   O     O_2   0.402852 0.654424 0.696692 -0.526342
O14   O     O_2   0.824749 0.700626 0.653318 -0.529826
H3    H     H_    0.671978 0.756732 0.694384 0.167037
H4    H     H_    0.650649 0.807769 0.746510 0.155817
C19   C     C_R   0.290651 0.642055 0.622373 -0.084768
H5    H     H_    0.411955 0.662136 0.628381 0.164601
C20   C     C_R   0.301638 0.611921 0.592805 -0.201762
H6    H     H_    0.432058 0.609348 0.576824 0.139955
C21   C     C_R   0.144943 0.585865 0.583678 -0.059239
C22   C     C_R   0.978001 0.590467 0.605131 -0.202205
H7    H     H_    0.855203 0.570776 0.599074 0.133434
C23   C     C_R   0.968697 0.620057 0.635081 -0.085706
H8    H     H_    0.839831 0.622371 0.651465 0.157116
C24   C     C_R   0.124382 0.646390 0.644005 0.354205
C25   C     C_R   0.969633 0.846667 0.888125 -0.075349
H9    H     H_    0.926103 0.816717 0.889910 0.134643
C26   C     C_R   0.952304 0.876271 0.917932 -0.196465
H10   H     H_    0.897100 0.868725 0.942435 0.123059
C27   C     C_R   0.009682 0.915156 0.916302 -0.051373
C28   C     C_R   0.079992 0.924308 0.884265 -0.229772
H11   H     H_    0.123023 0.954434 0.882855 0.113626
C29   C     C_R   0.093817 0.895005 0.853922 0.037167
C30   C     C_R   0.040891 0.855539 0.855984 0.343212
C31   C     C_R   0.190984 0.853732 0.170138 0.585880
O15   O     O_2   0.327809 0.881615 0.168586 -0.531000
N3    N     N_R   0.035922 0.850540 0.147556 -0.553072
C32   C     C_R   0.892716 0.823140 0.149813 0.577812
C33   C     C_R   0.179069 0.878565 0.097603 -0.086550
C34   C     C_R   0.170306 0.903971 0.072689 -0.206162
C35   C     C_R   0.847817 0.923763 0.093032 -0.204540
C36   C     C_R   0.858663 0.899106 0.118574 -0.084042
C37   C     C_R   0.024223 0.876105 0.121102 0.353092
C38   C     C_R   0.061976 0.800413 0.198198 -0.049074
C39   C     C_R   0.207942 0.828463 0.195371 -0.031235
C40   C     C_R   0.368143 0.830715 0.217694 -0.132635
C41   C     C_R   0.901983 0.798084 0.175369 -0.037241
C42   C     C_R   0.004315 0.926754 0.070030 -0.055816
H12   H     H_    0.718536 0.941149 0.091785 0.134988
H13   H     H_    0.738254 0.898136 0.136588 0.166166
H14   H     H_    0.484502 0.851548 0.215718 0.168655
C43   C     C_R   0.150854 0.572964 0.429575 -0.055293
C44   C     C_R   0.247414 0.753083 0.273324 0.034833
C45   C     C_R   0.948031 0.719146 0.250012 0.030689
C46   C     C_R   0.104866 0.723377 0.274318 0.059025
C47   C     C_R   0.397035 0.756754 0.298650 -0.242744
C48   C     C_R   0.410645 0.731986 0.323999 -0.011470
C49   C     C_R   0.265731 0.702878 0.325840 -0.060707
C50   C     C_R   0.118184 0.697711 0.299944 -0.067026
C51   C     C_R   0.982078 0.666901 0.299823 0.010850
C52   C     C_R   0.995333 0.641630 0.325001 0.614880
N4    N     N_R   0.129252 0.648640 0.351515 -0.558575
C53   C     C_R   0.256706 0.679693 0.353280 0.625996
C54   C     C_R   0.309499 0.604437 0.384530 -0.088428
C55   C     C_R   0.317218 0.579873 0.410142 -0.198056
C56   C     C_R   0.977170 0.591658 0.423044 -0.208860
C57   C     C_R   0.970403 0.616761 0.397820 -0.069795
C58   C     C_R   0.136164 0.623186 0.378083 0.354402
O16   O     O_2   0.367022 0.689118 0.382371 -0.495769
C59   C     C_R   0.237229 0.777931 0.246983 0.036374
C60   C     C_R   0.076073 0.774726 0.223753 0.059932
C61   C     C_R   0.928982 0.746081 0.225707 0.029688
C62   C     C_R   0.383193 0.806018 0.242820 -0.179022
H15   H     H_    0.453040 0.565806 0.414329 0.132312
H16   H     H_    0.438767 0.608740 0.369516 0.153431
H17   H     H_    0.509071 0.778773 0.299346 0.110069
H18   H     H_    0.514087 0.809492 0.258107 0.129890
O17   O     O_2   0.742820 0.819593 0.127070 -0.527949
C63   C     C_R   0.754524 0.770825 0.178476 -0.130663
H19   H     H_    0.292719 0.905438 0.055197 0.137210
H20   H     H_    0.307210 0.860811 0.098656 0.157125
H21   H     H_    0.627366 0.768978 0.161854 0.170696
C64   C     C_R   0.816450 0.687535 0.250548 -0.181989
C65   C     C_R   0.834381 0.661878 0.274703 -0.104422
O18   O     O_2   0.874104 0.610368 0.323035 -0.531546
C66   C     C_R   0.766673 0.745580 0.203208 -0.178666
H22   H     H_    0.699214 0.681099 0.232071 0.125603
H23   H     H_    0.846662 0.587166 0.437648 0.136393
H24   H     H_    0.728866 0.638271 0.273916 0.164445
H25   H     H_    0.835739 0.631251 0.393656 0.162479
H26   H     H_    0.643608 0.726449 0.204379 0.128561
C67   C     C_R   0.756616 0.322949 0.648496 0.579897
O19   O     O_2   0.904563 0.319970 0.625105 -0.527672
N5    N     N_R   0.611633 0.349745 0.646828 -0.553278
C68   C     C_R   0.457671 0.352125 0.669851 0.585153
C69   C     C_R   0.466608 0.378164 0.597623 -0.085203
C70   C     C_R   0.475314 0.403841 0.572898 -0.205619
C71   C     C_R   0.797824 0.424222 0.592911 -0.204002
C72   C     C_R   0.786994 0.399343 0.618249 -0.083950
C73   C     C_R   0.621808 0.375816 0.620771 0.352846
C74   C     C_R   0.593585 0.299688 0.697661 -0.048593
C75   C     C_R   0.751615 0.298029 0.674187 -0.036771
C76   C     C_R   0.901240 0.271495 0.676704 -0.131101
C77   C     C_R   0.444578 0.326825 0.695163 -0.033973
C78   C     C_R   0.641584 0.426951 0.570123 -0.055650
H27   H     H_    0.927238 0.441895 0.591584 0.134632
H28   H     H_    0.907475 0.398496 0.636044 0.164782
H29   H     H_    0.025454 0.269759 0.659162 0.170205
C79   C     C_R   0.512248 0.072628 0.929546 -0.055199
C80   C     C_R   0.729302 0.222138 0.751869 0.028926
C81   C     C_R   0.413595 0.250812 0.772671 0.027762
C82   C     C_R   0.567151 0.223990 0.775081 0.063812
C83   C     C_R   0.877390 0.194743 0.755484 -0.180297
C84   C     C_R   0.866234 0.170077 0.780718 -0.135174
C85   C     C_R   0.707809 0.171662 0.803651 -0.031881
C86   C     C_R   0.558414 0.198677 0.801044 -0.048746
C87   C     C_R   0.400236 0.200299 0.824478 -0.038622
C88   C     C_R   0.395431 0.175458 0.850228 0.581618
N6    N     N_R   0.541078 0.148870 0.852074 -0.553180
C89   C     C_R   0.695237 0.146530 0.829112 0.578993
C90   C     C_R   0.367540 0.099167 0.880774 -0.089638
C91   C     C_R   0.356950 0.074632 0.906389 -0.206069
C92   C     C_R   0.677500 0.096023 0.926795 -0.209356
C93   C     C_R   0.685953 0.121335 0.901761 -0.084929
C94   C     C_R   0.531532 0.123028 0.878313 0.353463
O20   O     O_2   0.835188 0.119598 0.830485 -0.534774
C95   C     C_R   0.738076 0.247444 0.725940 0.028118
C96   C     C_R   0.584652 0.274309 0.723568 0.064058
C97   C     C_R   0.422486 0.276157 0.746778 0.028332
C98   C     C_R   0.895446 0.246886 0.702025 -0.179903
H30   H     H_    0.228526 0.056656 0.907653 0.130008
H31   H     H_    0.247784 0.099515 0.862735 0.161751
H32   H     H_    0.984091 0.149777 0.782265 0.166837
H33   H     H_    0.005618 0.191422 0.739281 0.127661
H34   H     H_    0.018227 0.227780 0.701986 0.127442
O21   O     O_2   0.318469 0.379280 0.668706 -0.530117
C99   C     C_R   0.286074 0.328390 0.718081 -0.129789
H35   H     H_    0.353078 0.405166 0.555577 0.137613
H36   H     H_    0.338624 0.360040 0.598730 0.159390
H37   H     H_    0.168445 0.348769 0.716605 0.169306
C100  C     C_R   0.256032 0.251307 0.796528 -0.178020
C101  C     C_R   0.250306 0.226729 0.821871 -0.129564
O22   O     O_2   0.247035 0.178310 0.873509 -0.526310
C102  C     C_R   0.274586 0.303620 0.743224 -0.177620
H38   H     H_    0.132987 0.270316 0.796487 0.128601
H39   H     H_    0.799028 0.095206 0.944375 0.137914
H40   H     H_    0.125955 0.228420 0.839371 0.171067
H41   H     H_    0.813015 0.139716 0.900668 0.160436
H42   H     H_    0.146391 0.306965 0.759445 0.128916
C103  C     C_R   0.399625 0.179994 0.199909 0.578439
N7    N     N_R   0.543455 0.176662 0.174687 -0.555221
C104  C     C_R   0.699719 0.202009 0.178688 0.584458
C105  C     C_R   0.717087 0.231398 0.208931 -0.025564
C106  C     C_R   0.569914 0.235226 0.234761 -0.020898
C107  C     C_R   0.409059 0.209538 0.230183 -0.030980
C108  C     C_R   0.877676 0.257076 0.213875 -0.142685
C109  C     C_R   0.891195 0.286258 0.243937 -0.147606
C110  C     C_R   0.744523 0.290497 0.269831 -0.031415
C111  C     C_R   0.583667 0.264809 0.265252 -0.020920
C112  C     C_R   0.436497 0.268637 0.291083 -0.025184
C113  C     C_R   0.275904 0.242959 0.286138 -0.143286
C114  C     C_R   0.262383 0.213778 0.256076 -0.148409
C115  C     C_R   0.753967 0.320039 0.300106 0.579354
N8    N     N_R   0.610152 0.323368 0.325330 -0.555249
C116  C     C_R   0.453879 0.298023 0.321328 0.583957
O23   O     O_2   0.249027 0.154452 0.196076 -0.525790
O24   O     O_2   0.837263 0.199173 0.153308 -0.528709
H43   H     H_    0.993850 0.254667 0.194582 0.169590
H44   H     H_    0.017272 0.305415 0.246828 0.171921
O25   O     O_2   0.904566 0.345580 0.303939 -0.525070
O26   O     O_2   0.316341 0.300857 0.346709 -0.529084
H45   H     H_    0.159731 0.245369 0.305431 0.169308
H46   H     H_    0.136306 0.194621 0.253185 0.171553
C117  C     C_R   0.469515 0.381023 0.364723 -0.084582
H47   H     H_    0.342663 0.379181 0.348053 0.157462
C118  C     C_R   0.479535 0.410511 0.394657 -0.201887
H48   H     H_    0.359271 0.430682 0.400467 0.134321
C119  C     C_R   0.644216 0.414393 0.416412 -0.058821
C120  C     C_R   0.797935 0.387810 0.407670 -0.203681
H49   H     H_    0.926411 0.389897 0.423948 0.139843
C121  C     C_R   0.786020 0.357762 0.378114 -0.083458
H50   H     H_    0.904677 0.337204 0.372320 0.165031
C122  C     C_R   0.622017 0.354142 0.356198 0.353994
C123  C     C_R   0.684160 0.119001 0.135313 -0.085563
H51   H     H_    0.810981 0.120850 0.151992 0.157063
C124  C     C_R   0.674213 0.089511 0.105381 -0.202821
H52   H     H_    0.794497 0.069344 0.099580 0.133750
C125  C     C_R   0.509584 0.085624 0.083613 -0.058380
C126  C     C_R   0.355826 0.112200 0.092344 -0.203832
H53   H     H_    0.227386 0.110107 0.076056 0.139907
C127  C     C_R   0.367668 0.142250 0.121899 -0.083195
H54   H     H_    0.248990 0.162805 0.127684 0.165222
C128  C     C_R   0.531634 0.145879 0.143825 0.354123
O27   O     O_R   0.662230 0.032770 0.966890 -0.538998
O28   O     O_R   0.330090 0.043230 0.039150 -0.540792
O29   O     O_R   0.157350 0.967260 0.033130 -0.538302
C129  C     C_R   0.498915 0.053866 0.052173 0.707831
O30   O     O_R   0.332650 0.037450 0.967510 -0.542249
O31   O     O_R   0.159930 0.961430 0.960980 -0.534615
C130  C     C_R   0.501967 0.045944 0.956121 0.708930
O32   O     O_R   0.659640 0.038600 0.039040 -0.539795
O33   O     O_3   0.492510 0.975090 0.997960 -0.364206
V3    V     V_3+5 0.218600 0.004620 0.000380 1.417454
O34   O     O_R   0.830050 0.956730 0.960830 -0.536087
C131  C     C_R   0.999029 0.946257 0.947914 0.708347
O35   O     O_R   0.827490 0.962520 0.032470 -0.542691
C132  C     C_R   0.995806 0.953891 0.043776 0.702761
V4    V     V_3+5 0.718310 0.995320 0.999580 1.421324
O36   O     O_3   0.994270 0.024900 0.002040 -0.368743
C133  C     C_R   0.159993 0.906383 0.820278 0.080757
C134  C     C_R   0.323665 0.888700 0.802600 -0.110558
C135  C     C_R   0.384732 0.899392 0.770703 -0.105060
C136  C     C_R   0.283290 0.927969 0.756326 -0.104569
C137  C     C_R   0.121028 0.945960 0.773891 -0.110828
C138  C     C_R   0.059648 0.935317 0.805805 -0.096778
H55   H     H_    0.404656 0.866969 0.813706 0.185240
H56   H     H_    0.510990 0.885616 0.757193 0.140156
H57   H     H_    0.330671 0.936242 0.731633 0.116545
H58   H     H_    0.042665 0.968125 0.762759 0.120671
H59   H     H_    0.933020 0.949316 0.819050 0.121466
C139  C     C_2   0.587303 0.736953 0.346211 0.478712
H60   H     H_    0.645679 0.766348 0.355126 0.024975
O37   O     O_2   0.677338 0.708481 0.352491 -0.511941

loop_
_geom_bond_atom_site_label_1
_geom_bond_atom_site_label_2
_ccdc_geom_bond_type
C80   C83   A    
N4    C53   A    
C74   C75   A    
C9    C16   A    
C118  C119  A    
C19   H5    S    
O27   V4    S    
C59   C60   A    
C1    O6    A    
C38   C60   A    
O28   C129  A    
C105  C106  A    
C59   C62   A    
C112  C116  A    
C90   H31   S    
C47   H17   S    
C26   H10   S    
C64   C65   A    
C79   C91   A    
C126  H53   S    
O29   V3    S    
C72   H28   S    
C13   C14   A    
O34   C131  A    
O32   V4    S    
C135  H56   S    
C123  C128  A    
C33   C37   A    
C15   C16   A    
C52   O18   S    
C127  C128  A    
C90   C91   A    
C51   C65   A    
C67   N5    A    
C51   C52   A    
C17   N2    A    
C61   C66   A    
C44   C46   A    
C129  O32   A    
N8    C122  S    
V2    O10   S    
C35   H12   S    
C108  C109  A    
C92   H39   S    
C34   C42   A    
C134  C135  A    
O28   V3    S    
C123  H51   S    
C31   N3    A    
N1    C6    A    
C133  C138  A    
O33   V3    S    
C109  C110  A    
C57   C58   A    
N6    C94   S    
C76   C98   A    
O1    C2    A    
C87   C101  A    
C90   C94   A    
O8    V2    S    
C83   H33   S    
C137  C138  A    
C84   H32   S    
C77   C99   A    
C2    C119  S    
C102  H42   S    
C7    C10   A    
C113  H45   S    
N7    C104  A    
C137  H58   S    
C109  H44   S    
C18   O14   S    
C108  H43   S    
V4    O36   S    
C139  H60   S    
V3    O36   S    
C46   C50   A    
C71   H27   S    
C93   H41   S    
C23   C24   A    
C35   C36   A    
C14   C18   A    
C11   C12   A    
C117  H47   S    
C96   C97   A    
C104  O24   S    
N7    C128  S    
C8    C9    A    
C3    C43   S    
C54   C58   A    
C120  H49   S    
C19   C20   A    
C27   C131  S    
C100  C101  A    
N8    C116  A    
C86   C87   A    
C5    O11   S    
O31   V3    S    
C34   H19   S    
C57   H25   S    
C8    C13   A    
C47   C48   A    
C4    C21   S    
C139  O37   D    
C26   C27   A    
O33   V4    S    
C40   C62   A    
C22   C23   A    
C43   C55   A    
C48   C139  S    
C114  H46   S    
C25   H9    S    
C79   C130  S    
C71   C72   A    
C85   C86   A    
C115  O25   S    
C32   O17   S    
C29   C133  S    
C83   C84   A    
C56   C57   A    
O4    C2    A    
C121  H50   S    
N6    C89   A    
C1    C78   S    
C41   C63   A    
C15   H3    S    
C55   H15   S    
C62   H18   S    
C69   H36   S    
C136  H57   S    
O27   C130  A    
C70   H35   S    
C36   C37   A    
C97   C102  A    
C115  N8    A    
C25   C26   A    
C134  H55   S    
C38   C41   A    
O2    C1    A    
C20   H6    S    
C124  H52   S    
C69   C73   A    
N3    C32   A    
C107  C114  A    
O31   C131  A    
C99   H37   S    
C81   C97   A    
C125  C129  S    
C80   C95   A    
C54   H16   S    
C49   C50   A    
C95   C98   A    
C31   C39   A    
C44   C59   A    
C84   C85   A    
C127  H54   S    
C60   C61   A    
C7    C8    A    
C27   C28   A    
C5    N1    A    
C110  C111  A    
O35   V4    S    
C22   H7    S    
C50   C51   A    
N5    C68   A    
C91   H30   S    
C67   C75   A    
C69   C70   A    
C66   H26   S    
O3    C4    A    
C65   H24   S    
C113  C114  A    
O1    V2    S    
C68   O21   S    
C23   H8    S    
C124  C125  A    
C120  C121  A    
C100  H38   S    
O6    V2    S    
C10   H1    S    
O9    V2    S    
C71   C78   A    
C138  H59   S    
O9    C4    A    
C45   C46   A    
C29   C30   A    
C36   H13   S    
C28   H11   S    
N2    C24   S    
C75   C76   A    
O2    V1    S    
N5    C73   S    
C19   C24   A    
C14   C15   A    
C39   C40   A    
C52   N4    A    
C117  C118  A    
C106  C111  A    
O7    V1    S    
C64   H22   S    
C12   C17   A    
C80   C82   A    
C82   C86   A    
C136  C137  A    
C43   C56   A    
C56   H23   S    
C10   C11   A    
C68   C77   A    
C98   H34   S    
O30   V3    S    
C45   C61   A    
N2    C18   A    
C76   H29   S    
C81   C82   A    
C6    O12   S    
C85   C89   A    
O5    V1    S    
C63   C66   A    
O8    C3    A    
O30   C130  A    
C33   H20   S    
C101  H40   S    
C89   O20   S    
C79   C92   A    
C67   O19   S    
C5    C9    A    
C74   C77   A    
C118  H48   S    
N3    C37   S    
C11   H2    S    
C33   C34   A    
C6    C7    A    
C12   C13   A    
O4    V1    S    
C20   C21   A    
C103  N7    A    
V1    O10   S    
C110  C115  A    
O5    C3    A    
C116  O26   S    
C35   C42   A    
C44   C47   A    
C112  C113  A    
C40   H14   S    
C99   C102  A    
C81   C100  A    
C125  C126  A    
N4    C58   S    
O29   C132  A    
C117  C122  A    
C123  C124  A    
C28   C29   A    
C45   C64   A    
C49   C53   A    
C126  C127  A    
C92   C93   A    
C63   H21   S    
O34   V4    S    
C38   C39   A    
C103  O23   S    
C135  C136  A    
C88   O22   S    
C105  C108  A    
C133  C134  A    
C104  C105  A    
C103  C107  A    
C106  C107  A    
C74   C96   A    
C21   C22   A    
N1    C30   S    
C25   C30   A    
C32   C41   A    
C17   O13   S    
C48   C49   A    
O35   C132  A    
O3    V1    S    
C53   O16   S    
C87   C88   A    
C31   O15   S    
C111  C112  A    
C95   C96   A    
C119  C120  A    
C16   H4    S    
C54   C55   A    
C93   C94   A    
C121  C122  A    
C70   C78   A    
C42   C132  S    
C88   N6    A    
O7    V2    S    
C72   C73   A    
