data_mof_unit_17636.cif
_audit_creation_date              2013-03-05T16:46:58-0500
_audit_creation_method            fapswitch 2.2
_symmetry_space_group_name_H-M    P1
_symmetry_Int_Tables_number       1
_space_group_crystal_system       triclinic
_cell_length_a                    14.977891
_cell_length_b                    9.009201
_cell_length_c                    8.114866
_cell_angle_alpha                 89.999966
_cell_angle_beta                  90.0
_cell_angle_gamma                 90.000015
_cell_volume                      1095.01052831

loop_
_atom_site_label
_atom_site_type_symbol
_atom_site_description
_atom_site_fract_x
_atom_site_fract_y
_atom_site_fract_z
_atom_type_partial_charge
O1    O     O_R   0.500000 0.285350 0.636850 -0.615488
O2    O     O_R   0.500000 0.714650 0.363150 -0.615488
O3    O     O_R   0.500000 0.714650 0.636850 -0.615488
O4    O     O_R   0.500000 0.285350 0.363150 -0.615488
H1    H     H_    0.920104 0.124460 0.515771 0.149674
H2    H     H_    0.079894 0.875541 0.515844 0.149677
H3    H     H_    0.920104 0.875540 0.484227 0.149674
H4    H     H_    0.079894 0.124459 0.484154 0.149677
C1    C     C_R   0.500000 0.217893 0.500000 0.941019
C2    C     C_R   0.500000 0.782107 0.500000 0.941019
O5    O     O_R   0.367850 0.500000 0.636890 -0.617137
O6    O     O_R   0.632150 0.500000 0.363110 -0.617137
O7    O     O_R   0.632150 0.500000 0.636890 -0.617137
O8    O     O_R   0.367850 0.500000 0.363110 -0.617137
C3    C     C_R   0.326877 0.500000 0.500000 0.904463
C4    C     C_R   0.673123 0.500000 0.500000 0.904464
Zn1   Zn    Zn3+2 0.500000 0.500000 0.682780 1.020716
Zn2   Zn    Zn3+2 0.500000 0.500000 0.317220 1.020716
N1    N     N_1   0.500000 0.500000 0.073640 -0.025602
N2    N     N_1   0.500000 0.500000 0.926360 -0.025602
C5    C     C_R   0.813743 0.633973 0.474071 -0.083891
C6    C     C_R   0.186258 0.366028 0.474056 -0.083890
C7    C     C_R   0.813742 0.366027 0.525928 -0.083891
C8    C     C_R   0.186258 0.633972 0.525943 -0.083890
C9    C     C_R   0.768511 0.500000 0.500000 -0.139762
C10   C     C_R   0.231489 0.500000 0.500000 -0.139763
C11   C     C_R   0.906645 0.363970 0.511920 0.080433
C12   C     C_R   0.093354 0.636030 0.511940 0.080433
C13   C     C_R   0.906646 0.636030 0.488079 0.080433
C14   C     C_R   0.093354 0.363970 0.488059 0.080434
C15   C     C_R   0.953248 0.500000 0.500000 0.045547
C16   C     C_R   0.046752 0.500000 0.500000 0.045546
C17   C     C_R   0.954058 0.229879 0.509061 -0.194897
C18   C     C_R   0.045941 0.770121 0.509108 -0.194898
C19   C     C_R   0.954058 0.770121 0.490938 -0.194897
C20   C     C_R   0.045941 0.229879 0.490891 -0.194898
C21   C     C_1   0.500000 0.065031 0.500000 -0.136688
C22   C     C_1   0.500000 0.934969 0.500000 -0.136688
C23   C     C_1   0.764315 0.766757 0.429602 0.166687
N3    N     N_1   0.724593 0.871470 0.391887 -0.190229
C24   C     C_1   0.235686 0.233246 0.429584 0.166688
N4    N     N_1   0.275408 0.128533 0.391867 -0.190231
C25   C     C_1   0.764314 0.233243 0.570396 0.166687
N5    N     N_1   0.724592 0.128530 0.608111 -0.190230
C26   C     C_1   0.235686 0.766754 0.570415 0.166688
N6    N     N_1   0.275408 0.871467 0.608131 -0.190231

loop_
_geom_bond_atom_site_label_1
_geom_bond_atom_site_label_2
_geom_bond_distance
_ccdc_geom_bond_type
C25   N5    1.156550 T    
C21   C22   1.171761 T    
C4    C9    1.428713 S    
O7    Zn1   2.014053 S    
O2    Zn2   1.969415 S    
C8    C12   1.396252 A    
C24   N4    1.156552 T    
C13   C19   1.401508 A    
O1    Zn1   1.969416 S    
N1    N2    1.195157 T    
C5    C23   1.452367 S    
C14   C20   1.401513 A    
C2    C22   1.377160 S    
O4    Zn2   1.969415 S    
Zn1   N2    1.976619 S    
C1    C21   1.377160 S    
C12   C18   1.401512 A    
C13   C15   1.413673 A    
O3    C2    1.265936 A    
C26   N6    1.156552 T    
C11   C17   1.401508 A    
C14   C16   1.413678 A    
O5    C3    1.269090 A    
C8    C26   1.452369 S    
H3    C19   1.078708 S    
C8    C10   1.400031 A    
O3    Zn1   1.969414 S    
C7    C11   1.396251 A    
C7    C9    1.400024 A    
H4    C20   1.078715 S    
C6    C24   1.452370 S    
C11   C15   1.413674 A    
O2    C2    1.265936 A    
O6    C4    1.269090 A    
C12   C16   1.413678 A    
C17   C20   1.384085 A    
O1    C1    1.265936 A    
C18   C19   1.384085 A    
C6    C10   1.400031 A    
O7    C4    1.269090 A    
O6    Zn2   2.014053 S    
C23   N3    1.156550 T    
O8    Zn2   2.014055 S    
O8    C3    1.269090 A    
Zn2   N1    1.976619 S    
C3    C10   1.428713 S    
C5    C9    1.400024 A    
C6    C14   1.396250 A    
O4    C1    1.265936 A    
C7    C25   1.452366 S    
C5    C13   1.396251 A    
C15   C16   1.400500 A    
O5    Zn1   2.014055 S    
H2    C18   1.078715 S    
H1    C17   1.078709 S    
