data_mof_unit_39624.cif
_audit_creation_date              2012-12-10T19:48:40-0500
_audit_creation_method            fapswitch 2.2
_symmetry_space_group_name_H-M    P1
_symmetry_Int_Tables_number       1
_space_group_crystal_system       triclinic
_cell_length_a                    13.091593
_cell_length_b                    14.189805
_cell_length_c                    14.915042
_cell_angle_alpha                 89.804013
_cell_angle_beta                  90.598684
_cell_angle_gamma                 69.648447
_cell_volume                      2597.55087841

loop_
_atom_site_label
_atom_site_type_symbol
_atom_type_description
_atom_site_fract_x
_atom_site_fract_y
_atom_site_fract_z
_atom_type_partial_charge
C1    C     C_R   0.497427 0.500663 0.672451 0.892865
C2    C     C_R   0.823355 0.406874 0.498117 -0.110580
C3    C     C_R   0.490792 0.420575 0.908986 -0.245552
C4    C     C_R   0.704606 0.444050 0.497357 0.874992
C5    C     C_R   0.506804 0.416242 0.817581 -0.205732
C6    C     C_R   0.481400 0.505231 0.767927 -0.105959
C7    C     C_R   0.434716 0.598777 0.808966 -0.280833
C8    C     C_R   0.414540 0.603774 0.900127 0.501079
C9    C     C_R   0.447944 0.514040 0.950748 0.013029
C10   C     C_R   0.511146 0.572248 0.087569 -0.212302
C11   C     C_R   0.525614 0.569670 0.180170 0.432422
C12   C     C_R   0.986309 0.451937 0.497091 -0.013106
C13   C     C_R   0.487210 0.505463 0.231053 -0.127218
C14   C     C_R   0.429905 0.449925 0.190167 -0.259136
C15   C     C_R   0.411926 0.456439 0.098640 -0.221964
C16   C     C_R   0.499428 0.500503 0.327389 0.899254
C17   C     C_R   0.453291 0.517001 0.047412 0.075546
C18   C     C_R   0.590704 0.865871 0.530162 -0.283284
C19   C     C_R   0.589213 0.767290 0.530122 0.006359
C20   C     C_R   0.410141 0.824209 0.470346 -0.001339
C21   C     C_R   0.407731 0.924208 0.470354 -0.286026
C22   C     C_R   0.499086 0.946846 0.500186 0.203978
C23   C     C_R   0.879782 0.467082 0.464661 0.019575
C24   C     C_R   0.442858 0.123230 0.434044 -0.390054
C25   C     C_R   0.440644 0.223585 0.436447 0.567258
C26   C     C_R   0.559083 0.185794 0.564186 0.543581
C27   C     C_R   0.555770 0.086457 0.566259 -0.406379
C28   C     C_R   0.295532 0.556023 0.499951 0.852088
C29   C     C_R   0.499159 0.053414 0.500094 0.029305
C30   C     C_R   0.028317 0.672879 0.385493 -0.205453
C31   C     C_R   0.178903 0.591557 0.485555 -0.082280
C32   C     C_R   0.879453 0.317748 0.543725 -0.264264
C33   C     C_R   0.989064 0.292934 0.563867 -0.265750
C34   C     C_R   0.030508 0.528095 0.477117 0.081539
C35   C     C_R   0.043381 0.361005 0.545876 0.473838
C36   C     C_3   0.260667 0.717199 0.960294 0.073289
C37   C     C_3   0.187569 0.768272 0.880323 -0.360552
C38   C     C_3   0.067156 0.800081 0.903787 -0.959364
C39   C     C_3   0.531382 0.724722 0.213789 0.097081
C40   C     C_3   0.597260 0.779175 0.262967 -0.313183
C41   C     C_3   0.541017 0.893050 0.257669 -0.965945
C42   C     C_3   0.271987 0.307598 0.371807 0.101616
C43   C     C_3   0.232285 0.291407 0.278386 -0.411023
C44   C     C_3   0.109348 0.314172 0.276973 -0.921898
C45   C     C_R   0.979420 0.603568 0.411687 0.163553
C46   C     C_3   0.708893 0.149110 0.664098 0.059278
C47   C     C_3   0.690235 0.114407 0.758084 -0.361205
C48   C     C_3   0.788936 0.026520 0.791078 -0.961451
C49   C     C_3   0.186184 0.285675 0.647228 0.008837
C50   C     C_3   0.290038 0.301748 0.679568 -0.273854
C51   C     C_3   0.339392 0.237027 0.761801 -0.962021
C52   C     C_R   0.881381 0.608023 0.372095 -0.257584
C53   C     C_R   0.831171 0.541835 0.399201 -0.178674
C54   C     C_R   0.123458 0.532790 0.520425 -0.235034
C55   C     C_R   0.130161 0.664522 0.420147 -0.200999
H1    H     H_    0.542091 0.343734 0.786125 0.187212
H2    H     H_    0.173164 0.710594 0.392470 0.142507
H3    H     H_    0.412449 0.667987 0.770361 0.173989
H4    H     H_    0.240398 0.769532 0.017984 0.165673
H5    H     H_    0.242976 0.649121 0.981985 0.126704
H6    H     H_    0.206308 0.835730 0.859525 0.233003
H7    H     H_    0.203769 0.715597 0.822926 0.211351
H8    H     H_    0.046273 0.733494 0.923572 0.264724
H9    H     H_    0.016575 0.836355 0.844485 0.269751
H10   H     H_    0.047992 0.854743 0.959717 0.263627
H11   H     H_    0.449838 0.745000 0.245540 0.139659
H12   H     H_    0.548200 0.614528 0.046638 0.163500
H13   H     H_    0.520868 0.750633 0.142637 0.141320
H14   H     H_    0.608064 0.754960 0.334378 0.239074
H15   H     H_    0.679076 0.758823 0.232404 0.213386
H16   H     H_    0.536598 0.919305 0.187017 0.263111
H17   H     H_    0.588018 0.930093 0.297837 0.273694
H18   H     H_    0.457242 0.915363 0.284524 0.263125
H19   H     H_    0.398220 0.402215 0.229192 0.210614
H20   H     H_    0.367960 0.412833 0.067476 0.148448
H21   H     H_    0.339633 0.808020 0.446760 0.117667
H22   H     H_    0.842496 0.663960 0.321170 0.146901
H23   H     H_    0.663983 0.878053 0.552587 0.137366
H24   H     H_    0.334361 0.983294 0.447673 0.133103
H25   H     H_    0.228649 0.386766 0.391057 0.202552
H26   H     H_    0.248168 0.259149 0.420308 0.169213
H27   H     H_    0.251656 0.341453 0.229203 0.226814
H28   H     H_    0.274467 0.212195 0.258010 0.222257
H29   H     H_    0.087505 0.264540 0.325129 0.266750
H30   H     H_    0.082765 0.301025 0.208679 0.263359
H31   H     H_    0.065570 0.393897 0.294969 0.273905
H32   H     H_    0.770699 0.185864 0.671044 0.151356
H33   H     H_    0.745609 0.084655 0.618119 0.124169
H34   H     H_    0.660259 0.706553 0.553988 0.145471
H35   H     H_    0.675283 0.177782 0.805586 0.215008
H36   H     H_    0.617331 0.091544 0.758361 0.223103
H37   H     H_    0.803507 0.960864 0.746274 0.261599
H38   H     H_    0.773946 0.004411 0.859819 0.269340
H39   H     H_    0.862633 0.048312 0.792850 0.263412
H40   H     H_    0.990848 0.729409 0.334596 0.135235
H41   H     H_    0.203617 0.203575 0.640051 0.161965
H42   H     H_    0.122406 0.316808 0.698926 0.138468
H43   H     H_    0.350401 0.282056 0.625110 0.240795
H44   H     H_    0.271674 0.382149 0.696406 0.204640
H45   H     H_    0.400708 0.100480 0.380148 0.160924
H46   H     H_    0.280706 0.256263 0.817885 0.259896
H47   H     H_    0.414427 0.250522 0.783429 0.269305
H48   H     H_    0.361430 0.156062 0.745614 0.262145
H49   H     H_    0.030610 0.220986 0.595730 0.136894
H50   H     H_    0.754781 0.548040 0.366639 0.194088
H51   H     H_    0.595532 0.035072 0.619794 0.164464
H52   H     H_    0.158277 0.488214 0.578852 0.188983
H53   H     H_    0.837902 0.268039 0.565450 0.171073
H54   H     H_    0.516922 0.351297 0.947675 0.160406
N1    N     N_R   0.500000 0.747530 0.500020 -0.091080
N2    N     N_R   0.499940 0.252470 0.500020 -0.162872
O1    O     O_R   0.499990 0.420530 0.630930 -0.574608
O2    O     O_3   0.587868 0.619940 0.219850 -0.651983
O3    O     O_3   0.385149 0.291490 0.370466 -0.632827
O4    O     O_3   0.611912 0.221956 0.630043 -0.620626
O5    O     O_3   0.154839 0.332917 0.562504 -0.692649
O6    O     O_R   0.499990 0.579480 0.630940 -0.621105
O7    O     O_R   0.653620 0.381060 0.499970 -0.591808
O8    O     O_R   0.653620 0.540010 0.499980 -0.627174
O9    O     O_R   0.500010 0.420520 0.369060 -0.577158
O10   O     O_R   0.500010 0.579470 0.369070 -0.600795
O11   O     O_R   0.346380 0.459990 0.500020 -0.595756
O12   O     O_R   0.346380 0.618940 0.500030 -0.630968
O13   O     O_3   0.371648 0.697014 0.940070 -0.667576
Zn1   Zn    Zn3+2 0.500000 0.393860 0.499990 1.004670
Zn2   Zn    Zn3+2 0.500000 0.606140 0.500010 0.936855

loop_
_geom_bond_atom_site_label_1
_geom_bond_atom_site_label_2
_ccdc_geom_bond_type
C15   H20   S    
C42   H25   S    
C22   C29   S    
C27   C29   A    
C33   H49   S    
C43   H28   S    
C39   H13   S    
C30   C45   A    
C43   C44   S    
C36   H4    S    
C37   H7    S    
C28   O12   A    
C7    C8    A    
C10   H12   S    
C51   H47   S    
C12   C23   A    
C50   H44   S    
C37   C38   S    
C40   H15   S    
C46   O4    S    
C3    C9    A    
C14   H19   S    
C36   C37   S    
C36   O13   S    
C38   H8    S    
C16   O9    A    
C1    O1    A    
C5    C6    A    
C28   O11   A    
C10   C17   A    
C51   H48   S    
C20   H21   S    
C2    C32   A    
C18   C19   A    
C26   O4    S    
C5    H1    S    
C33   C35   A    
C24   C29   A    
C42   O3    S    
C8    C9    A    
C39   O2    S    
N2    Zn1   S    
C4    O8    A    
O7    Zn1   S    
O6    Zn2   S    
C7    H3    S    
C38   H9    S    
C41   H16   S    
C31   C54   A    
C18   C22   A    
C21   C22   A    
C4    O7    A    
C42   H26   S    
C44   H31   S    
C23   C53   A    
C46   H33   S    
C50   H43   S    
C48   H38   S    
C1    C6    S    
C24   C25   A    
C40   H14   S    
C39   C40   S    
O9    Zn1   S    
C8    O13   S    
O12   Zn2   S    
C45   C52   A    
C3    C5    A    
C49   H42   S    
C2    C4    S    
C16   O10   A    
C30   H40   S    
C19   H34   S    
C47   C48   S    
C38   H10   S    
C18   H23   S    
C21   H24   S    
C50   C51   S    
C26   C27   A    
C35   O5    S    
C34   C45   A    
C1    O6    A    
C12   C35   A    
O1    Zn1   S    
C48   H39   S    
N1    Zn2   S    
C41   H17   S    
C20   N1    A    
C54   H52   S    
C9    C17   S    
C40   C41   S    
C34   C54   A    
C55   H2    S    
C32   H53   S    
C39   H11   S    
C42   C43   S    
C12   C34   A    
C44   H30   S    
C52   C53   A    
C46   H32   S    
C19   N1    A    
C15   C17   A    
C46   C47   S    
C24   H45   S    
C47   H36   S    
C28   C31   S    
C44   H29   S    
C37   H6    S    
C6    C7    A    
C51   H46   S    
C30   C55   A    
C27   H51   S    
C32   C33   A    
O11   Zn1   S    
O10   Zn2   S    
C25   O3    S    
C11   C13   A    
C3    H54   S    
C47   H35   S    
C49   H41   S    
C11   O2    S    
C10   C11   A    
C25   N2    A    
C41   H18   S    
O8    Zn2   S    
C53   H50   S    
C49   O5    S    
C20   C21   A    
C49   C50   S    
C48   H37   S    
C13   C16   S    
C2    C23   A    
C43   H27   S    
C36   H5    S    
C14   C15   A    
C31   C55   A    
C13   C14   A    
C26   N2    A    
C52   H22   S    
