data_mof_unit_24329.cif
_audit_creation_date              2012-12-10T17:52:26-0500
_audit_creation_method            fapswitch 2.2
_symmetry_space_group_name_H-M    P1
_symmetry_Int_Tables_number       1
_space_group_crystal_system       triclinic
_cell_length_a                    18.620634
_cell_length_b                    10.513536
_cell_length_c                    9.932509
_cell_angle_alpha                 89.024597
_cell_angle_beta                  89.794977
_cell_angle_gamma                 92.537449
_cell_volume                      1942.26811975

loop_
_atom_site_label
_atom_site_type_symbol
_atom_type_description
_atom_site_fract_x
_atom_site_fract_y
_atom_site_fract_z
_atom_type_partial_charge
C1    C     C_R   0.516063 0.265498 0.500479 0.973198
C2    C     C_R   0.858620 0.612578 0.449837 -0.062800
C3    C     C_R   0.581599 0.113098 0.734580 0.476745
C4    C     C_R   0.365933 0.517116 0.499834 1.020934
C5    C     C_R   0.580522 0.038219 0.853146 -0.322821
C6    C     C_R   0.532182 0.932162 0.866625 0.410886
C7    C     C_R   0.490553 0.894704 0.754661 0.479544
C8    C     C_R   0.509424 0.946646 0.626035 -0.116484
C9    C     C_R   0.543261 0.067731 0.621687 -0.028614
C10   C     C_R   0.541083 0.136293 0.500405 -0.124070
C11   C     C_R   0.542561 0.071122 0.378920 -0.056771
C12   C     C_R   0.294960 0.575587 0.495598 -0.160448
C13   C     C_R   0.520866 0.943326 0.380025 -0.253692
C14   C     C_R   0.502049 0.880609 0.501978 -0.074230
C15   C     C_R   0.379395 0.391880 0.141532 -0.116255
C16   C     C_R   0.497148 0.742210 0.499997 0.868709
C17   C     C_R   0.313211 0.394212 0.072979 -0.281132
C18   C     C_R   0.315117 0.377244 0.932501 0.431237
C19   C     C_R   0.382200 0.380866 0.867132 -0.045974
C20   C     C_R   0.442128 0.443051 0.929906 0.016720
C21   C     C_R   0.441333 0.445873 0.073810 0.093689
C22   C     C_R   0.554897 0.554921 0.069963 -0.058428
C23   C     C_R   0.935732 0.643436 0.437505 0.275168
C24   C     C_R   0.554260 0.556616 0.927139 0.011124
C25   C     C_R   0.636116 0.502679 0.499420 0.910539
C26   C     C_R   0.253948 0.598193 0.612174 0.448587
C27   C     C_R   0.184490 0.643255 0.599433 -0.086557
C28   C     C_R   0.157980 0.675284 0.470363 -0.128182
C29   C     C_R   0.203866 0.675007 0.357026 -0.034210
C30   C     C_R   0.271301 0.623247 0.371148 -0.246862
C31   C     C_2   0.387559 0.271283 0.217713 1.010803
C32   C     C_2   0.243364 0.394361 0.147202 0.966047
C33   C     C_2   0.392518 0.268435 0.784328 1.024467
C34   C     C_R   0.080216 0.674009 0.449415 0.374101
C35   C     C_2   0.140339 0.653501 0.723079 1.007248
C36   C     C_2   0.182422 0.727468 0.223013 0.953339
C37   C     C_2   0.732040 0.567158 0.743479 0.931647
C38   C     C_2   0.571606 0.133539 0.254193 0.977853
C39   C     C_R   0.827792 0.615001 0.578478 -0.217435
C40   C     C_R   0.757267 0.569048 0.602269 -0.025955
C41   C     C_R   0.715215 0.524064 0.492621 -0.192749
C42   C     C_R   0.747566 0.518939 0.364394 -0.159975
C43   C     C_R   0.817799 0.564479 0.341079 0.470141
H1    H     H_    0.615482 0.065163 0.935431 0.185939
H2    H     H_    0.567728 0.885146 0.043200 0.350327
H3    H     H_    0.422356 0.791075 0.864685 0.380126
H4    H     H_    0.363546 0.162514 0.382061 0.331112
H5    H     H_    0.138262 0.434065 0.143274 0.349280
H6    H     H_    0.222910 0.283294 0.922194 0.360064
H7    H     H_    0.359351 0.160794 0.628715 0.333674
H8    H     H_    0.101317 0.568065 0.892888 0.365903
H9    H     H_    0.114054 0.832747 0.115627 0.369947
H10   H     H_    0.727060 0.660930 0.918682 0.339628
H11   H     H_    0.884128 0.626008 0.200268 0.350284
H12   H     H_    0.522027 0.891865 0.286529 0.213449
H13   H     H_    0.637882 0.270019 0.170094 0.338900
H14   H     H_    0.599673 0.600534 0.122153 0.131522
H15   H     H_    0.597643 0.605650 0.872569 0.149550
H16   H     H_    0.305696 0.619844 0.283258 0.204857
H17   H     H_    0.860313 0.647234 0.662766 0.201446
H18   H     H_    0.717133 0.484424 0.278611 0.197007
H19   H     H_    0.326587 0.631052 0.743985 0.354907
H20   H     H_    0.647501 0.240237 0.811129 0.367515
N1    N     N_R   0.049082 0.579893 0.375198 -0.147215
N2    N     N_R   0.978035 0.564652 0.369547 -0.130283
N3    N     N_R   0.966882 0.739628 0.509224 -0.132213
N4    N     N_R   0.038070 0.755050 0.514584 -0.084415
N5    N     N_R   0.499340 0.498800 0.142780 -0.107345
N6    N     N_R   0.499320 0.498720 0.857170 -0.106664
O1    O     O_R   0.500000 0.316780 0.614690 -0.577141
O2    O     O_3   0.624509 0.223238 0.723009 -0.712097
O3    O     O_3   0.526239 0.861873 0.985060 -0.767413
O4    O     O_3   0.430507 0.813156 0.768337 -0.754668
O5    O     O_2   0.418422 0.185068 0.164599 -0.588064
O6    O     O_R   0.355774 0.251036 0.344363 -0.723579
O7    O     O_2   0.239359 0.361851 0.265718 -0.568368
O8    O     O_R   0.182038 0.436191 0.082123 -0.730755
O9    O     O_3   0.255365 0.334508 0.861199 -0.615047
O10   O     O_2   0.435342 0.190331 0.821018 -0.628918
O11   O     O_R   0.348955 0.244478 0.672417 -0.712683
O12   O     O_R   0.499990 0.316750 0.385360 -0.611686
O13   O     O_2   0.113398 0.754031 0.749694 -0.598304
O14   O     O_R   0.132020 0.549212 0.811742 -0.675768
O15   O     O_2   0.218385 0.708094 0.122677 -0.579862
O16   O     O_R   0.122561 0.802688 0.211559 -0.780892
O17   O     O_2   0.705369 0.469224 0.793767 -0.608102
O18   O     O_R   0.743862 0.675071 0.822153 -0.804587
O19   O     O_3   0.843269 0.563072 0.210380 -0.740556
O20   O     O_2   0.550995 0.096905 0.144695 -0.604154
O21   O     O_R   0.622926 0.234388 0.261986 -0.797840
O22   O     O_R   0.398140 0.500000 0.614700 -0.611362
O23   O     O_R   0.398130 0.499970 0.385370 -0.612585
O24   O     O_R   0.500010 0.683250 0.614640 -0.592598
O25   O     O_R   0.500000 0.683220 0.385310 -0.632872
O26   O     O_R   0.601870 0.500030 0.614630 -0.581001
O27   O     O_R   0.601860 0.500000 0.385300 -0.622359
O28   O     O_3   0.280610 0.580334 0.739547 -0.677430
Zn1   Zn    Zn3+2 0.500000 0.500020 0.653130 1.020315
Zn2   Zn    Zn3+2 0.500000 0.499980 0.346870 0.983995

loop_
_geom_bond_atom_site_label_1
_geom_bond_atom_site_label_2
_ccdc_geom_bond_type
C41   C42   A    
C19   C20   A    
C22   H14   S    
O26   Zn1   S    
C7    C8    A    
C7    O4    S    
C6    O3    S    
C38   O20   D    
C16   O24   A    
C43   O19   S    
C23   N3    A    
C28   C29   A    
C37   C40   S    
C5    C6    A    
C1    O12   A    
O27   Zn2   S    
H6    O9    S    
C18   C19   A    
C32   O8    S    
C2    C39   A    
C8    C9    A    
C4    C12   S    
C9    C10   A    
C4    O22   A    
N6    Zn1   S    
H13   O21   S    
N3    N4    A    
C28   C34   S    
C13   C14   A    
H2    O3    S    
C35   O13   D    
C24   N6    A    
C37   O17   D    
C19   C33   S    
C25   C41   S    
C39   C40   A    
C35   O14   S    
C33   O10   D    
C31   O5    D    
O12   Zn2   S    
C27   C35   S    
C12   C26   A    
H5    O8    S    
C11   C38   S    
C3    O2    S    
C29   C30   A    
C3    C9    A    
H19   O28   S    
C31   O6    S    
C29   C36   S    
C2    C43   A    
C18   O9    S    
C30   H16   S    
C34   N1    A    
C17   C18   A    
C26   C27   A    
H10   O18   S    
C42   H18   S    
C22   N5    A    
C40   C41   A    
C5    H1    S    
H20   O2    S    
C25   O26   A    
C21   N5    A    
C14   C16   S    
C20   N6    A    
C42   C43   A    
H8    O14   S    
C2    C23   S    
C15   C17   A    
H9    O16   S    
C8    C14   A    
C12   C30   A    
C37   O18   S    
C1    C10   S    
C3    C5    A    
H7    O11   S    
C34   N4    A    
C32   O7    D    
C33   O11   S    
C15   C31   S    
C6    C7    A    
C36   O16   S    
C38   O21   S    
C16   O25   A    
C1    O1    A    
N1    N2    A    
C23   N2    A    
N5    Zn2   S    
H4    O6    S    
H11   O19   S    
C11   C13   A    
O25   Zn2   S    
C36   O15   D    
C39   H17   S    
C22   C24   A    
O22   Zn1   S    
C10   C11   A    
C26   O28   S    
C15   C21   A    
C20   C21   A    
C25   O27   A    
C24   H15   S    
C27   C28   A    
C17   C32   S    
C13   H12   S    
O24   Zn1   S    
H3    O4    S    
O1    Zn1   S    
O23   Zn2   S    
C4    O23   A    
