data_mof_unit_50905.cif
_audit_creation_date              2012-12-10T17:28:38-0500
_audit_creation_method            fapswitch 2.2
_symmetry_space_group_name_H-M    P1
_symmetry_Int_Tables_number       1
_space_group_crystal_system       triclinic
_cell_length_a                    10.615784
_cell_length_b                    12.103183
_cell_length_c                    12.849612
_cell_angle_alpha                 94.437235
_cell_angle_beta                  94.29346
_cell_angle_gamma                 86.897126
_cell_volume                      1639.47063202

loop_
_atom_site_label
_atom_site_type_symbol
_atom_type_description
_atom_site_fract_x
_atom_site_fract_y
_atom_site_fract_z
_atom_type_partial_charge
C1    C     C_R   0.491163 0.522000 0.699835 0.837661
C2    C     C_R   0.452319 0.555595 0.131355 -0.262377
C3    C     C_R   0.488058 0.444594 0.972298 0.177046
C4    C     C_R   0.453485 0.547520 0.024066 0.179605
C5    C     C_R   0.407924 0.941855 0.376646 -0.095564
C6    C     C_R   0.643536 0.052621 0.584358 -0.083664
C7    C     C_R   0.405908 0.830835 0.398823 -0.108019
C8    C     C_R   0.618350 0.166727 0.582147 -0.087975
C9    C     C_R   0.558122 0.860435 0.542595 0.249914
C10   C     C_R   0.451795 0.138149 0.449956 0.254480
C11   C     C_R   0.560416 0.976575 0.526125 -0.032208
C12   C     C_R   0.498089 0.477471 0.299546 0.894125
C13   C     C_R   0.472710 0.019594 0.449032 -0.025847
C14   C     C_R   0.741333 0.501102 0.503311 0.867927
C15   C     C_R   0.263819 0.503698 0.517652 0.892864
C16   C     C_R   0.891846 0.383657 0.676524 0.170852
C17   C     C_R   0.103469 0.722410 0.527575 0.230629
C18   C     C_R   0.960459 0.294263 0.720720 -0.111828
C19   C     C_R   0.045296 0.794776 0.456191 -0.147501
C20   C     C_R   0.088327 0.275935 0.705959 -0.190807
C21   C     C_R   0.939416 0.762741 0.392545 -0.113544
C22   C     C_R   0.149145 0.349580 0.651214 -0.185513
C23   C     C_R   0.488831 0.463095 0.187352 -0.068275
C24   C     C_R   0.883161 0.664373 0.408463 -0.160116
C25   C     C_R   0.078602 0.432508 0.597290 0.062012
C26   C     C_R   0.938601 0.593661 0.483871 0.029414
C27   C     C_R   0.945856 0.439691 0.598561 0.055868
C28   C     C_R   0.061069 0.612324 0.524016 0.072899
C29   C     C_R   0.135730 0.516888 0.551306 -0.226427
C30   C     C_R   0.876733 0.508144 0.525551 -0.214879
C31   C     C_2   0.365221 0.963870 0.267828 0.878924
C32   C     C_2   0.770302 0.022068 0.631607 0.878727
C33   C     C_3   0.785092 0.436623 0.737001 -0.408911
C34   C     C_R   0.475652 0.533084 0.810614 -0.034299
C35   C     C_3   0.833390 0.484736 0.845374 -0.865387
C36   C     C_3   0.187760 0.770654 0.619138 -0.430996
C37   C     C_3   0.125421 0.767012 0.722097 -0.878698
C38   C     C_3   0.343104 0.188030 0.382303 -0.379395
C39   C     C_3   0.214677 0.165178 0.420448 -0.834900
C40   C     C_3   0.634652 0.813674 0.634901 -0.360004
C41   C     C_3   0.579630 0.854653 0.738287 -0.871651
C42   C     C_R   0.424349 0.641339 0.968052 -0.205234
C43   C     C_R   0.517133 0.350491 0.027796 -0.207561
C44   C     C_R   0.435263 0.633895 0.860888 -0.216024
C45   C     C_R   0.517972 0.359825 0.135796 -0.197910
C46   C     C_R   0.497065 0.437927 0.866025 -0.279613
H1    H     H_    0.895478 0.817865 0.336501 0.172387
H2    H     H_    0.411250 0.705905 0.817702 0.165600
H3    H     H_    0.395427 0.720207 0.007159 0.158923
H4    H     H_    0.542756 0.271054 0.988085 0.151547
H5    H     H_    0.680844 0.224158 0.625387 0.149167
H6    H     H_    0.355481 0.772058 0.345473 0.169324
H7    H     H_    0.409992 0.017352 0.131020 0.338883
H8    H     H_    0.945195 0.956930 0.608575 0.338608
H9    H     H_    0.754315 0.529601 0.885153 0.261711
H10   H     H_    0.872398 0.417836 0.894714 0.263324
H11   H     H_    0.907883 0.544214 0.838135 0.267381
H12   H     H_    0.142795 0.211703 0.745995 0.155134
H13   H     H_    0.737777 0.506891 0.697625 0.208236
H14   H     H_    0.716258 0.373423 0.746461 0.216679
H15   H     H_    0.117329 0.679727 0.740913 0.265546
H16   H     H_    0.029691 0.808864 0.717214 0.274736
H17   H     H_    0.183962 0.810022 0.786486 0.253185
H18   H     H_    0.281551 0.727418 0.627568 0.255288
H19   H     H_    0.205632 0.858632 0.608482 0.194863
H20   H     H_    0.193611 0.076458 0.405177 0.262308
H21   H     H_    0.213662 0.187052 0.505674 0.265875
H22   H     H_    0.138977 0.215673 0.379212 0.260566
H23   H     H_    0.918729 0.247062 0.776414 0.177664
H24   H     H_    0.349142 0.276499 0.379779 0.266741
H25   H     H_    0.347098 0.163408 0.298583 0.206891
H26   H     H_    0.597603 0.943212 0.758902 0.276995
H27   H     H_    0.475799 0.845977 0.732085 0.247656
H28   H     H_    0.623427 0.805473 0.802197 0.261784
H29   H     H_    0.639224 0.724218 0.628870 0.264495
H30   H     H_    0.736180 0.827533 0.636300 0.209045
H31   H     H_    0.078701 0.877277 0.452484 0.152673
H32   H     H_    0.251147 0.343239 0.656310 0.180703
H33   H     H_    0.797202 0.644964 0.361661 0.169533
H34   H     H_    0.426464 0.635025 0.171148 0.165757
H35   H     H_    0.524194 0.358305 0.827375 0.162798
H36   H     H_    0.544427 0.287565 0.178786 0.182605
N1    N     N_R   0.523130 0.207800 0.519340 -0.129110
N2    N     N_R   0.476870 0.792200 0.480660 -0.135807
O1    O     O_R   0.506170 0.421700 0.658830 -0.644781
O2    O     O_R   0.448761 0.007752 0.204495 -0.813263
O3    O     O_2   0.799297 0.050715 0.723255 -0.662894
O4    O     O_R   0.859772 0.967590 0.568956 -0.811862
O5    O     O_R   0.493830 0.578300 0.341170 -0.620196
O6    O     O_R   0.491330 0.609310 0.646410 -0.652957
O7    O     O_R   0.508670 0.390690 0.353590 -0.636481
O8    O     O_R   0.690650 0.406190 0.506220 -0.601909
O9    O     O_R   0.309350 0.593810 0.493780 -0.629769
O10   O     O_R   0.675800 0.593810 0.493800 -0.637205
O11   O     O_R   0.324200 0.406190 0.506200 -0.635886
O12   O     O_2   0.260033 0.938205 0.231720 -0.643278
Zn1   Zn    Zn3+2 0.509910 0.374730 0.508290 0.921452
Zn2   Zn    Zn3+2 0.490090 0.625270 0.491710 0.911520

loop_
_geom_bond_atom_site_label_1
_geom_bond_atom_site_label_2
_ccdc_geom_bond_type
C6    C32   S    
C38   H24   S    
C1    O6    A    
C23   C45   A    
C8    N1    A    
C39   H22   S    
C12   O7    A    
C45   H36   S    
C37   H16   S    
C12   C23   S    
C3    C43   A    
C28   C29   A    
C19   C21   A    
C24   C26   A    
C7    H6    S    
C15   O11   A    
C38   C39   S    
O10   Zn2   S    
C31   O12   D    
C32   O4    S    
C10   N1    A    
C19   H31   S    
C17   C19   A    
C41   H28   S    
C22   C25   A    
C1    C34   S    
H7    O2    S    
C34   C46   A    
C17   C36   S    
C5    C13   A    
O1    Zn1   S    
C16   C27   A    
C7    N2    A    
C33   H13   S    
C31   O2    S    
C27   C30   A    
C25   C29   A    
C42   C44   A    
C14   C30   S    
C37   H17   S    
O8    Zn1   S    
C15   C29   S    
C1    O1    A    
C35   H9    S    
C12   O5    A    
C34   C44   A    
C22   H32   S    
C6    C11   A    
C5    C7    A    
C36   H19   S    
C6    C8    A    
C9    N2    A    
C32   O3    D    
C9    C40   S    
C40   H30   S    
C2    C4    A    
C16   C33   S    
C46   H35   S    
C43   C45   A    
C24   H33   S    
O7    Zn1   S    
C9    C11   A    
C8    H5    S    
C14   O8    A    
C41   H26   S    
C40   C41   S    
C20   C22   A    
C26   C30   A    
C33   H14   S    
C39   H20   S    
C20   H12   S    
C3    C4    A    
C38   H25   S    
C36   C37   S    
C35   H10   S    
C17   C28   A    
C39   H21   S    
C10   C13   A    
C15   O9    A    
C37   H15   S    
O11   Zn1   S    
C43   H4    S    
C25   C27   A    
C3    C46   A    
C26   C28   A    
C40   H29   S    
C35   H11   S    
O5    Zn2   S    
C10   C38   S    
N2    Zn2   S    
H8    O4    S    
C11   C13   A    
C4    C42   A    
C18   H23   S    
C33   C35   S    
O6    Zn2   S    
C18   C20   A    
C2    H34   S    
C42   H3    S    
C41   H27   S    
C16   C18   A    
N1    Zn1   S    
C21   C24   A    
C2    C23   A    
C21   H1    S    
C36   H18   S    
O9    Zn2   S    
C14   O10   A    
C44   H2    S    
C5    C31   S    
