data_mof_unit_47387.cif
_audit_creation_date              2012-12-11T14:32:56-0500
_audit_creation_method            fapswitch 2.2
_symmetry_space_group_name_H-M    P1
_symmetry_Int_Tables_number       1
_space_group_crystal_system       triclinic
_cell_length_a                    6.948253
_cell_length_b                    13.748387
_cell_length_c                    17.938678
_cell_angle_alpha                 112.35025
_cell_angle_beta                  95.466486
_cell_angle_gamma                 90.341978
_cell_volume                      1576.03325012

loop_
_atom_site_label
_atom_site_type_symbol
_atom_type_description
_atom_site_fract_x
_atom_site_fract_y
_atom_site_fract_z
_atom_type_partial_charge
O1    O     O_R   0.484560 0.544530 0.414330 -0.536603
O2    O     O_R   0.197040 0.638810 0.585080 -0.540660
O3    O     O_R   0.026800 0.455470 0.585670 -0.542369
C1    C     C_R   0.373973 0.678527 0.610717 0.685736
O4    O     O_R   0.155000 0.556150 0.414940 -0.543082
O5    O     O_R   0.984450 0.372220 0.414320 -0.535928
C2    C     C_R   0.317732 0.565141 0.386639 0.759247
O6    O     O_R   0.526900 0.627780 0.585680 -0.538139
O7    O     O_3   0.339170 0.439750 0.499990 -0.375436
V1    V     V_3+5 0.064350 0.511180 0.500000 1.368502
O8    O     O_R   0.654880 0.361190 0.414920 -0.542528
C3    C     C_R   0.816930 0.324459 0.386481 0.763284
O9    O     O_R   0.696930 0.443850 0.585060 -0.541820
C4    C     C_R   0.873168 0.433621 0.612369 0.692056
V2    V     V_3+5 0.564340 0.488820 0.500000 1.370829
O10   O     O_3   0.839390 0.560250 0.500010 -0.374654
C5    C     C_R   0.043208 0.861115 0.822750 -0.052730
C6    C     C_R   0.906587 0.397344 0.679722 -0.050893
C7    C     C_R   0.929286 0.821598 0.682387 -0.129804
C8    C     C_R   0.976671 0.788345 0.745680 -0.145509
C9    C     C_R   0.056465 0.968851 0.836833 -0.212660
C10   C     C_R   0.005866 0.005233 0.773315 0.098562
C11   C     C_R   0.945355 0.928540 0.695161 0.120709
C12   C     C_R   0.011618 0.114319 0.784379 0.065580
C13   C     C_R   0.959188 0.143981 0.716761 0.056190
C14   C     C_R   0.910312 0.063488 0.639867 -0.169352
C15   C     C_R   0.903051 0.958351 0.629661 -0.225253
C16   C     C_R   0.066909 0.194709 0.860765 -0.177272
C17   C     C_R   0.071285 0.299967 0.871155 -0.218524
C18   C     C_R   0.018204 0.330060 0.806445 0.122387
C19   C     C_R   0.958654 0.253154 0.728268 0.093742
C20   C     C_R   0.025332 0.437331 0.819748 -0.128897
C21   C     C_R   0.971531 0.470506 0.756869 -0.144837
C22   C     C_R   0.901213 0.289403 0.665215 -0.211263
H1    H     H_    0.863350 0.899357 0.569441 0.115578
H2    H     H_    0.853639 0.236447 0.604198 0.094156
H3    H     H_    0.982353 0.553617 0.768378 0.091621
H4    H     H_    0.116566 0.358773 0.930920 0.117497
H5    H     H_    0.879266 0.763376 0.623043 0.139311
H6    H     H_    0.960314 0.705502 0.734477 0.091777
H7    H     H_    0.103498 0.021586 0.897964 0.092255
H8    H     H_    0.875993 0.078901 0.585738 0.128130
H9    H     H_    0.109003 0.179109 0.914289 0.122182
H10   H     H_    0.074346 0.495868 0.879081 0.138886
H11   H     H_    0.114128 0.223844 0.308935 0.155125
H12   H     H_    0.834425 0.034390 0.193750 0.155177
C23   C     C_2   0.135750 0.037508 0.184099 -0.352786
C24   C     C_2   0.972801 0.077729 0.217132 -0.129789
H13   H     H_    0.674628 0.177390 0.294594 0.125138
C25   C     C_2   0.812733 0.220840 0.318461 -0.353155
C26   C     C_2   0.975731 0.180538 0.285518 -0.129606
H14   H     H_    0.273834 0.080994 0.207931 0.125131
C27   C     C_R   0.410077 0.784971 0.676876 -0.065028
C28   C     C_R   0.538144 0.474206 0.824646 -0.059549
C29   C     C_R   0.542383 0.888767 0.814219 -0.124305
C30   C     C_R   0.490612 0.791518 0.752860 -0.137983
C31   C     C_R   0.388004 0.879095 0.662664 -0.216647
C32   C     C_R   0.457385 0.980249 0.722282 0.104108
C33   C     C_R   0.526161 0.982124 0.800065 0.119513
C34   C     C_R   0.456641 0.079627 0.710228 0.042731
C35   C     C_R   0.505576 0.177454 0.779766 0.027569
C36   C     C_R   0.563433 0.172065 0.855367 -0.163348
C37   C     C_R   0.577236 0.076952 0.864616 -0.216689
C38   C     C_R   0.416227 0.087576 0.632858 0.175338
C39   C     C_R   0.393646 0.186301 0.628315 -0.217957
C40   C     C_R   0.433310 0.279787 0.695441 0.072897
C41   C     C_R   0.497926 0.278238 0.771939 0.097175
C42   C     C_R   0.414908 0.375372 0.684847 -0.114331
C43   C     C_R   0.465341 0.470987 0.748520 -0.139497
C44   C     C_R   0.551545 0.378240 0.836804 -0.195496
H15   H     H_    0.627060 0.077855 0.924047 0.117008
H16   H     H_    0.602948 0.384803 0.897137 0.089633
H17   H     H_    0.446854 0.543002 0.738112 0.089210
H18   H     H_    0.353044 0.190502 0.569686 0.124341
H19   H     H_    0.598516 0.890946 0.873288 0.139343
H20   H     H_    0.512586 0.721018 0.765147 0.091736
H21   H     H_    0.309676 0.869867 0.605906 0.124949
H22   H     H_    0.362019 0.376106 0.626352 0.145252
H23   H     H_    0.334354 0.667790 0.194790 0.154477
C45   C     C_2   0.314336 0.602552 0.319045 -0.348717
C46   C     C_2   0.476637 0.611289 0.285539 -0.128823
H24   H     H_    0.772944 0.636160 0.206931 0.125984
C47   C     C_2   0.634901 0.656097 0.183793 -0.350236
C48   C     C_2   0.472720 0.647578 0.217450 -0.129182
H25   H     H_    0.176319 0.622451 0.295853 0.125868
O11   O     O_R   0.421600 0.630430 0.917010 -0.538884
O12   O     O_R   0.793840 0.702190 0.087630 -0.542999
O13   O     O_R   0.964010 0.886170 0.088190 -0.536092
C49   C     C_R   0.631250 0.693282 0.116066 0.758009
O14   O     O_R   0.751460 0.619510 0.917500 -0.539938
O15   O     O_R   0.921330 0.802900 0.916840 -0.542498
C50   C     C_R   0.574376 0.579439 0.892293 0.683013
O16   O     O_R   0.464290 0.713700 0.088350 -0.537349
O17   O     O_3   0.609200 0.818520 0.002630 -0.373353
V3    V     V_3+5 0.884140 0.747190 0.002530 1.370224
O18   O     O_R   0.251150 0.814630 0.917340 -0.540396
C51   C     C_R   0.075066 0.824830 0.890112 0.691529
O19   O     O_R   0.293530 0.897310 0.087470 -0.542547
C52   C     C_R   0.131524 0.933948 0.116013 0.762873
V4    V     V_3+5 0.384070 0.769710 0.002370 1.374210
O20   O     O_3   0.109180 0.698190 0.002460 -0.375133
H26   H     H_    0.602048 0.240848 0.909438 0.122795
C53   C     C_3   0.416545 0.997426 0.551766 -0.812912
H27   H     H_    0.522883 0.938891 0.554317 0.210594
H28   H     H_    0.268109 0.961519 0.529588 0.207941
H29   H     H_    0.463600 0.025096 0.505355 0.202248
H30   H     H_    0.615000 0.591138 0.308250 0.154084

loop_
_geom_bond_atom_site_label_1
_geom_bond_atom_site_label_2
_ccdc_geom_bond_type
C13   C19   A    
C38   C53   S    
C40   C42   A    
C29   C30   A    
C46   H30   S    
C30   H20   S    
C29   C33   A    
C1    C27   S    
C4    C6    S    
O2    C1    A    
C7    C8    A    
C1    O6    A    
O14   V3    S    
C14   C15   A    
C17   C18   A    
C16   C17   A    
O5    C3    A    
H23   C48   S    
C8    H6    S    
H11   C26   S    
C32   C34   A    
V2    O10   S    
O19   C52   A    
C5    C8    A    
C23   C52   S    
O8    V2    S    
C24   C26   S    
C23   C24   D    
C42   C43   A    
O12   V3    S    
C17   H4    S    
C43   H17   S    
O1    V2    S    
C11   C15   A    
O11   V4    S    
O7    V1    S    
C29   H19   S    
C40   C41   A    
O13   V3    S    
O9    C4    A    
C49   O16   A    
O17   V3    S    
C42   H22   S    
C47   C49   S    
H12   C24   S    
C31   H21   S    
C12   C13   A    
O4    C2    A    
C27   C31   A    
C15   H1    S    
C32   C33   A    
C21   H3    S    
C39   H18   S    
C34   C35   A    
C7    C11   A    
C28   C50   S    
C45   H25   S    
C35   C41   A    
O14   C50   A    
C47   C48   D    
C28   C44   A    
O17   V4    S    
O18   C51   A    
C36   C37   A    
C25   C26   D    
C20   H10   S    
C19   C22   A    
C53   H28   S    
O15   C51   A    
C6    C22   A    
O16   V4    S    
O3    C4    A    
C7    H5    S    
C9    H7    S    
C37   H15   S    
H24   C47   S    
O6    V2    S    
O19   V4    S    
O12   C49   A    
C10   C12   A    
O2    V1    S    
C46   C48   S    
C14   H8    S    
C27   C30   A    
O1    C2    A    
C12   C16   A    
C45   C46   D    
O5    V1    S    
V1    O10   S    
C3    C25   S    
O8    C3    A    
C23   H14   S    
C16   H9    S    
C33   C37   A    
C34   C38   A    
C41   C44   A    
C20   C21   A    
O9    V2    S    
C13   C14   A    
O4    V1    S    
O3    V1    S    
O11   C50   A    
C38   C39   A    
C18   C20   A    
C31   C32   A    
C18   C19   A    
C28   C43   A    
O18   V4    S    
V4    O20   S    
C53   H29   S    
C22   H2    S    
C39   C40   A    
O7    V2    S    
C35   C36   A    
C6    C21   A    
C5    C9    A    
O13   C52   A    
O15   V3    S    
H13   C25   S    
C53   H27   S    
C10   C11   A    
C44   H16   S    
C9    C10   A    
C5    C51   S    
V3    O20   S    
C2    C45   S    
C36   H26   S    
