data_mof_unit_45445.cif
_audit_creation_date              2013-03-05T15:59:51-0500
_audit_creation_method            fapswitch 2.2
_symmetry_space_group_name_H-M    P1
_symmetry_Int_Tables_number       1
_space_group_crystal_system       triclinic
_cell_length_a                    8.393968
_cell_length_b                    12.833073
_cell_length_c                    18.632503
_cell_angle_alpha                 96.438671
_cell_angle_beta                  92.487424
_cell_angle_gamma                 99.584827
_cell_volume                      1962.6485786

loop_
_atom_site_label
_atom_site_type_symbol
_atom_site_description
_atom_site_fract_x
_atom_site_fract_y
_atom_site_fract_z
_atom_type_partial_charge
P1    P     P_3+3 0.034960 0.407000 0.339750 0.501382
O1    O     O_2   0.866600 0.438960 0.328790 -0.393233
O2    O     O_3   0.119240 0.440770 0.416170 -0.313757
O3    O     O_3   0.654630 0.636910 0.371550 -0.322244
O4    O     O_2   0.780636 0.560691 0.253960 -0.400643
O5    O     O_3   0.005139 0.268329 0.337506 -0.558358
O6    O     O_3   0.658085 0.720499 0.234873 -0.486599
H1    H     H_    0.662629 0.833564 0.323019 0.115944
C1    C     C_3   0.574453 0.885287 0.224494 -0.097465
H2    H     H_    0.508083 0.945904 0.250291 0.127246
H3    H     H_    0.697034 0.925575 0.215412 0.232199
P2    P     P_3+3 0.674960 0.749840 0.554930 0.494970
P3    P     P_3+3 0.124868 0.829510 0.401508 0.556572
O7    O     O_2   0.849480 0.765610 0.533810 -0.381883
O8    O     O_3   0.077620 0.693060 0.406790 -0.322224
O9    O     O_2   0.008088 0.880867 0.450589 -0.338332
O10   O     O_3   0.696764 0.779038 0.649130 -0.537054
O11   O     O_3   0.059296 0.847371 0.313297 -0.434289
C2    C     C_3   0.152579 0.798338 0.262860 0.249348
H4    H     H_    0.198684 0.729865 0.283031 0.000312
H5    H     H_    0.254722 0.858285 0.250968 0.110635
C3    C     C_3   0.053408 0.751663 0.192199 0.210628
H6    H     H_    0.122569 0.698566 0.160290 0.036876
H7    H     H_    0.940152 0.702751 0.204478 0.156445
C4    C     C_3   0.256613 0.775463 0.615500 0.423074
H8    H     H_    0.386763 0.771500 0.617303 0.117520
H9    H     H_    0.196662 0.734475 0.563242 0.128680
C5    C     C_3   0.235620 0.891300 0.619753 -0.887005
H10   H     H_    0.263413 0.931033 0.675617 0.288874
H11   H     H_    0.318242 0.934568 0.584317 0.223172
H12   H     H_    0.109485 0.896216 0.602778 0.253387
Ba1   Ba    Ba6+2 0.851480 0.550950 0.465800 1.631737
C6    C     C_3   0.860967 0.217458 0.299039 0.831486
H13   H     H_    0.760090 0.259883 0.310428 0.090869
C7    C     C_3   0.879942 0.203598 0.217570 -1.002862
H14   H     H_    0.872664 0.279175 0.195252 0.219259
H15   H     H_    0.780209 0.142305 0.190172 0.255188
H16   H     H_    0.998327 0.180476 0.205501 0.294334
C8    C     C_3   0.739493 0.692336 0.680066 0.409294
H17   H     H_    0.854844 0.674016 0.659650 0.086023
H18   H     H_    0.642705 0.621269 0.668171 0.121320
C9    C     C_3   0.761314 0.721796 0.761732 -0.856587
H19   H     H_    0.862715 0.789528 0.775558 0.268421
H20   H     H_    0.788827 0.653652 0.788484 0.199109
H21   H     H_    0.648448 0.744320 0.782803 0.293741
P4    P     P_3+3 0.154750 0.593090 0.660260 0.487032
O12   O     O_2   0.323100 0.561070 0.671250 -0.351690
O13   O     O_3   0.070470 0.559320 0.583840 -0.401035
O14   O     O_3   0.535090 0.363180 0.628460 -0.386041
O15   O     O_3   0.190954 0.732405 0.675781 -0.555743
P5    P     P_3+3 0.064262 0.168076 0.595040 0.474679
O16   O     O_3   0.609990 0.369010 0.464390 -0.365160
O17   O     O_3   0.112090 0.307030 0.593210 -0.357855
O18   O     O_2   0.174393 0.118784 0.541639 -0.346071
O19   O     O_3   0.137917 0.136738 0.678556 -0.571810
Ba2   Ba    Ba6+2 0.338350 0.449140 0.534210 1.643665
P6    P     P_3+3 0.628585 0.604685 0.276869 0.508745
C10   C     C_3   0.586357 0.798571 0.273062 0.342558
H22   H     H_    0.464100 0.765588 0.288167 -0.007021
O20   O     O_3   0.579720 0.631080 0.535620 -0.354343
C11   C     C_3   0.378979 0.218077 0.313590 0.824669
H23   H     H_    0.328655 0.285174 0.341289 0.053125
C12   C     C_3   0.428258 0.245003 0.239258 -1.032387
H24   H     H_    0.468016 0.175795 0.208211 0.294294
H25   H     H_    0.324690 0.266667 0.208535 0.243753
H26   H     H_    0.531010 0.312577 0.245195 0.225413
P7    P     P_3+3 0.519161 0.234220 0.444664 0.469075
O21   O     O_2   0.340230 0.234420 0.466230 -0.344152
O22   O     O_3   0.514358 0.195472 0.351318 -0.617559
C13   C     C_3   0.013963 0.120436 0.727049 0.913383
H27   H     H_    0.894942 0.132871 0.705052 -0.089995
C14   C     C_3   0.994894 0.006842 0.746733 -0.868574
H28   H     H_    0.112194 0.988508 0.766424 0.243945
H29   H     H_    0.911008 0.996556 0.790761 0.283492
H30   H     H_    0.945971 0.949038 0.699130 0.231918
P8    P     P_3+3 0.562904 0.383198 0.723513 0.503620
C15   C     C_3   0.547191 0.183386 0.730638 0.285582
H31   H     H_    0.680569 0.206170 0.730595 0.045295
O23   O     O_2   0.459604 0.465509 0.752421 -0.335237
O24   O     O_3   0.475407 0.268732 0.759075 -0.451678
H32   H     H_    0.495459 0.154373 0.674571 0.119848
C16   C     C_3   0.510509 0.095050 0.778481 -0.119566
H33   H     H_    0.378471 0.075347 0.783544 0.202117
H34   H     H_    0.571330 0.121055 0.833205 0.208568
N1    N     N_R   0.200323 0.545059 0.952819 -0.037410
N2    N     N_R   0.256059 0.545297 0.021073 -0.034414
C17   C     C_2   0.323071 0.485390 0.292017 -0.360534
C18   C     C_3   0.449695 0.503787 0.238022 0.173048
C19   C     C_2   0.382617 0.524058 0.165056 -0.177382
C20   C     C_2   0.221044 0.503745 0.147611 0.005500
C21   C     C_2   0.109334 0.472300 0.205388 -0.318258
C22   C     C_1   0.167253 0.461286 0.271256 0.274011
N3    N     N_R   0.997447 0.472629 0.050979 -0.062735
N4    N     N_R   0.941749 0.472106 0.982605 -0.054602
C23   C     C_R   0.041942 0.507993 0.931766 0.246343
C24   C     C_R   0.156258 0.508636 0.071785 0.185527
C25   C     C_R   0.083747 0.545091 0.802249 -0.187408
C26   C     C_R   0.032167 0.529579 0.728240 0.283749
C27   C     C_R   0.773481 0.435113 0.756238 0.186388
C28   C     C_R   0.823607 0.449231 0.830187 -0.153021
C29   C     C_R   0.981992 0.501553 0.854088 0.054216
C30   C     C_R   0.880027 0.471226 0.705799 -0.519035
H35   H     H_    0.467950 0.545534 0.124807 0.177886
H36   H     H_    0.979932 0.457754 0.192593 0.174266
H37   H     H_    0.203325 0.589574 0.818890 0.165874
H38   H     H_    0.739445 0.419180 0.868491 0.163747
H39   H     H_    0.366285 0.467792 0.344225 0.173093
H40   H     H_    0.839507 0.460809 0.649106 0.167798
C31   C     C_R   0.759676 0.180309 0.532763 -0.386409
C32   C     C_R   0.436256 0.809098 0.461424 -0.069612
C33   C     C_R   0.397701 0.988311 0.449409 -0.226323
C34   C     C_R   0.339625 0.879404 0.437139 0.088895
C35   C     C_R   0.579750 0.847057 0.506068 0.197323
C36   C     C_R   0.639909 0.959092 0.517128 -0.046209
C37   C     C_R   0.548914 0.029815 0.486731 -0.049071
C38   C     C_R   0.610873 0.140776 0.494971 0.283283
C39   C     C_R   0.852203 0.112279 0.561074 0.158307
C40   C     C_R   0.790912 0.002757 0.554980 -0.118426
H41   H     H_    0.319828 0.039958 0.431766 0.228971
H42   H     H_    0.865643 0.952764 0.577436 0.153141
H43   H     H_    0.809043 0.264302 0.535855 0.159837
Br1   Br    Br    0.808631 0.080469 0.334337 -0.502348
Br2   Br    Br    0.473675 0.825493 0.129960 -0.381359
Br3   Br    Br    0.219051 0.090628 0.299320 -0.441920
S1    S     S_3+6 0.005810 0.846847 0.135277 0.049036
O25   O     O_2   0.140019 0.872972 0.086117 -0.209855
O26   O     O_2   0.853404 0.798906 0.089861 -0.230596
O27   O     O_3   0.977385 0.959030 0.184104 -0.464425
H44   H     H_    0.941301 0.002182 0.147732 0.375623
S2    S     S_3+6 0.067503 0.211832 0.807777 0.001690
O28   O     O_2   0.916684 0.229238 0.844500 -0.330379
O29   O     O_2   0.175824 0.168317 0.858877 -0.234083
O30   O     O_3   0.166103 0.328285 0.787215 -0.451305
H45   H     H_    0.123443 0.334117 0.737811 0.336540
Br4   Br    Br    0.583337 0.968185 0.737567 -0.604989
Br5   Br    Br    0.370680 0.660374 0.432253 -0.456354

loop_
_geom_bond_atom_site_label_1
_geom_bond_atom_site_label_2
_geom_bond_distance
_ccdc_geom_bond_type
C17   C18   1.503366 S    
C12   H25   1.110731 S    
N3    N4    1.336769 A    
C32   Br5   1.905939 S    
C2    H4    1.112597 S    
P8    O23   1.541328 D    
C21   H36   1.082372 S    
O27   H44   0.989885 S    
C36   C37   1.427057 A    
C31   C39   1.391840 A    
O8    Ba1   2.759723 S    
C8    H18   1.110502 S    
C15   H31   1.109074 S    
P8    C27   1.833885 S    
P7    O22   1.751333 S    
P3    O11   1.762070 S    
C11   Br3   1.920468 S    
C33   H41   1.071962 S    
C5    H10   1.103692 S    
C7    H15   1.110718 S    
P1    O1    1.547203 D    
P3    C34   1.875289 S    
N1    N2    1.335363 A    
C6    C7    1.526786 S    
C15   O24   1.400264 S    
C37   C38   1.420972 A    
C13   S2    1.791725 S    
O1    Ba1   2.804385 S    
C1    C10   1.523914 S    
O10   C8    1.399176 S    
C16   Br4   1.923266 S    
C11   C12   1.522553 S    
C4    O15   1.400774 S    
Ba1   O16   2.822532 S    
C31   C38   1.394934 A    
H1    C10   1.112111 S    
C33   C34   1.391047 A    
P2    O10   1.748241 S    
S1    O27   1.672329 S    
C30   H40   1.082313 S    
C13   H27   1.106246 S    
C1    H2    1.109150 S    
O6    C10   1.396712 S    
C11   H23   1.107531 S    
C25   H37   1.082573 S    
S1    O25   1.501055 D    
P4    C26   1.841964 S    
C12   H26   1.108717 S    
C17   C22   1.323065 D    
P2    Ba1   3.462709 S    
Ba1   O13   2.785339 S    
N4    C23   1.361879 A    
C9    H20   1.105242 S    
C14   H30   1.106787 S    
C25   C26   1.409446 A    
C8    C9    1.521698 S    
C32   C34   1.407164 A    
P4    O13   1.545264 S    
P7    O21   1.571857 D    
C2    C3    1.532024 S    
C14   H29   1.108907 S    
C8    H17   1.106899 S    
O11   C2    1.409814 S    
C3    S1    1.786860 S    
C4    H8    1.101326 S    
Ba2   O21   2.903606 S    
P1    Ba1   3.404260 S    
Ba2   O20   2.821947 S    
P1    O2    1.545261 S    
C9    H21   1.110529 S    
O3    P6    1.761767 S    
S2    O29   1.502769 D    
P7    C38   1.845589 S    
O2    Ba2   2.785963 S    
C27   C28   1.405934 A    
C15   H32   1.112682 S    
C7    H16   1.108472 S    
C6    H13   1.096202 S    
O14   P8    1.760493 S    
O3    Ba1   2.796555 S    
C1    H3    1.101023 S    
C32   C35   1.416609 A    
C36   C40   1.419593 A    
O16   P7    1.761358 S    
N2    C24   1.361292 A    
P2    O7    1.520184 D    
N3    C24   1.360399 A    
C16   H34   1.110618 S    
P3    O8    1.744704 S    
C6    Br1   1.934762 S    
P5    C39   1.859523 S    
C3    H7    1.096574 S    
S2    O30   1.676057 S    
C4    H9    1.110152 S    
C9    H19   1.109385 S    
Ba1   O20   2.948249 S    
C21   C22   1.331389 D    
C35   C36   1.430854 A    
O17   Ba2   2.760232 S    
C11   O22   1.398518 S    
O13   Ba2   2.975985 S    
P4    O12   1.547525 D    
C2    H5    1.100492 S    
C5    H12   1.105748 S    
P8    O24   1.742846 S    
O7    Ba1   2.903281 S    
C14   H28   1.106608 S    
C33   C37   1.411926 A    
O5    C6    1.400394 S    
C20   C24   1.503440 S    
P1    C22   1.847149 S    
O14   Ba2   2.795974 S    
P4    O15   1.751519 S    
C28   H38   1.082563 S    
P6    C18   1.871702 S    
O4    P6    1.537250 D    
P5    O18   1.542126 D    
C5    H11   1.104078 S    
S2    O28   1.501939 D    
C10   H22   1.103923 S    
C26   C30   1.389765 A    
C39   C40   1.404052 A    
C19   H35   1.085672 S    
N1    C23   1.360097 A    
C31   H43   1.082653 S    
C20   C21   1.503346 S    
O30   H45   0.988406 S    
C15   C16   1.519468 S    
C28   C29   1.414550 A    
C1    Br2   1.938645 S    
Ba1   Ba2   4.661861 S    
P2    C35   1.883526 S    
P5    O19   1.762146 S    
O2    Ba1   2.975130 S    
C40   H42   1.073126 S    
O19   C13   1.412178 S    
C4    C5    1.519594 S    
C12   H24   1.111327 S    
P2    O20   1.592988 S    
C23   C29   1.500317 S    
C27   C30   1.389407 A    
C17   H39   1.083877 S    
C18   C19   1.514821 S    
C16   H33   1.105580 S    
P3    O9    1.545757 D    
P4    Ba2   3.404839 S    
P1    O5    1.750822 S    
S1    O26   1.502772 D    
C3    H6    1.107076 S    
C13   C14   1.527253 S    
C7    H14   1.106955 S    
P5    O17   1.765950 S    
C19   C20   1.355721 D    
O6    P6    1.742872 S    
C25   C29   1.417179 A    
O16   Ba2   2.947390 S    
O12   Ba2   2.804729 S    
