data_mof_unit_41067.cif
_audit_creation_date              2012-10-26T20:38:00-0400
_audit_creation_method            fapswitch 2.2
_symmetry_space_group_name_H-M    P1
_symmetry_Int_Tables_number       1
_space_group_crystal_system       triclinic
_cell_length_a                    9.845959
_cell_length_b                    11.029266
_cell_length_c                    13.002134
_cell_angle_alpha                 89.951395
_cell_angle_beta                  75.202614
_cell_angle_gamma                 110.844505
_cell_volume                      1269.18346885

loop_
_atom_site_label
_atom_site_type_symbol
_atom_type_description
_atom_site_fract_x
_atom_site_fract_y
_atom_site_fract_z
_atom_type_partial_charge
C1    C     C_R   0.439763 0.254014 0.507591 0.544665
C2    C     C_R   0.698260 0.527681 0.998760 -0.114724
C3    C     C_R   0.307930 0.440608 0.892856 0.269530
C4    C     C_R   0.686217 0.520926 0.108220 0.265451
C5    C     C_R   0.581750 0.508832 0.854545 -0.182054
C6    C     C_R   0.415245 0.471101 0.145877 -0.181482
C7    C     C_R   0.569504 0.502203 0.963248 -0.014791
C8    C     C_R   0.426854 0.470740 0.037320 -0.009907
C9    C     C_2   0.405837 0.114799 0.511547 -0.132515
C10   C     C_2   0.594552 0.885419 0.486296 -0.128923
C11   C     C_2   0.517498 0.069815 0.494728 -0.167985
C12   C     C_R   0.560333 0.746046 0.491847 0.565160
C13   C     C_2   0.483387 0.930632 0.499703 -0.161652
C14   C     C_3   0.871230 0.445561 0.123301 0.010090
C15   C     C_3   0.788514 0.333151 0.213167 -0.257427
C16   C     C_3   0.849188 0.223310 0.193671 -0.494709
C17   C     C_3   0.086655 0.277569 0.885287 -0.006513
C18   C     C_3   0.133431 0.197235 0.796514 -0.251082
C19   C     C_3   0.032738 0.053156 0.821663 -0.484938
C20   C     C_2   0.083094 0.511105 0.491111 -0.025513
C21   C     C_2   0.916860 0.488432 0.508497 -0.038626
C22   C     C_R   0.471668 0.492296 0.703160 0.558311
C23   C     C_R   0.527191 0.502072 0.297004 0.559284
C24   C     C_R   0.544102 0.498963 0.182092 0.006707
C25   C     C_R   0.452634 0.481229 0.818427 0.008020
C26   C     C_R   0.297530 0.440486 0.001986 -0.110724
Cu1   Cu    Cu3+1 0.647370 0.522180 0.481340 0.938268
Cu2   Cu    Cu3+1 0.352630 0.477820 0.518660 0.942158
H1    H     H_    0.305262 0.449896 0.202109 0.129008
H2    H     H_    0.165603 0.586227 0.429401 0.146597
H3    H     H_    0.949809 0.626797 0.395740 0.212942
H4    H     H_    0.050084 0.373322 0.604292 0.199066
H5    H     H_    0.992014 0.486598 0.122313 0.153940
H6    H     H_    0.867729 0.408519 0.043938 0.123583
H7    H     H_    0.803407 0.370074 0.290556 0.206973
H8    H     H_    0.665845 0.293070 0.218777 0.159579
H9    H     H_    0.835210 0.183835 0.116884 0.142174
H10   H     H_    0.785526 0.143338 0.259434 0.156247
H11   H     H_    0.970517 0.259211 0.191741 0.138238
H12   H     H_    0.692601 0.536350 0.798114 0.135069
H13   H     H_    0.968166 0.267425 0.892364 0.137864
H14   H     H_    0.086460 0.236795 0.963812 0.112774
H15   H     H_    0.124829 0.234222 0.719919 0.193567
H16   H     H_    0.252501 0.207310 0.786913 0.157026
H17   H     H_    0.041337 0.013076 0.897142 0.157970
H18   H     H_    0.069417 0.998043 0.755750 0.152018
H19   H     H_    0.913184 0.040070 0.829618 0.146950
H20   H     H_    0.188138 0.415815 0.059015 0.088684
H21   H     H_    0.808308 0.552686 0.941787 0.120276
H22   H     H_    0.366215 0.864768 0.515054 0.158263
H23   H     H_    0.634865 0.135786 0.477689 0.151151
H24   H     H_    0.711504 0.951586 0.471127 0.099432
H25   H     H_    0.288673 0.048569 0.528490 0.101142
H26   H     H_    0.834314 0.413068 0.570008 0.146775
N1    N     N_2   0.131210 0.444490 0.546730 -0.348072
N2    N     N_2   0.868790 0.555510 0.453270 -0.357951
O1    O     O_R   0.578710 0.332530 0.490040 -0.513392
O2    O     O_3   0.178173 0.411715 0.859066 -0.554175
O3    O     O_R   0.421290 0.667470 0.509960 -0.494824
O4    O     O_R   0.329810 0.295070 0.521560 -0.507890
O5    O     O_R   0.670190 0.704930 0.478440 -0.486399
O6    O     O_R   0.604230 0.515670 0.637800 -0.515647
O7    O     O_R   0.395770 0.484330 0.362200 -0.516677
O8    O     O_R   0.355330 0.478200 0.669330 -0.439992
O9    O     O_R   0.644670 0.521800 0.330670 -0.446701
O10   O     O_3   0.815234 0.547765 0.142525 -0.549667

loop_
_geom_bond_atom_site_label_1
_geom_bond_atom_site_label_2
_ccdc_geom_bond_type
C14   H6    S    
C21   N2    D    
C2    C4    A    
C23   C24   S    
C19   H17   S    
C1    O4    A    
Cu1   O9    S    
Cu1   O6    S    
C18   H16   S    
H3    N2    S    
C22   O6    A    
C11   C13   S    
C16   H9    S    
H4    N1    S    
C2    C7    A    
C14   C15   S    
C26   H20   S    
C17   O2    S    
C10   H24   S    
C23   O9    A    
C14   H5    S    
C23   O7    A    
C17   C18   S    
C14   O10   S    
C19   H18   S    
C6    C24   A    
C7    C8    A    
C20   H2    S    
C18   H15   S    
C4    O10   S    
C12   O5    A    
C9    C11   D    
C9    H25   S    
C10   C12   S    
C20   N1    D    
C5    C25   A    
Cu2   O8    S    
C15   H7    S    
C2    H21   S    
Cu2   N1    S    
C19   H19   S    
Cu2   O4    S    
C21   H26   S    
C4    C24   A    
C17   H13   S    
C5    H12   S    
C11   H23   S    
C8    C26   A    
C16   H11   S    
C22   O8    A    
C13   H22   S    
C3    O2    S    
C15   H8    S    
C3    C25   A    
C6    H1    S    
C1    C9    S    
C20   C21   S    
C18   C19   S    
Cu1   O1    S    
Cu2   O3    S    
Cu1   Cu2   S    
C5    C7    A    
Cu2   O7    S    
Cu1   N2    S    
C6    C8    A    
Cu1   O5    S    
C17   H14   S    
C12   O3    A    
C10   C13   D    
C3    C26   A    
C15   C16   S    
C16   H10   S    
C22   C25   S    
C1    O1    A    
