data_mof_unit_25514.cif
_audit_creation_date              2012-12-10T18:48:41-0500
_audit_creation_method            fapswitch 2.2
_symmetry_space_group_name_H-M    P1
_symmetry_Int_Tables_number       1
_space_group_crystal_system       triclinic
_cell_length_a                    15.521373
_cell_length_b                    14.538602
_cell_length_c                    10.093273
_cell_angle_alpha                 90.000565
_cell_angle_beta                  89.212343
_cell_angle_gamma                 90.000711
_cell_volume                      2277.42332585

loop_
_atom_site_label
_atom_site_type_symbol
_atom_type_description
_atom_site_fract_x
_atom_site_fract_y
_atom_site_fract_z
_atom_type_partial_charge
C1    C     C_R   0.119706 0.380618 0.499253 0.844742
C2    C     C_R   0.010152 0.420496 0.930648 0.093329
C3    C     C_R   0.989842 0.420496 0.069349 0.093315
C4    C     C_R   0.992159 0.580599 0.930005 0.101033
C5    C     C_R   0.507848 0.080598 0.069997 0.101037
C6    C     C_R   0.510153 0.920496 0.930648 0.093334
C7    C     C_R   0.489843 0.920496 0.069350 0.093311
C8    C     C_R   0.492154 0.080598 0.930005 0.101035
C9    C     C_R   0.749696 0.321289 0.406047 -0.204279
C10   C     C_R   0.247042 0.683009 0.599022 -0.193183
C11   C     C_R   0.185503 0.756641 0.405189 -0.227348
C12   C     C_R   0.880726 0.620030 0.500373 0.827417
C13   C     C_R   0.810890 0.248110 0.600660 -0.196955
C14   C     C_R   0.250295 0.321280 0.593969 -0.204285
C15   C     C_R   0.753006 0.683066 0.400899 -0.193209
C16   C     C_R   0.814464 0.756608 0.594870 -0.227324
C17   C     C_R   0.189125 0.248127 0.399317 -0.196949
C18   C     C_R   0.249680 0.821307 0.406079 -0.204282
C19   C     C_R   0.747017 0.183038 0.599064 -0.193195
C20   C     C_R   0.685521 0.256623 0.405157 -0.227339
C21   C     C_R   0.310916 0.748080 0.600617 -0.196960
C22   C     C_R   0.750290 0.821273 0.593980 -0.204277
C23   C     C_R   0.880294 0.380617 0.500746 0.844756
C24   C     C_R   0.252997 0.183055 0.400913 -0.193204
C25   C     C_R   0.314468 0.256613 0.594861 -0.227332
C26   C     C_R   0.689136 0.748139 0.399303 -0.196952
C27   C     C_R   0.185235 0.687059 0.500203 0.001501
C28   C     C_R   0.812682 0.315773 0.502667 0.008804
C29   C     C_R   0.814769 0.687066 0.499792 0.001489
C30   C     C_R   0.187320 0.315776 0.497330 0.008804
C31   C     C_R   0.685233 0.187063 0.500206 0.001497
C32   C     C_R   0.312685 0.815769 0.502664 0.008800
C33   C     C_R   0.314767 0.187064 0.499793 0.001492
C34   C     C_R   0.119273 0.620030 0.499626 0.827420
C35   C     C_R   0.687322 0.815777 0.497330 0.008803
C36   C     C_3   0.042876 0.669175 0.129133 -0.385221
C37   C     C_3   0.976866 0.725618 0.211315 -0.268459
C38   C     C_3   0.979972 0.828819 0.182457 -0.979357
C39   C     C_3   0.067422 0.342325 0.882750 -0.340632
C40   C     C_3   0.020575 0.265341 0.808420 -0.320655
C41   C     C_3   0.078769 0.181778 0.787616 -0.910380
C42   C     C_3   0.932574 0.342323 0.117250 -0.340629
C43   C     C_3   0.979424 0.265342 0.191579 -0.320652
C44   C     C_3   0.921230 0.181778 0.212393 -0.910377
C45   C     C_R   0.619707 0.880618 0.499253 0.844740
C46   C     C_3   0.957137 0.669174 0.870875 -0.385266
C47   C     C_3   0.023143 0.725614 0.788680 -0.268425
C48   C     C_3   0.020070 0.828811 0.817567 -0.979359
C49   C     C_3   0.542872 0.169174 0.129128 -0.385243
C50   C     C_3   0.476865 0.225616 0.211316 -0.268443
C51   C     C_3   0.479951 0.328813 0.182435 -0.979356
C52   C     C_3   0.567421 0.842324 0.882750 -0.340642
C53   C     C_3   0.520573 0.765343 0.808416 -0.320633
C54   C     C_3   0.578760 0.681773 0.787626 -0.910399
C55   C     C_3   0.432573 0.842325 0.117250 -0.340624
C56   C     C_R   0.380726 0.120030 0.500374 0.827417
C57   C     C_3   0.479419 0.765341 0.191579 -0.320664
C58   C     C_3   0.421214 0.681788 0.212417 -0.910338
C59   C     C_3   0.457125 0.169170 0.870877 -0.385252
C60   C     C_3   0.523128 0.225615 0.788685 -0.268431
C61   C     C_3   0.520038 0.328813 0.817566 -0.979326
C62   C     C_R   0.380295 0.880615 0.500745 0.844753
C63   C     C_R   0.619273 0.120030 0.499627 0.827427
C64   C     C_R   0.007852 0.580599 0.069998 0.101038
H1    H     H_    0.749955 0.375571 0.332435 0.139699
H2    H     H_    0.746319 0.129294 0.673532 0.142376
H3    H     H_    0.635952 0.262277 0.332324 0.153035
H4    H     H_    0.359226 0.744466 0.676342 0.130641
H5    H     H_    0.750019 0.875540 0.667617 0.139702
H6    H     H_    0.253704 0.129322 0.326428 0.142378
H7    H     H_    0.364027 0.262258 0.667712 0.153043
H8    H     H_    0.640861 0.744564 0.323516 0.130668
H9    H     H_    0.047353 0.854535 0.181938 0.261818
H10   H     H_    0.949718 0.844057 0.086176 0.272594
H11   H     H_    0.942903 0.866312 0.260364 0.266366
H12   H     H_    0.246359 0.629245 0.673459 0.142364
H13   H     H_    0.910159 0.701225 0.193439 0.231299
H14   H     H_    0.991516 0.718369 0.317612 0.238820
H15   H     H_    0.102415 0.653952 0.182239 0.201833
H16   H     H_    0.069517 0.713221 0.049084 0.198682
H17   H     H_    0.138164 0.201300 0.732201 0.282285
H18   H     H_    0.096724 0.151734 0.884602 0.260209
H19   H     H_    0.044098 0.128700 0.729879 0.251426
H20   H     H_    0.962639 0.242324 0.864162 0.202577
H21   H     H_    0.000010 0.289755 0.710521 0.253400
H22   H     H_    0.122933 0.369898 0.826260 0.211924
H23   H     H_    0.135919 0.762310 0.332384 0.153033
H24   H     H_    0.100075 0.311420 0.968987 0.164771
H25   H     H_    0.861837 0.201300 0.267811 0.282286
H26   H     H_    0.903275 0.151730 0.115411 0.260212
H27   H     H_    0.955902 0.128702 0.270131 0.251422
H28   H     H_    0.037358 0.242324 0.135832 0.202573
H29   H     H_    0.999994 0.289760 0.289474 0.253406
H30   H     H_    0.877063 0.369894 0.173741 0.211929
H31   H     H_    0.899922 0.311413 0.031014 0.164773
H32   H     H_    0.952697 0.854545 0.818154 0.261829
H33   H     H_    0.050366 0.844030 0.913822 0.272579
H34   H     H_    0.859181 0.244518 0.676417 0.130655
H35   H     H_    0.057119 0.866304 0.739637 0.266366
H36   H     H_    0.089849 0.701204 0.806523 0.231340
H37   H     H_    0.008473 0.718382 0.682387 0.238805
H38   H     H_    0.897598 0.653941 0.817776 0.201813
H39   H     H_    0.930499 0.713226 0.950921 0.198677
H40   H     H_    0.547326 0.354542 0.181875 0.261828
H41   H     H_    0.449673 0.344035 0.086168 0.272589
H42   H     H_    0.442894 0.366310 0.260353 0.266364
H43   H     H_    0.410159 0.201212 0.193458 0.231317
H44   H     H_    0.491524 0.218378 0.317611 0.238808
H45   H     H_    0.250030 0.375554 0.667596 0.139697
H46   H     H_    0.602411 0.153946 0.182230 0.201822
H47   H     H_    0.569511 0.213222 0.049079 0.198680
H48   H     H_    0.638159 0.701286 0.732215 0.282284
H49   H     H_    0.596706 0.651732 0.884617 0.260211
H50   H     H_    0.544088 0.628695 0.729888 0.251422
H51   H     H_    0.462630 0.742334 0.864149 0.202576
H52   H     H_    0.500018 0.789758 0.710512 0.253399
H53   H     H_    0.622934 0.869896 0.826262 0.211919
H54   H     H_    0.600072 0.811416 0.968987 0.164773
H55   H     H_    0.361828 0.701324 0.267846 0.282287
H56   H     H_    0.753719 0.629339 0.326404 0.142386
H57   H     H_    0.403245 0.651736 0.115442 0.260208
H58   H     H_    0.455883 0.628710 0.270156 0.251417
H59   H     H_    0.537344 0.742309 0.135820 0.202568
H60   H     H_    0.500002 0.789762 0.289466 0.253405
H61   H     H_    0.377061 0.869898 0.173741 0.211942
H62   H     H_    0.399920 0.811416 0.031014 0.164774
H63   H     H_    0.452658 0.354531 0.818171 0.261819
H64   H     H_    0.550342 0.344041 0.913815 0.272577
H65   H     H_    0.557070 0.366314 0.739623 0.266357
H66   H     H_    0.589836 0.201216 0.806538 0.231316
H67   H     H_    0.864019 0.762249 0.667728 0.153032
H68   H     H_    0.508465 0.218375 0.682390 0.238807
H69   H     H_    0.397586 0.153934 0.817778 0.201816
H70   H     H_    0.430484 0.213216 0.950926 0.198673
H71   H     H_    0.140844 0.244545 0.323543 0.130663
H72   H     H_    0.249924 0.875607 0.332494 0.139694
N1    N     N_R   0.000000 0.500000 0.857200 -0.119079
N2    N     N_R   0.000000 0.500000 0.142800 -0.119077
N3    N     N_R   0.500000 1.000000 0.857200 -0.119079
N4    N     N_R   0.500000 1.000000 0.142800 -0.119080
O1    O     O_R   0.091610 0.408380 0.614620 -0.631927
O2    O     O_R   0.408390 0.091620 0.385380 -0.635789
O3    O     O_R   0.408390 0.091620 0.614620 -0.625646
O4    O     O_R   0.591610 0.908380 0.385380 -0.621598
O5    O     O_R   0.408390 0.908380 0.385380 -0.631918
O6    O     O_R   0.591610 0.091620 0.614620 -0.635785
O7    O     O_R   0.591610 0.091620 0.385380 -0.625642
O8    O     O_R   0.408390 0.908380 0.614620 -0.621576
O9    O     O_R   0.908390 0.591620 0.385380 -0.635789
O10   O     O_R   0.908390 0.591620 0.614620 -0.625644
O11   O     O_R   0.091610 0.408380 0.385380 -0.621594
O12   O     O_R   0.908390 0.408380 0.385380 -0.631925
O13   O     O_R   0.091610 0.591620 0.614620 -0.635783
O14   O     O_R   0.091610 0.591620 0.385380 -0.625640
O15   O     O_R   0.908390 0.408380 0.614620 -0.621585
O16   O     O_R   0.591610 0.908380 0.614620 -0.631932
Zn1   Zn    Zn3+2 1.000000 0.500000 0.653120 0.919898
Zn2   Zn    Zn3+2 0.000000 0.500000 0.346880 0.919898
Zn3   Zn    Zn3+2 0.500000 0.000000 0.653120 0.919899
Zn4   Zn    Zn3+2 0.500000 1.000000 0.346880 0.919896

loop_
_geom_bond_atom_site_label_1
_geom_bond_atom_site_label_2
_ccdc_geom_bond_type
C10   C27   A    
C14   H45   S    
C23   O12   A    
C3    C42   S    
C47   H37   S    
O10   Zn1   S    
C23   O15   A    
C12   C29   S    
O15   Zn1   S    
C26   H8    S    
C40   H20   S    
C20   H3    S    
C7    C55   S    
C19   C31   A    
C60   H68   S    
C24   H6    S    
C11   C18   A    
C64   N2    A    
C53   C54   S    
C22   C35   A    
C46   H38   S    
C8    N3    A    
C36   C37   S    
O14   Zn2   S    
C8    C59   S    
C7    N4    A    
C41   H19   S    
C54   H49   S    
C6    N3    A    
C15   H56   S    
C19   H2    S    
C13   H34   S    
C16   H67   S    
C1    C30   S    
C4    N1    A    
C56   O3    A    
C10   H12   S    
C2    C39   S    
C55   H61   S    
C11   H23   S    
C62   O5    A    
C17   H71   S    
C45   O4    A    
C13   C28   A    
C18   H72   S    
C25   H7    S    
O4    Zn4   S    
O9    Zn2   S    
C63   O6    A    
C53   H52   S    
C61   H65   S    
C49   H47   S    
C56   O2    A    
C52   H53   S    
C33   C56   S    
N3    Zn3   S    
C59   C60   S    
C10   C21   A    
C62   O8    A    
C50   H44   S    
C17   C30   A    
C5    C49   S    
C39   H24   S    
C14   C30   A    
O7    Zn4   S    
C63   O7    A    
C15   C29   A    
C38   H11   S    
C34   O14   A    
C27   C34   S    
C21   C32   A    
O12   Zn2   S    
C58   H58   S    
C17   C24   A    
C13   C19   A    
C42   H31   S    
O11   Zn2   S    
C31   C63   S    
C36   H16   S    
C60   H66   S    
C39   C40   S    
C45   O16   A    
O5    Zn4   S    
C15   C26   A    
C4    C46   S    
O6    Zn3   S    
C51   H40   S    
C37   H13   S    
C59   H69   S    
C47   H36   S    
C60   C61   S    
O8    Zn3   S    
C40   H21   S    
C43   C44   S    
C37   C38   S    
C48   H33   S    
C12   O10   A    
C57   H59   S    
N2    Zn2   S    
C9    C20   A    
C47   C48   S    
C55   H62   S    
C11   C27   A    
C51   H41   S    
C41   H17   S    
C50   C51   S    
C54   H48   S    
C61   H63   S    
C3    N2    A    
C23   C28   S    
C44   H27   S    
O1    Zn1   S    
C40   C41   S    
C55   C57   S    
C21   H4    S    
C50   H43   S    
C18   C32   A    
C42   C43   S    
C35   C45   S    
C44   H26   S    
C52   C53   S    
C5    N4    A    
C38   H10   S    
C34   O13   A    
C48   H35   S    
C46   C47   S    
C58   H57   S    
C16   C22   A    
C48   H32   S    
C42   H30   S    
C2    N1    A    
C12   O9    A    
O16   Zn3   S    
C24   C33   A    
O2    Zn4   S    
C36   H15   S    
C5    C8    A    
O3    Zn3   S    
C6    C7    A    
C46   H39   S    
C4    C64   A    
C59   H70   S    
C43   H28   S    
N1    Zn1   S    
C2    C3    A    
C16   C29   A    
C32   C62   S    
N4    Zn4   S    
C57   H60   S    
C57   C58   S    
C51   H42   S    
C41   H18   S    
C54   H50   S    
C58   H55   S    
C43   H29   S    
C1    O11   A    
C61   H64   S    
C14   C25   A    
O13   Zn1   S    
C9    H1    S    
C1    O1    A    
C26   C35   A    
C49   C50   S    
C22   H5    S    
C39   H22   S    
C6    C52   S    
C36   C64   S    
C37   H14   S    
C38   H9    S    
C44   H25   S    
C53   H51   S    
C9    C28   A    
C25   C33   A    
C49   H46   S    
C20   C31   A    
C52   H54   S    
