data_mof_unit_25222.cif
_audit_creation_date              2012-12-10T17:40:26-0500
_audit_creation_method            fapswitch 2.2
_symmetry_space_group_name_H-M    P1
_symmetry_Int_Tables_number       1
_space_group_crystal_system       triclinic
_cell_length_a                    13.806511
_cell_length_b                    15.007649
_cell_length_c                    15.796277
_cell_angle_alpha                 88.111825
_cell_angle_beta                  70.945315
_cell_angle_gamma                 91.547078
_cell_volume                      3089.55181427

loop_
_atom_site_label
_atom_site_type_symbol
_atom_type_description
_atom_site_fract_x
_atom_site_fract_y
_atom_site_fract_z
_atom_type_partial_charge
C1    C     C_R   0.501006 0.671225 0.499329 0.822079
C2    C     C_R   0.500524 0.328965 0.495729 0.825082
C3    C     C_R   0.369540 0.495701 0.100103 -0.223372
C4    C     C_R   0.587762 0.407624 0.925604 -0.223840
C5    C     C_R   0.299410 0.503339 0.053805 -0.229765
C6    C     C_R   0.649158 0.381966 0.976008 -0.225984
C7    C     C_R   0.415828 0.182033 0.543121 -0.304102
C8    C     C_R   0.574997 0.816560 0.427629 -0.319391
C9    C     C_R   0.500186 0.232325 0.487654 -0.158936
C10   C     C_R   0.501088 0.768131 0.496925 -0.167472
C11   C     C_R   0.581291 0.190743 0.424278 0.366802
C12   C     C_R   0.420477 0.811101 0.558662 0.396183
C13   C     C_R   0.574718 0.097079 0.415785 -0.096320
C14   C     C_R   0.410189 0.903438 0.546214 -0.108420
C15   C     C_R   0.492025 0.046801 0.478124 -0.025011
C16   C     C_R   0.491051 0.953064 0.481185 -0.026701
C17   C     C_R   0.410972 0.090052 0.539062 0.077052
C18   C     C_R   0.572034 0.909178 0.420608 0.079652
C19   C     C_R   0.647464 0.051528 0.347442 0.437185
C20   C     C_R   0.322185 0.948129 0.596637 0.430393
C21   C     C_R   0.647337 0.958336 0.352536 -0.291316
C22   C     C_R   0.325315 0.040873 0.594926 -0.281907
C23   C     C_R   0.438652 0.502927 0.672350 0.792901
C24   C     C_R   0.561827 0.497976 0.328167 0.805653
C25   C     C_R   0.232912 0.536499 0.427840 0.501022
C26   C     C_R   0.766532 0.455204 0.568241 0.493155
C27   C     C_R   0.176504 0.467046 0.574228 0.482492
C28   C     C_R   0.820864 0.542865 0.430922 0.509540
C29   C     C_R   0.072481 0.471392 0.576889 -0.093534
C30   C     C_R   0.925612 0.530986 0.423548 -0.092871
C31   C     C_R   0.051018 0.497953 0.499226 0.020645
C32   C     C_R   0.947853 0.497678 0.498980 0.028344
C33   C     C_R   0.132008 0.528231 0.423014 -0.078219
C34   C     C_R   0.866848 0.465915 0.574924 -0.118410
C35   C     C_R   0.989219 0.452044 0.656097 -0.171058
C36   C     C_R   0.008131 0.552221 0.344526 -0.203240
C37   C     C_R   0.888201 0.448853 0.654984 -0.202709
C38   C     C_R   0.109779 0.551327 0.344389 -0.183401
C39   C     C_R   0.404286 0.506515 0.771508 -0.078495
C40   C     C_R   0.595699 0.480232 0.232323 -0.051724
C41   C     C_R   0.264372 0.512506 0.912676 -0.226987
C42   C     C_R   0.693407 0.389416 0.112204 -0.224750
C43   C     C_R   0.299216 0.511789 0.819334 -0.251271
C44   C     C_R   0.673032 0.419553 0.198526 -0.214024
C45   C     C_R   0.474918 0.503429 0.819944 0.119095
C46   C     C_R   0.540233 0.512298 0.177938 0.120660
C47   C     C_R   0.436854 0.485141 0.913556 0.063093
C48   C     C_R   0.545701 0.467389 0.099410 0.064321
C49   C     C_R   0.332766 0.500003 0.960295 0.138111
C50   C     C_R   0.629903 0.412618 0.062318 0.135097
C51   C     C_R   0.501228 0.459007 0.962958 0.066878
C52   C     C_R   0.472860 0.477653 0.054484 0.071608
Cu1   Cu    Cu3+1 0.402580 0.500010 0.499990 1.004375
Cu2   Cu    Cu3+1 0.597420 0.499990 0.500010 0.997922
H1    H     H_    0.219731 0.514084 0.090934 0.139543
H2    H     H_    0.712897 0.339668 0.946775 0.136397
H3    H     H_    0.001480 0.439268 0.719605 0.162926
H4    H     H_    0.994577 0.569109 0.282319 0.150589
H5    H     H_    0.827006 0.436344 0.717912 0.143323
H6    H     H_    0.170865 0.569286 0.282530 0.157686
H7    H     H_    0.716981 0.394828 0.239172 0.177835
H8    H     H_    0.243946 0.518430 0.784473 0.209450
H9    H     H_    0.183715 0.521394 0.947639 0.143986
H10   H     H_    0.755955 0.345149 0.085946 0.133931
H11   H     H_    0.340394 0.496342 0.172434 0.170594
H12   H     H_    0.603910 0.381325 0.859746 0.156587
H13   H     H_    0.355571 0.214383 0.592464 0.148971
H14   H     H_    0.633958 0.781804 0.378762 0.157944
H15   H     H_    0.706690 0.924432 0.302849 0.151945
H16   H     H_    0.259608 0.074169 0.637116 0.155394
N1    N     N_R   0.256170 0.500070 0.500040 -0.255288
N2    N     N_R   0.743830 0.499930 0.499960 -0.247943
O1    O     O_R   0.417730 0.629750 0.499970 -0.566351
O2    O     O_R   0.582270 0.370250 0.500030 -0.556302
O3    O     O_R   0.582270 0.629730 0.499980 -0.586198
O4    O     O_R   0.417730 0.370270 0.500020 -0.593420
O5    O     O_R   0.371590 0.500020 0.629830 -0.522212
O6    O     O_R   0.628410 0.499980 0.370170 -0.546016
O7    O     O_R   0.536130 0.499990 0.629840 -0.537551
O8    O     O_R   0.463870 0.500010 0.370160 -0.534105
O9    O     O_3   0.307075 0.584654 0.360456 -0.609057
C53   C     C_3   0.306240 0.676332 0.380529 0.101193
H17   H     H_    0.387377 0.700112 0.364055 0.178959
H18   H     H_    0.267364 0.689571 0.452734 0.130934
C54   C     C_3   0.257863 0.731898 0.322738 -0.429186
H19   H     H_    0.280647 0.707201 0.253743 0.230097
H20   H     H_    0.172998 0.725778 0.352330 0.217302
C55   C     C_3   0.291397 0.830385 0.316846 -0.907741
H21   H     H_    0.272045 0.857250 0.384667 0.251427
H22   H     H_    0.251536 0.869096 0.277940 0.259868
H23   H     H_    0.375451 0.839071 0.282438 0.259858
O10   O     O_3   0.688717 0.404355 0.631268 -0.586426
C56   C     C_3   0.718400 0.316725 0.645079 0.030803
H24   H     H_    0.749908 0.314267 0.701156 0.136696
H25   H     H_    0.777028 0.292091 0.584711 0.121551
C57   C     C_3   0.623638 0.253362 0.673173 -0.319025
H26   H     H_    0.569226 0.273650 0.738001 0.212324
H27   H     H_    0.584281 0.257206 0.622587 0.226861
C58   C     C_3   0.651896 0.156906 0.683092 -0.937557
H28   H     H_    0.703953 0.134694 0.618126 0.249697
H29   H     H_    0.581296 0.113046 0.703874 0.263000
H30   H     H_    0.690110 0.150352 0.734794 0.257109
O11   O     O_3   0.196211 0.440590 0.651240 -0.592758
C59   C     C_3   0.183864 0.346966 0.665034 0.034635
H31   H     H_    0.241951 0.314517 0.610524 0.156746
H32   H     H_    0.107090 0.321568 0.666081 0.126947
C60   C     C_3   0.196688 0.322209 0.755429 -0.329404
H33   H     H_    0.276865 0.338516 0.752121 0.221963
H34   H     H_    0.144358 0.362180 0.808020 0.222437
C61   C     C_3   0.171972 0.223661 0.782378 -0.935739
H35   H     H_    0.094682 0.203686 0.780468 0.255304
H36   H     H_    0.173353 0.211068 0.851630 0.262558
H37   H     H_    0.230383 0.182628 0.737046 0.250495
O12   O     O_3   0.793525 0.597316 0.370341 -0.585275
C62   C     C_3   0.832533 0.686980 0.365823 0.047818
H38   H     H_    0.795980 0.726834 0.325085 0.155072
H39   H     H_    0.915501 0.693598 0.327872 0.133650
C63   C     C_3   0.810832 0.730161 0.457316 -0.378732
H40   H     H_    0.728219 0.724047 0.496346 0.249480
H41   H     H_    0.853823 0.696810 0.496996 0.203806
C64   C     C_3   0.843638 0.828895 0.444900 -0.918539
H42   H     H_    0.927167 0.837243 0.408100 0.261693
H43   H     H_    0.826759 0.858380 0.511483 0.261376
H44   H     H_    0.801104 0.865201 0.406835 0.263524
C65   C     C_3   0.502657 0.606490 0.188800 -0.816502
H45   H     H_    0.537989 0.645926 0.124798 0.218164
H46   H     H_    0.419049 0.608675 0.206203 0.261648
H47   H     H_    0.525535 0.641148 0.240742 0.211909
C66   C     C_3   0.583803 0.543115 0.780338 -0.796368
H48   H     H_    0.604975 0.581141 0.831297 0.211510
H49   H     H_    0.639967 0.491201 0.758020 0.261680
H50   H     H_    0.593387 0.591885 0.724062 0.238691
O13   O     O_3   0.662544 0.242949 0.367939 -0.614696
C67   C     C_3   0.746424 0.238997 0.400438 0.110260
H51   H     H_    0.774629 0.170129 0.398871 0.166141
H52   H     H_    0.724104 0.260429 0.470337 0.141755
C68   C     C_3   0.833463 0.301563 0.342059 -0.330361
H53   H     H_    0.853382 0.283481 0.270875 0.226160
H54   H     H_    0.807680 0.371244 0.347597 0.223990
C69   C     C_3   0.928878 0.296194 0.370330 -0.930751
H55   H     H_    0.911404 0.315012 0.440926 0.246931
H56   H     H_    0.990012 0.342954 0.326962 0.268879
H57   H     H_    0.957629 0.227502 0.363309 0.259628
O14   O     O_3   0.352579 0.760815 0.629772 -0.602713
C70   C     C_3   0.368368 0.781211 0.711585 0.106858
H58   H     H_    0.305863 0.745859 0.766494 0.178872
H59   H     H_    0.362228 0.853399 0.725004 0.163004
C71   C     C_3   0.471554 0.750139 0.715774 -0.421815
H60   H     H_    0.481367 0.680900 0.693834 0.223176
H61   H     H_    0.535077 0.792932 0.669558 0.210645
C72   C     C_3   0.477020 0.754849 0.810496 -0.892938
H62   H     H_    0.461695 0.823316 0.834908 0.252418
H63   H     H_    0.554828 0.737992 0.810329 0.256990
H64   H     H_    0.420041 0.706754 0.856860 0.270185
O15   O     O_3   0.722882 0.096182 0.277473 -0.607548
C73   C     C_3   0.680226 0.130344 0.213334 0.132560
H65   H     H_    0.724862 0.192571 0.182239 0.171156
H66   H     H_    0.598789 0.149381 0.242817 0.139347
C74   C     C_3   0.689832 0.063838 0.139894 -0.401251
H67   H     H_    0.771202 0.045681 0.110722 0.230944
H68   H     H_    0.642713 0.002259 0.169267 0.215382
C75   C     C_3   0.653754 0.103378 0.065566 -0.910426
H69   H     H_    0.572021 0.120838 0.093085 0.260760
H70   H     H_    0.661388 0.053761 0.013392 0.258447
H71   H     H_    0.701044 0.164235 0.033947 0.250088
O16   O     O_3   0.234597 0.903337 0.652938 -0.609762
C76   C     C_3   0.177632 0.865605 0.602077 0.124427
H72   H     H_    0.126256 0.811642 0.644755 0.176320
H73   H     H_    0.226719 0.833333 0.541310 0.128572
C77   C     C_3   0.111500 0.935259 0.576653 -0.401197
H74   H     H_    0.065646 0.968804 0.637731 0.232155
H75   H     H_    0.161615 0.986485 0.528681 0.215125
C78   C     C_3   0.039068 0.892363 0.533290 -0.929902
H76   H     H_    0.083109 0.858294 0.472027 0.263271
H77   H     H_    0.993804 0.944746 0.514254 0.262604
H78   H     H_    0.985330 0.843055 0.580969 0.262007

loop_
_geom_bond_atom_site_label_1
_geom_bond_atom_site_label_2
_ccdc_geom_bond_type
C4    H12   S    
C45   C66   S    
C56   H24   S    
O13   C67   S    
C27   C29   A    
C34   C37   A    
C19   O15   S    
C55   H22   S    
C46   C65   S    
C69   H57   S    
C67   C68   S    
C59   H32   S    
O12   C62   S    
C27   N1    A    
C76   H73   S    
C28   N2    A    
C78   H76   S    
C40   C46   A    
C68   H54   S    
C73   H65   S    
C35   C37   A    
C69   H56   S    
C75   H69   S    
C36   H4    S    
C11   O13   S    
C78   H78   S    
C77   H74   S    
C26   O10   S    
C15   C16   A    
C18   C21   A    
C57   C58   S    
C26   N2    A    
C7    C9    A    
C72   H64   S    
C63   H41   S    
C63   H40   S    
C64   H44   S    
Cu2   O2    S    
C26   C34   A    
C31   C32   A    
C7    C17   A    
C57   H27   S    
C65   H47   S    
C72   H62   S    
C71   C72   S    
C25   N1    A    
C2    O2    A    
C39   C45   A    
C66   H50   S    
C54   H20   S    
C65   H45   S    
C56   H25   S    
C25   O9    S    
C41   C43   A    
C5    C49   A    
C3    H11   S    
C42   C44   A    
C41   C49   A    
C59   H31   S    
C70   H59   S    
C24   O8    A    
C70   H58   S    
C76   C77   S    
C75   H70   S    
C78   H77   S    
C39   C43   A    
C68   C69   S    
C46   C48   A    
C13   C19   A    
C4    C51   A    
C51   C52   A    
C1    O3    A    
C14   C20   A    
Cu1   O8    S    
C69   H55   S    
C4    C6    A    
C76   H72   S    
C47   C51   A    
C62   H39   S    
C54   H19   S    
O9    C53   S    
C12   O14   S    
C21   H15   S    
C63   C64   S    
C32   C34   A    
Cu1   O5    S    
C75   H71   S    
C74   H67   S    
C55   H23   S    
C40   C44   A    
C60   H33   S    
C62   C63   S    
C57   H26   S    
C31   C33   A    
C74   C75   S    
Cu2   N2    S    
C61   H35   S    
C16   C18   A    
C23   O5    A    
C48   C50   A    
C9    C11   A    
C61   H37   S    
C64   H42   S    
C37   H5    S    
C10   C12   A    
C42   C50   A    
C38   H6    S    
C71   H61   S    
C24   O6    A    
C58   H29   S    
C20   C22   A    
C8    H14   S    
C56   C57   S    
C53   H18   S    
C13   C15   A    
O16   C76   S    
C60   C61   S    
C14   C16   A    
Cu1   O4    S    
C41   H9    S    
C36   C38   A    
Cu1   N1    S    
C42   H10   S    
O11   C59   S    
C70   C71   S    
C2    O4    A    
C66   H48   S    
C54   C55   S    
C15   C17   A    
C6    C50   A    
C19   C21   A    
C5    H1    S    
C73   C74   S    
Cu1   O1    S    
C1    C10   S    
C17   C22   A    
C6    H2    S    
O14   C70   S    
C3    C5    A    
C67   H52   S    
C3    C52   A    
Cu1   Cu2   S    
C67   H51   S    
C44   H7    S    
C8    C18   A    
C53   C54   S    
C20   O16   S    
C68   H53   S    
C29   C35   A    
C33   C38   A    
C58   H28   S    
C30   C36   A    
C35   H3    S    
C1    O1    A    
C73   H66   S    
C74   H68   S    
C12   C14   A    
C28   C30   A    
C29   C31   A    
C47   C49   A    
C30   C32   A    
C11   C13   A    
C60   H34   S    
C77   H75   S    
C23   C39   S    
C28   O12   S    
C27   O11   S    
O10   C56   S    
C24   C40   S    
C71   H60   S    
C72   H63   S    
C61   H36   S    
C64   H43   S    
Cu2   O7    S    
C7    H13   S    
Cu2   O3    S    
C66   H49   S    
C48   C52   A    
C58   H30   S    
C45   C47   A    
C55   H21   S    
C8    C10   A    
C53   H17   S    
O15   C73   S    
C65   H46   S    
C23   O7    A    
C2    C9    S    
C22   H16   S    
C59   C60   S    
C62   H38   S    
C43   H8    S    
C25   C33   A    
Cu2   O6    S    
C77   C78   S    
