data_mof_unit_44228.cif
_audit_creation_date              2012-12-10T17:11:28-0500
_audit_creation_method            fapswitch 2.2
_symmetry_space_group_name_H-M    P1
_symmetry_Int_Tables_number       1
_space_group_crystal_system       triclinic
_cell_length_a                    14.99954
_cell_length_b                    13.118314
_cell_length_c                    11.80962
_cell_angle_alpha                 99.715871
_cell_angle_beta                  93.014885
_cell_angle_gamma                 92.135755
_cell_volume                      2284.74805241

loop_
_atom_site_label
_atom_site_type_symbol
_atom_type_description
_atom_site_fract_x
_atom_site_fract_y
_atom_site_fract_z
_atom_type_partial_charge
C1    C     C_R   0.499270 0.299351 0.478861 0.876099
C2    C     C_R   0.501117 0.700486 0.520941 0.833471
C3    C     C_R   0.038687 0.312916 0.448381 -0.286749
C4    C     C_R   0.960006 0.688472 0.525715 -0.259589
C5    C     C_R   0.503659 0.813853 0.531844 -0.250554
C6    C     C_R   0.499673 0.185693 0.467113 -0.245516
C7    C     C_R   0.489084 0.015749 0.346815 -0.258133
C8    C     C_R   0.518391 0.983019 0.651699 -0.264665
C9    C     C_R   0.489728 0.123009 0.356821 0.437487
C10   C     C_R   0.506309 0.876542 0.641581 0.401009
C11   C     C_R   0.510347 0.138631 0.566379 0.385875
C12   C     C_R   0.504218 0.861055 0.432378 0.392467
C13   C     C_R   0.510850 0.030546 0.554342 -0.061505
C14   C     C_R   0.501119 0.968974 0.444096 -0.070111
C15   C     C_R   0.401631 0.419373 0.025806 0.325796
C16   C     C_R   0.608456 0.560618 0.968906 0.339724
C17   C     C_R   0.407440 0.435091 0.148282 0.499435
C18   C     C_R   0.589687 0.570510 0.851557 0.493178
C19   C     C_R   0.553827 0.509944 0.149406 0.596319
C20   C     C_R   0.450837 0.477758 0.848074 0.603750
C21   C     C_R   0.542491 0.515220 0.029205 -0.315837
C22   C     C_R   0.463887 0.471685 0.967613 -0.328222
C23   C     C_R   0.329396 0.499710 0.500704 0.924032
C24   C     C_R   0.670601 0.501020 0.499012 0.897481
C25   C     C_R   0.816028 0.594524 0.501130 0.415741
C26   C     C_R   0.183300 0.406212 0.479785 0.385608
C27   C     C_R   0.766767 0.500861 0.496487 -0.255624
C28   C     C_R   0.233119 0.500544 0.501518 -0.278002
C29   C     C_R   0.808594 0.406332 0.488701 0.354597
C30   C     C_R   0.191827 0.595610 0.517716 0.340550
C31   C     C_R   0.901993 0.404422 0.479249 -0.069710
C32   C     C_R   0.097773 0.596722 0.518054 -0.075834
C33   C     C_R   0.952783 0.499970 0.495433 -0.096849
C34   C     C_R   0.046865 0.501033 0.496867 -0.088054
C35   C     C_R   0.909455 0.594678 0.507285 -0.030582
C36   C     C_R   0.089745 0.406285 0.475380 -0.033139
C37   C     C_R   0.945563 0.310095 0.454262 0.509564
C38   C     C_R   0.052949 0.690546 0.537504 0.493920
Cu1   Cu    Cu3+1 0.506660 0.507730 0.615930 1.019520
Cu2   Cu    Cu3+1 0.493340 0.492270 0.384070 1.043867
H1    H     H_    0.071205 0.241263 0.422162 0.193821
H2    H     H_    0.927797 0.761710 0.535174 0.192272
H3    H     H_    0.478404 0.969355 0.261811 0.197936
H4    H     H_    0.528625 0.027763 0.737493 0.196410
N1    N     N_R   0.516670 0.519360 0.790130 -0.278766
N2    N     N_R   0.483330 0.480640 0.209870 -0.290622
O1    O     O_R   0.504720 0.354460 0.582000 -0.556719
O2    O     O_R   0.495280 0.645540 0.418000 -0.549668
O3    O     O_R   0.493480 0.341410 0.386200 -0.521465
O4    O     O_R   0.506520 0.658590 0.613800 -0.524615
O5    O     O_R   0.375880 0.506510 0.597910 -0.564081
O6    O     O_R   0.624120 0.493490 0.402090 -0.545137
O7    O     O_R   0.364640 0.493450 0.402110 -0.547368
O8    O     O_R   0.635360 0.506550 0.597890 -0.576109
O9    O     O_3   0.773479 0.683623 0.485722 -0.582372
C39   C     C_3   0.748956 0.736339 0.592672 -0.372507
H5    H     H_    0.800523 0.735678 0.664067 0.158647
H6    H     H_    0.684311 0.703313 0.613564 0.225286
H7    H     H_    0.739087 0.818386 0.585227 0.177234
O10   O     O_3   0.226771 0.314447 0.454734 -0.559412
C40   C     C_3   0.238586 0.272375 0.556450 -0.341492
H8    H     H_    0.173774 0.245585 0.585331 0.156647
H9    H     H_    0.273385 0.328882 0.626891 0.203475
H10   H     H_    0.280340 0.204113 0.538650 0.181474
O11   O     O_3   0.333527 0.356384 0.962658 -0.561018
C41   C     C_3   0.337969 0.253550 0.983416 -0.263409
H11   H     H_    0.296887 0.241748 0.055915 0.220589
H12   H     H_    0.407542 0.230204 0.999746 0.138702
H13   H     H_    0.308769 0.200575 0.906077 0.152953
O12   O     O_3   0.688293 0.601296 0.026701 -0.544959
C42   C     C_3   0.761795 0.552991 0.973082 -0.270215
H14   H     H_    0.787015 0.597085 0.908164 0.181102
H15   H     H_    0.746697 0.470745 0.932060 0.120348
H16   H     H_    0.816875 0.553428 0.039646 0.177558
O13   O     O_3   0.756414 0.315804 0.481582 -0.554078
C43   C     C_3   0.751352 0.291625 0.593182 -0.245968
H17   H     H_    0.818708 0.285413 0.634979 0.141166
H18   H     H_    0.715053 0.215387 0.586231 0.197090
H19   H     H_    0.713495 0.349450 0.648833 0.171814
O14   O     O_3   0.244417 0.686703 0.539343 -0.577049
C44   C     C_3   0.259430 0.720046 0.434017 -0.240558
H20   H     H_    0.291329 0.799210 0.453094 0.186778
H21   H     H_    0.196202 0.723878 0.381403 0.170079
H22   H     H_    0.305960 0.669679 0.383209 0.158809
O15   O     O_3   0.895510 0.217262 0.422831 -0.530385
C45   C     C_3   0.927428 0.140681 0.483672 -0.314848
H23   H     H_    0.949634 0.172523 0.574761 0.129876
H24   H     H_    0.982167 0.099523 0.438448 0.168074
H25   H     H_    0.872109 0.082567 0.485558 0.194801
O16   O     O_3   0.099060 0.785636 0.561437 -0.551079
C46   C     C_3   0.102995 0.819945 0.681445 -0.288840
H26   H     H_    0.136445 0.763736 0.728531 0.162449
H27   H     H_    0.035219 0.834792 0.712830 0.132777
H28   H     H_    0.143315 0.894070 0.701272 0.180193
O17   O     O_3   0.502397 0.802003 0.323205 -0.587322
C47   C     C_3   0.590980 0.794027 0.288793 -0.218944
H29   H     H_    0.589567 0.746954 0.201328 0.207505
H30   H     H_    0.632580 0.754249 0.347240 0.216822
H31   H     H_    0.622572 0.871187 0.284102 0.133997
O18   O     O_3   0.528704 0.197881 0.674389 -0.585414
C48   C     C_3   0.448611 0.211155 0.731562 -0.260191
H32   H     H_    0.401872 0.256938 0.687559 0.200679
H33   H     H_    0.465658 0.254685 0.819131 0.200773
H34   H     H_    0.414106 0.136672 0.740125 0.117737
O19   O     O_3   0.500260 0.834471 0.740568 -0.577159
C49   C     C_3   0.411411 0.839984 0.773905 -0.312464
H35   H     H_    0.363573 0.798090 0.704797 0.205302
H36   H     H_    0.392825 0.921782 0.798690 0.146344
H37   H     H_    0.405714 0.801863 0.850410 0.167508
O20   O     O_3   0.474991 0.165901 0.258509 -0.537849
C50   C     C_3   0.553446 0.160439 0.197275 -0.302460
H38   H     H_    0.564227 0.079478 0.156402 0.150286
H39   H     H_    0.613283 0.193349 0.253271 0.174135
H40   H     H_    0.545685 0.207088 0.127602 0.161782
O21   O     O_3   0.369324 0.446561 0.790946 -0.542665
C51   C     C_3   0.309089 0.526307 0.819309 -0.229517
H41   H     H_    0.335029 0.601380 0.798843 0.148384
H42   H     H_    0.293422 0.536746 0.911351 0.149291
H43   H     H_    0.245356 0.504677 0.767294 0.164594
O22   O     O_3   0.637704 0.529312 0.203686 -0.506866
C52   C     C_3   0.684134 0.436448 0.182830 -0.184346
H44   H     H_    0.753191 0.451772 0.222112 0.178028
H45   H     H_    0.688718 0.406872 0.089612 0.116914
H46   H     H_    0.651847 0.374482 0.222380 0.150304
O23   O     O_3   0.644031 0.633220 0.798115 -0.569795
C53   C     C_3   0.647981 0.736322 0.859055 -0.244235
H47   H     H_    0.585475 0.758284 0.902351 0.174992
H48   H     H_    0.659357 0.790282 0.798105 0.186537
H49   H     H_    0.705704 0.749770 0.923109 0.173264
O24   O     O_3   0.339288 0.395630 0.204940 -0.513748
C54   C     C_3   0.260641 0.449380 0.188866 -0.254561
H50   H     H_    0.227967 0.424722 0.101639 0.177607
H51   H     H_    0.273574 0.534933 0.206167 0.117723
H52   H     H_    0.211881 0.430326 0.250268 0.190591

loop_
_geom_bond_atom_site_label_1
_geom_bond_atom_site_label_2
_ccdc_geom_bond_type
C24   O6    A    
C41   H12   S    
O9    C39   S    
C16   C21   A    
C27   C29   A    
Cu1   O5    S    
O17   C47   S    
C43   H19   S    
C54   H52   S    
C6    C9    A    
C44   H20   S    
C19   N2    A    
O15   C45   S    
C51   H41   S    
Cu2   N2    S    
C8    C13   A    
C49   H36   S    
C37   O15   S    
Cu1   O8    S    
C19   C21   A    
C43   H18   S    
C18   O23   S    
C45   H24   S    
C41   H13   S    
C49   H35   S    
C24   O8    A    
Cu2   O3    S    
C15   O11   S    
C47   H31   S    
C39   H5    S    
Cu2   O2    S    
C40   H9    S    
O20   C50   S    
C52   H46   S    
C2    O4    A    
C42   H16   S    
C15   C22   A    
C50   H38   S    
C39   H6    S    
C47   H30   S    
C24   C27   S    
C12   O17   S    
O12   C42   S    
C32   C38   A    
C20   N1    A    
Cu1   N1    S    
C30   O14   S    
C41   H11   S    
C4    C35   A    
C48   H33   S    
C21   C22   A    
C44   H21   S    
C23   O7    A    
C7    C14   A    
C1    C6    S    
C48   H32   S    
C25   O9    S    
C16   O12   S    
C17   N2    A    
C5    C12   A    
C46   H26   S    
C42   H15   S    
C45   H23   S    
C1    O1    A    
C53   H49   S    
C2    O2    A    
Cu2   O6    S    
C31   C37   A    
C11   O18   S    
C32   C34   A    
C40   H10   S    
O13   C43   S    
C46   H27   S    
C23   O5    A    
C47   H29   S    
C31   C33   A    
C33   C34   A    
C50   H39   S    
C16   C18   A    
C23   C28   S    
C43   H17   S    
C52   H44   S    
C25   C35   A    
C26   C36   A    
C12   C14   A    
C19   O22   S    
O11   C41   S    
C48   H34   S    
C7    H3    S    
O23   C53   S    
C13   C14   A    
C2    C5    S    
C54   H50   S    
C18   N1    A    
C6    C11   A    
C44   H22   S    
O22   C52   S    
Cu1   O1    S    
C9    O20   S    
C15   C17   A    
C3    H1    S    
C53   H48   S    
C17   O24   S    
C8    H4    S    
C20   C22   A    
O14   C44   S    
C54   H51   S    
C45   H25   S    
C20   O21   S    
C39   H7    S    
C29   O13   S    
C25   C27   A    
O19   C49   S    
C38   O16   S    
C26   C28   A    
C51   H43   S    
C28   C30   A    
O24   C54   S    
C42   H14   S    
C29   C31   A    
C46   H28   S    
C30   C32   A    
C11   C13   A    
O16   C46   S    
C4    H2    S    
C3    C36   A    
C53   H47   S    
C1    O3    A    
O18   C48   S    
C33   C35   A    
C51   H42   S    
C50   H40   S    
C34   C36   A    
C40   H8    S    
C52   H45   S    
Cu1   Cu2   S    
C7    C9    A    
C5    C10   A    
Cu1   O4    S    
C3    C37   A    
C8    C10   A    
Cu2   O7    S    
O10   C40   S    
C10   O19   S    
C4    C38   A    
C26   O10   S    
O21   C51   S    
C49   H37   S    
