data_mof_unit_67163.cif
_audit_creation_date              2013-03-05T15:58:59-0500
_audit_creation_method            fapswitch 2.2
_symmetry_space_group_name_H-M    P1
_symmetry_Int_Tables_number       1
_space_group_crystal_system       triclinic
_cell_length_a                    8.457274
_cell_length_b                    12.817908
_cell_length_c                    15.062271
_cell_angle_alpha                 96.41696
_cell_angle_beta                  97.189548
_cell_angle_gamma                 98.766143
_cell_volume                      1586.74056383

loop_
_atom_site_label
_atom_site_type_symbol
_atom_site_description
_atom_site_fract_x
_atom_site_fract_y
_atom_site_fract_z
_atom_type_partial_charge
P1    P     P_3+3 0.998730 0.403530 0.291970 0.451418
O1    O     O_2   0.827880 0.435260 0.277750 -0.375430
O2    O     O_3   0.100280 0.438960 0.391170 -0.350086
O3    O     O_3   0.625580 0.634130 0.333250 -0.347460
O4    O     O_2   0.705525 0.563176 0.180005 -0.386201
O5    O     O_3   0.941892 0.266303 0.290472 -0.621664
O6    O     O_3   0.612878 0.747797 0.188364 -0.556604
C1    C     C_3   0.418877 0.845988 0.125306 -0.954958
H1    H     H_    0.514173 0.893371 0.095060 0.275238
H2    H     H_    0.359734 0.778577 0.075417 0.250667
P2    P     P_3+3 0.687380 0.751030 0.571310 0.464261
P3    P     P_3+3 0.119712 0.828974 0.389737 0.436503
O7    O     O_2   0.857130 0.766340 0.543890 -0.380563
O8    O     O_3   0.056550 0.691050 0.379010 -0.390217
O9    O     O_2   0.993964 0.884403 0.434403 -0.370002
O10   O     O_3   0.725890 0.781778 0.688916 -0.568373
O11   O     O_3   0.111130 0.868424 0.281567 -0.564153
C2    C     C_3   0.989168 0.800710 0.220721 0.821125
H3    H     H_    0.886220 0.770585 0.254714 0.205263
C3    C     C_3   0.929654 0.863656 0.147326 -0.908290
H4    H     H_    0.845540 0.811010 0.094324 0.296994
H5    H     H_    0.867448 0.926939 0.175286 0.242515
C4    C     C_3   0.245890 0.781078 0.646115 0.381135
H6    H     H_    0.376277 0.794181 0.640564 0.084608
H7    H     H_    0.175588 0.733741 0.583773 0.134188
C5    C     C_3   0.188376 0.887589 0.656868 -0.882700
H8    H     H_    0.268483 0.942418 0.711130 0.255259
H9    H     H_    0.186621 0.923914 0.593763 0.246999
H10   H     H_    0.065561 0.876564 0.676460 0.267553
Ba1   Ba    Ba6+2 0.843750 0.550210 0.455600 1.551876
C6    C     C_3   0.057422 0.207646 0.261714 0.541917
H11   H     H_    0.180371 0.255941 0.273568 0.123380
C7    C     C_3   0.006386 0.161816 0.161169 -0.426922
H12   H     H_    0.895132 0.101774 0.151616 0.207287
H13   H     H_    0.981504 0.226002 0.121494 0.227531
C8    C     C_3   0.782188 0.697887 0.727843 0.418387
H14   H     H_    0.881285 0.671534 0.694128 0.091478
H15   H     H_    0.681611 0.630042 0.723975 0.131639
C9    C     C_3   0.847523 0.738110 0.826499 -0.886236
H16   H     H_    0.953784 0.801757 0.830542 0.277056
H17   H     H_    0.882615 0.672748 0.862702 0.211706
H18   H     H_    0.754837 0.772311 0.860581 0.309611
P4    P     P_3+3 0.190990 0.596560 0.708040 0.487792
O12   O     O_2   0.361830 0.564780 0.722310 -0.344486
O13   O     O_3   0.089430 0.561130 0.608830 -0.416921
O14   O     O_3   0.564130 0.365960 0.666760 -0.396393
O15   O     O_3   0.225668 0.735934 0.724906 -0.551342
P5    P     P_3+3 0.081801 0.169312 0.612572 0.435945
O16   O     O_3   0.601940 0.368240 0.453770 -0.389989
O17   O     O_3   0.133170 0.309040 0.621000 -0.370833
O18   O     O_2   0.188776 0.120495 0.549891 -0.409910
O19   O     O_3   0.148987 0.126559 0.715155 -0.561926
Ba2   Ba    Ba6+2 0.346090 0.449880 0.544410 1.563759
P6    P     P_3+3 0.572801 0.618621 0.216400 0.427461
C10   C     C_3   0.491896 0.806636 0.210510 0.469320
H19   H     H_    0.393010 0.761431 0.239986 0.011502
H20   H     H_    0.323750 0.893237 0.140159 0.248710
O20   O     O_3   0.587780 0.631850 0.546230 -0.395998
C11   C     C_3   0.568454 0.245051 0.264273 0.681030
H21   H     H_    0.677651 0.282269 0.311231 0.128586
C12   C     C_3   0.631509 0.170334 0.195061 -0.319353
H22   H     H_    0.728392 0.219072 0.169419 0.174098
H23   H     H_    0.683054 0.108761 0.229827 0.202063
P7    P     P_3+3 0.504797 0.231820 0.427445 0.441551
O21   O     O_2   0.332590 0.233690 0.456160 -0.351342
O22   O     O_3   0.456462 0.189242 0.310454 -0.559692
H24   H     H_    0.031093 0.896708 0.113703 0.245657
C13   C     C_3   0.132363 0.200187 0.788551 0.659475
H25   H     H_    0.197137 0.281025 0.782547 0.126851
C14   C     C_3   0.208935 0.164285 0.875275 -0.636508
H26   H     H_    0.322350 0.136300 0.864721 0.205489
H27   H     H_    0.128868 0.096033 0.894854 0.177999
P8    P     P_3+3 0.614275 0.374760 0.784106 0.460618
C15   C     C_3   0.555490 0.168068 0.743125 0.425819
H28   H     H_    0.653021 0.187979 0.702214 0.064467
O23   O     O_2   0.498534 0.442735 0.825422 -0.331559
O24   O     O_3   0.555613 0.248210 0.815244 -0.521428
H29   H     H_    0.439770 0.155786 0.697018 0.156956
H30   H     H_    0.601342 0.004872 0.726759 0.246280
C16   C     C_3   0.576600 0.064155 0.780647 -1.019895
H31   H     H_    0.468249 0.029660 0.807765 0.253139
H32   H     H_    0.676434 0.078271 0.838020 0.281071
C17   C     C_R   0.829990 0.433782 0.829010 0.197944
C18   C     C_R   0.902273 0.435083 0.920075 -0.032831
C19   C     C_R   0.041406 0.448456 0.106081 0.026923
C20   C     C_R   0.884184 0.395182 0.073502 -0.136228
C21   C     C_R   0.820087 0.382933 0.982236 -0.061361
C22   C     C_R   0.109309 0.455553 0.199040 0.160556
H33   H     H_    0.809120 0.360908 0.118096 0.138269
H34   H     H_    0.700847 0.337271 0.962447 0.224352
C23   C     C_R   0.268892 0.506865 0.225212 -0.466808
C24   C     C_R   0.079309 0.536937 0.796292 0.229625
C25   C     C_R   0.144566 0.548769 0.889943 -0.078300
C26   C     C_R   0.060877 0.492080 0.950626 0.043125
C27   C     C_R   0.292359 0.614055 0.925123 -0.164041
C28   C     C_R   0.379974 0.594833 0.005294 -0.218311
C29   C     C_R   0.298022 0.545131 0.071070 -0.106937
C30   C     C_R   0.133386 0.496064 0.043087 0.120896
C31   C     C_R   0.366020 0.548498 0.164177 0.167108
C32   C     C_R   0.923573 0.478824 0.768088 -0.515030
H35   H     H_    0.318910 0.515864 0.295915 0.174212
H36   H     H_    0.871393 0.472079 0.697910 0.173124
C33   C     C_R   0.770183 0.179023 0.529425 -0.477855
C34   C     C_R   0.426181 0.810788 0.473936 -0.538112
C35   C     C_R   0.384582 0.988773 0.455117 -0.078150
C36   C     C_R   0.325385 0.880213 0.446678 0.204181
C37   C     C_R   0.582510 0.849557 0.518532 0.339610
C38   C     C_R   0.644909 0.961373 0.528654 -0.086754
C39   C     C_R   0.545175 0.030965 0.492115 -0.064021
C40   C     C_R   0.610445 0.139706 0.490544 0.229570
C41   C     C_R   0.867752 0.113215 0.568205 0.258586
C42   C     C_R   0.804940 0.005362 0.569057 -0.210942
H37   H     H_    0.306147 0.038369 0.427311 0.191170
H38   H     H_    0.883344 0.956721 0.599375 0.186083
H39   H     H_    0.821264 0.261202 0.526829 0.180487
H40   H     H_    0.378942 0.726312 0.464704 0.170706
C43   C     C_2   0.566420 0.901254 0.277882 0.921644
O25   O     O_2   0.492995 0.975285 0.289745 -0.661128
O26   O     O_R   0.718650 0.905227 0.326709 -0.775154
H41   H     H_    0.755519 0.974504 0.368486 0.320346
C44   C     C_3   0.057895 0.116545 0.318640 -0.723687
H42   H     H_    0.947307 0.056678 0.297945 0.211778
H43   H     H_    0.163773 0.077685 0.310580 0.259038
H44   H     H_    0.059262 0.146325 0.390616 0.255237
C45   C     C_3   0.131626 0.107907 0.120408 -0.897158
H45   H     H_    0.079494 0.064003 0.052725 0.269272
H46   H     H_    0.231097 0.169215 0.112102 0.282721
H47   H     H_    0.177547 0.052512 0.164298 0.285034
C46   C     C_3   0.497767 0.334130 0.223290 -0.901664
H48   H     H_    0.372068 0.308381 0.190688 0.212183
H49   H     H_    0.501306 0.399554 0.278429 0.249147
H50   H     H_    0.568359 0.364790 0.171933 0.241320
C47   C     C_3   0.519324 0.118040 0.110566 -0.932353
H51   H     H_    0.587540 0.072723 0.065944 0.255111
H52   H     H_    0.421906 0.061593 0.128597 0.301393
H53   H     H_    0.473781 0.178598 0.072314 0.277175
C48   C     C_3   0.953926 0.202258 0.792581 -1.039084
H54   H     H_    0.911513 0.256140 0.745862 0.220431
H55   H     H_    0.887697 0.120449 0.770296 0.266502
H56   H     H_    0.928833 0.229306 0.860912 0.271923
C49   C     C_2   0.248176 0.254311 0.950485 1.028101
O27   O     O_2   0.144028 0.274961 0.995270 -0.690241
O28   O     O_R   0.403521 0.313975 0.969106 -0.760712
H57   H     H_    0.418008 0.368888 0.024416 0.323952
C50   C     C_2   0.555716 0.626850 0.012451 1.176477
O29   O     O_2   0.613649 0.719940 0.013154 -0.672867
O30   O     O_R   0.653436 0.549997 0.005953 -0.772185
H58   H     H_    0.769999 0.583905 0.006683 0.305177
C51   C     C_2   0.332690 0.720666 0.896619 1.113655
O31   O     O_2   0.454357 0.743911 0.862024 -0.598252
O32   O     O_R   0.232219 0.795817 0.911890 -0.828802
H59   H     H_    0.273348 0.866730 0.891933 0.328180
C52   C     C_3   0.054484 0.706605 0.176561 -0.990732
H60   H     H_    0.131224 0.730377 0.126025 0.241712
H61   H     H_    0.125050 0.671101 0.227867 0.254569
H62   H     H_    0.954183 0.645977 0.140142 0.257294

loop_
_geom_bond_atom_site_label_1
_geom_bond_atom_site_label_2
_geom_bond_distance
_ccdc_geom_bond_type
C10   H19   1.111301 S    
C25   C26   1.420566 A    
C43   O25   1.219621 D    
P2    O7    1.533217 D    
C3    H24   1.103583 S    
C27   C28   1.402192 A    
C18   C21   1.402766 A    
O6    C10   1.411159 S    
C34   C36   1.382896 A    
C50   O29   1.217223 D    
C12   C47   1.510769 S    
C9    H17   1.106680 S    
C19   C20   1.400055 A    
C28   C50   1.467377 S    
C48   H55   1.105096 S    
C5    H8    1.099442 S    
C33   C40   1.396598 A    
C35   H37   1.066803 S    
C8    H14   1.108542 S    
C23   H35   1.082245 S    
C2    H3    1.105722 S    
C51   O32   1.397026 S    
C11   O22   1.400809 S    
C26   C30   1.441867 A    
O28   H57   1.010729 S    
C38   C39   1.425815 A    
C33   C41   1.391135 A    
P1    O1    1.555709 D    
C4    C5    1.516390 S    
C12   H23   1.107820 S    
C24   C25   1.431496 A    
C44   H44   1.106426 S    
C19   C30   1.430836 A    
Ba1   O13   2.881389 S    
C29   C31   1.440946 A    
C34   H40   1.082594 S    
O12   Ba2   2.887172 S    
P4    Ba2   3.443122 S    
P5    O18   1.534823 D    
O30   H58   1.013142 S    
P2    Ba1   3.467582 S    
C13   H25   1.114563 S    
C15   O24   1.408967 S    
P3    O11   1.755364 S    
C47   H53   1.103809 S    
C4    H6    1.104960 S    
C6    C7    1.544390 S    
C14   H26   1.097388 S    
C27   C51   1.481149 S    
C52   H61   1.098372 S    
P2    O20   1.607814 S    
Ba2   O21   2.915676 S    
O19   C13   1.406674 S    
O14   P8    1.752100 S    
C46   H50   1.105115 S    
P1    C22   1.903864 S    
P5    O17   1.763753 S    
O5    C6    1.401655 S    
C48   H54   1.105358 S    
O13   Ba2   2.974562 S    
C11   H21   1.098863 S    
C25   C27   1.399881 A    
O16   P7    1.793173 S    
C15   C16   1.529991 S    
C13   C48   1.522014 S    
O8    Ba1   2.797088 S    
C1    C10   1.524502 S    
C7    C45   1.505759 S    
C50   O30   1.381967 S    
C29   C30   1.427881 A    
C9    H18   1.106952 S    
C8    C9    1.521734 S    
Ba1   Ba2   4.615366 S    
C11   C12   1.536254 S    
O17   Ba2   2.797693 S    
C4    O15   1.395219 S    
C15   H28   1.106086 S    
P1    O5    1.748203 S    
O7    Ba1   2.915362 S    
C6    C44   1.524188 S    
C16   H32   1.108266 S    
C9    H16   1.108433 S    
C20   C21   1.395526 A    
C1    H1    1.109294 S    
C38   C42   1.415828 A    
P1    O2    1.607683 S    
C49   O28   1.393974 S    
P7    O22   1.762633 S    
O2    Ba1   2.973689 S    
C33   H39   1.082804 S    
P4    O12   1.555936 D    
C1    H20   1.107874 S    
C45   H47   1.103064 S    
P2    O10   1.749205 S    
O4    P6    1.541312 D    
P7    C40   1.858896 S    
C17   C18   1.427340 A    
P3    O9    1.546278 D    
O32   H59   1.014111 S    
C28   C29   1.430453 A    
C32   H36   1.082015 S    
O11   C2    1.403526 S    
C18   C26   1.420004 A    
C52   H62   1.100775 S    
P4    O13   1.607840 S    
C44   H42   1.102525 S    
C2    C52   1.522592 S    
C42   H38   1.072759 S    
C1    H2    1.091105 S    
Ba1   O16   2.853250 S    
C3    H5    1.105111 S    
C17   C32   1.400956 A    
P2    C37   1.844682 S    
C47   H51   1.110819 S    
P8    O23   1.547842 D    
P6    C31   1.871755 S    
C37   C38   1.434019 A    
C24   C32   1.400094 A    
C47   H52   1.092831 S    
C46   H48   1.098341 S    
C10   C43   1.493219 S    
C19   C22   1.432797 A    
C35   C39   1.402491 A    
C11   C46   1.521644 S    
C14   C49   1.490651 S    
C41   C42   1.405469 A    
O3    P6    1.741999 S    
C6    H11   1.108571 S    
P3    O8    1.750312 S    
C16   H31   1.101187 S    
C20   H33   1.065312 S    
Ba2   O20   2.852677 S    
C35   C36   1.391157 A    
C5    H9    1.103616 S    
P4    C24   1.887979 S    
O1    Ba1   2.886612 S    
P7    O21   1.573132 D    
C43   O26   1.391284 S    
C51   O31   1.222511 D    
O10   C8    1.397819 S    
P3    C36   1.828942 S    
O2    Ba2   2.882170 S    
C45   H45   1.110863 S    
C22   C23   1.395647 A    
O16   Ba2   2.958247 S    
C48   H56   1.105379 S    
Ba1   O20   2.959025 S    
O14   Ba2   2.854956 S    
C8    H15   1.110852 S    
P1    Ba1   3.442560 S    
C7    H13   1.099771 S    
C7    H12   1.104061 S    
C2    C3    1.519979 S    
C4    H7    1.107411 S    
C12   H22   1.089920 S    
C44   H43   1.101958 S    
H30   C16   1.110476 S    
P5    O19   1.753571 S    
P5    C41   1.853035 S    
C3    H4    1.090813 S    
C5    H10   1.107796 S    
C13   C14   1.533275 S    
O26   H41   1.011578 S    
C15   H29   1.106056 S    
C21   H34   1.074353 S    
C39   C40   1.422733 A    
C45   H46   1.089827 S    
P8    O24   1.755086 S    
C14   H27   1.112635 S    
O6    P6    1.748100 S    
C23   C31   1.403489 A    
C52   H60   1.099397 S    
C49   O27   1.216876 D    
P4    O15   1.749939 S    
P8    C17   1.874615 S    
C34   C37   1.396061 A    
O3    Ba1   2.855640 S    
C46   H49   1.106505 S    
