data_mof_unit_55244.cif
_audit_creation_date              2012-12-10T16:49:23-0500
_audit_creation_method            fapswitch 2.2
_symmetry_space_group_name_H-M    P1
_symmetry_Int_Tables_number       1
_space_group_crystal_system       triclinic
_cell_length_a                    19.345141
_cell_length_b                    8.695117
_cell_length_c                    7.410778
_cell_angle_alpha                 103.118552
_cell_angle_beta                  93.091763
_cell_angle_gamma                 92.334687
_cell_volume                      1210.45492797

loop_
_atom_site_label
_atom_site_type_symbol
_atom_type_description
_atom_site_fract_x
_atom_site_fract_y
_atom_site_fract_z
_atom_type_partial_charge
C1    C     C_R   0.497922 0.199570 0.453117 0.889211
C2    C     C_R   0.502078 0.800430 0.546882 0.889219
C3    C     C_2   0.496909 0.031699 0.426691 -0.369889
C4    C     C_2   0.503091 0.968301 0.573309 -0.369884
C5    C     C_R   0.367387 0.504295 0.505572 0.816543
C6    C     C_R   0.632613 0.495701 0.494428 0.816537
C7    C     C_R   0.259453 0.570800 0.687593 0.121042
C8    C     C_R   0.740541 0.429090 0.312426 0.121038
C9    C     C_R   0.186666 0.580233 0.685245 0.426007
C10   C     C_R   0.813331 0.419700 0.314764 0.426032
C11   C     C_R   0.146077 0.527902 0.515731 -0.081225
C12   C     C_R   0.853922 0.472170 0.484255 -0.081204
C13   C     C_R   0.178363 0.477675 0.350048 -0.174036
C14   C     C_R   0.821639 0.522502 0.649926 -0.173986
C15   C     C_R   0.249790 0.471569 0.350718 -0.224332
C16   C     C_R   0.750213 0.528578 0.649265 -0.224289
C17   C     C_R   0.291362 0.514806 0.517295 -0.124663
C18   C     C_R   0.708636 0.485202 0.482705 -0.124676
C19   C     C_R   0.929975 0.484316 0.490901 0.392136
C20   C     C_R   0.070024 0.515766 0.509085 0.392214
Cu1   Cu    Cu3+1 0.507710 0.517380 0.684380 0.941644
Cu2   Cu    Cu3+1 0.492290 0.482620 0.315620 0.941643
H1    H     H_    0.147971 0.438249 0.219203 0.196552
H2    H     H_    0.852035 0.562031 0.780752 0.196471
H3    H     H_    0.272419 0.429651 0.219098 0.178402
H4    H     H_    0.727585 0.570582 0.780872 0.178387
H5    H     H_    0.491063 0.959919 0.285423 0.178356
H6    H     H_    0.508937 0.040081 0.714577 0.178357
H7    H     H_    0.445457 0.380062 0.949114 0.223443
H8    H     H_    0.554544 0.619936 0.050885 0.223449
N1    N     N_R   0.032092 0.549201 0.364864 -0.209187
N2    N     N_R   0.967906 0.450883 0.635123 -0.209156
N3    N     N_R   0.963251 0.534671 0.356555 -0.199031
N4    N     N_R   0.036747 0.465412 0.643432 -0.198934
N5    N     N_2   0.480680 0.456420 0.038530 -0.220491
N6    N     N_2   0.519320 0.543580 0.961470 -0.220496
O1    O     O_R   0.505010 0.286130 0.619770 -0.581377
O2    O     O_R   0.494990 0.713870 0.380230 -0.581376
O3    O     O_R   0.491990 0.256780 0.308370 -0.586810
O4    O     O_R   0.508010 0.743220 0.691630 -0.586808
O5    O     O_R   0.406650 0.514660 0.655750 -0.589431
O6    O     O_R   0.593350 0.485340 0.344250 -0.589433
O7    O     O_R   0.393640 0.485310 0.344340 -0.584481
O8    O     O_R   0.606360 0.514690 0.655660 -0.584480
C21   C     C_3   0.301817 0.625653 0.871010 -0.736128
H9    H     H_    0.340756 0.720478 0.861653 0.223291
H10   H     H_    0.270375 0.675283 0.989023 0.264233
H11   H     H_    0.327808 0.524295 0.907398 0.222278
C22   C     C_3   0.698168 0.374062 0.129047 -0.736062
H12   H     H_    0.659228 0.279286 0.138562 0.223230
H13   H     H_    0.672176 0.475357 0.092500 0.222329
H14   H     H_    0.729604 0.324303 0.011065 0.264261
O9    O     O_3   0.156905 0.642533 0.849711 -0.729823
H15   H     H_    0.114082 0.693721 0.821871 0.337588
O10   O     O_3   0.843085 0.357299 0.150314 -0.729851
H16   H     H_    0.885959 0.306329 0.178183 0.337644

loop_
_geom_bond_atom_site_label_1
_geom_bond_atom_site_label_2
_ccdc_geom_bond_type
C21   H9    S    
C2    C4    S    
O10   H16   S    
N1    N3    A    
C9    O9    S    
C15   C17   A    
C10   O10   S    
C1    O1    A    
Cu1   O8    S    
C11   C13   A    
H7    N5    S    
C1    O3    A    
Cu2   O7    S    
C13   C15   A    
H8    N6    S    
C22   H14   S    
C20   N4    A    
C3    H5    S    
C5    O7    A    
Cu1   N6    S    
C6    O8    A    
Cu1   Cu2   S    
Cu2   N5    S    
C9    C11   A    
Cu2   O6    S    
Cu1   O4    S    
C10   C12   A    
Cu1   O5    S    
C19   N2    A    
C7    C21   S    
C12   C19   S    
C8    C10   A    
C4    H6    S    
C12   C14   A    
C1    C3    S    
C21   H10   S    
C16   H4    S    
C6    C18   S    
C14   C16   A    
C11   C20   S    
C15   H3    S    
C5    C17   S    
Cu2   O3    S    
C3    C4    D    
Cu2   O2    S    
C2    O4    A    
Cu1   O1    S    
C13   H1    S    
C16   C18   A    
C22   H12   S    
C19   N3    A    
C21   H11   S    
C14   H2    S    
C7    C9    A    
C2    O2    A    
C5    O5    A    
C22   H13   S    
O9    H15   S    
C6    O6    A    
C8    C22   S    
C8    C18   A    
N5    N6    D    
C7    C17   A    
C20   N1    A    
N2    N4    A    
