data_mof_unit_67731.cif
_audit_creation_date              2012-10-26T19:56:23-0400
_audit_creation_method            fapswitch 2.2
_symmetry_space_group_name_H-M    P1
_symmetry_Int_Tables_number       1
_space_group_crystal_system       triclinic
_cell_length_a                    11.035941
_cell_length_b                    10.76573
_cell_length_c                    9.468117
_cell_angle_alpha                 87.693659
_cell_angle_beta                  92.952918
_cell_angle_gamma                 87.639089
_cell_volume                      1121.44725468

loop_
_atom_site_label
_atom_site_type_symbol
_atom_type_description
_atom_site_fract_x
_atom_site_fract_y
_atom_site_fract_z
_atom_type_partial_charge
C1    C     C_R   0.503713 0.259345 0.502704 0.595132
C2    C     C_3   0.388234 0.049672 0.520105 -0.111072
C3    C     C_3   0.494856 0.878011 0.492833 -0.029222
C4    C     C_3   0.504550 0.122259 0.506849 -0.030232
C5    C     C_3   0.459853 0.952548 0.621570 -0.123809
C6    C     C_3   0.539511 0.047828 0.378198 -0.125477
C7    C     C_3   0.555392 0.592877 0.046636 0.310641
C8    C     C_3   0.444454 0.407152 0.953213 0.301330
C9    C     C_3   0.446265 0.600552 0.940652 -0.023898
C10   C     C_3   0.553630 0.399435 0.059267 -0.022860
C11   C     C_3   0.608960 0.493266 0.955548 -0.046927
C12   C     C_R   0.496094 0.740737 0.497235 0.585660
C13   C     C_3   0.390888 0.506758 0.044416 -0.048947
C14   C     C_R   0.261985 0.509216 0.496476 0.574238
C15   C     C_R   0.738020 0.489450 0.503675 0.556087
C16   C     C_R   0.040971 0.820202 0.118617 0.007687
C17   C     C_R   0.960015 0.178748 0.888442 0.009950
C18   C     C_R   0.047086 0.751701 0.248683 0.299727
C19   C     C_R   0.956770 0.245349 0.757311 0.336279
C20   C     C_R   0.077204 0.622349 0.251784 0.025611
C21   C     C_R   0.923664 0.374264 0.750043 0.024865
C22   C     C_R   0.094031 0.565042 0.124001 -0.152673
C23   C     C_R   0.873067 0.482904 0.505888 0.042461
C24   C     C_R   0.903930 0.433550 0.875831 -0.153035
C25   C     C_R   0.095195 0.635494 0.996946 -0.125771
C26   C     C_R   0.900872 0.365130 0.004086 -0.135788
C27   C     C_R   0.067459 0.762784 0.993942 -0.087381
C28   C     C_R   0.929613 0.237972 0.010641 -0.102788
C29   C     C_R   0.925092 0.520568 0.380267 -0.126252
C30   C     C_R   0.075409 0.475184 0.620012 -0.055743
C31   C     C_R   0.127208 0.513253 0.494481 0.063540
C32   C     C_R   0.952426 0.451992 0.625632 0.006869
C33   C     C_R   0.048176 0.543292 0.374690 -0.014916
C34   C     C_3   0.575195 0.026346 0.606699 0.265386
C35   C     C_3   0.424173 0.974025 0.392884 0.266494
C36   C     C_3   0.611027 0.950791 0.479497 -0.117035
Cu1   Cu    Cu3+1 0.500030 0.499990 0.643150 1.068642
Cu2   Cu    Cu3+1 0.499970 0.500010 0.356850 1.063329
H1    H     H_    0.064842 0.816704 0.894732 0.167152
H2    H     H_    0.890624 0.533860 0.874265 0.154305
H3    H     H_    0.114130 0.590671 0.900023 0.129551
H4    H     H_    0.879466 0.411486 0.099224 0.127658
H5    H     H_    0.867851 0.544796 0.286453 0.171917
H6    H     H_    0.132648 0.452258 0.714177 0.170734
H7    H     H_    0.702910 0.911679 0.461457 0.205791
H8    H     H_    0.296675 0.090227 0.537921 0.244478
H9    H     H_    0.426793 0.913440 0.722156 0.195270
H10   H     H_    0.572761 0.087010 0.277743 0.193517
H11   H     H_    0.693736 0.748942 0.877971 0.350114
H12   H     H_    0.930434 0.185696 0.110821 0.149698
H13   H     H_    0.305107 0.252129 0.120708 0.346318
H14   H     H_    0.848802 0.756689 0.455961 0.348100
H15   H     H_    0.078997 0.222450 0.414101 0.374298
H16   H     H_    0.839649 0.934956 0.820189 0.365096
H17   H     H_    0.162023 0.066124 0.175878 0.359214
H18   H     H_    0.401148 0.685354 0.887684 0.148436
H19   H     H_    0.598826 0.314645 0.112173 0.147428
H20   H     H_    0.696726 0.497835 0.910168 0.141782
H21   H     H_    0.302681 0.503425 0.089378 0.140395
H22   H     H_    0.016223 0.918502 0.113149 0.136345
H23   H     H_    0.985906 0.080701 0.896724 0.131598
H24   H     H_    0.106682 0.464773 0.123095 0.145148
N1    N     N_3   0.500090 0.499970 0.858290 -0.287263
N2    N     N_3   0.499910 0.500030 0.141710 -0.284206
O1    O     O_R   0.500060 0.316850 0.620870 -0.403515
O2    O     O_2   0.707471 0.706284 0.234039 -0.296607
O3    O     O_3   0.740862 0.750727 0.969753 -0.540468
O4    O     O_2   0.293594 0.292752 0.764493 -0.241385
O5    O     O_2   0.445859 0.163628 0.902629 -0.178743
O6    O     O_3   0.258743 0.249136 0.028563 -0.548952
O7    O     O_2   0.139592 0.842877 0.485706 -0.197596
O8    O     O_2   0.965369 0.959051 0.365854 -0.209865
O9    O     O_3   0.926989 0.757773 0.511575 -0.509784
O10   O     O_2   0.037009 0.034004 0.646639 -0.170771
O11   O     O_2   0.878810 0.162228 0.510387 -0.248750
O12   O     O_R   0.499940 0.683150 0.379130 -0.405010
O13   O     O_3   0.100764 0.233687 0.515455 -0.542669
O14   O     O_2   0.700869 0.184922 0.762916 -0.266834
O15   O     O_2   0.629007 0.000233 0.886504 -0.206359
O16   O     O_3   0.809511 0.968907 0.725584 -0.467473
O17   O     O_2   0.373604 0.002043 0.112744 -0.202587
O18   O     O_2   0.301515 0.815866 0.232707 -0.260955
O19   O     O_3   0.190669 0.030840 0.270429 -0.502840
O20   O     O_R   0.500000 0.316860 0.379090 -0.540999
O21   O     O_R   0.500000 0.683140 0.620910 -0.540915
O22   O     O_R   0.319670 0.500010 0.620890 -0.487885
O23   O     O_R   0.680330 0.499990 0.379110 -0.490050
O24   O     O_R   0.319620 0.500010 0.379110 -0.511038
O25   O     O_R   0.680380 0.499990 0.620890 -0.508019
O26   O     O_2   0.554936 0.836452 0.097507 -0.176849
S1    S     S_3+6 0.639787 0.724880 0.093368 0.048224
S2    S     S_3+6 0.360532 0.274929 0.905774 0.056833
S3    S     S_3+6 0.020105 0.831512 0.404838 0.091897
S4    S     S_3+6 0.992468 0.164613 0.604747 0.090939
S5    S     S_3+6 0.679290 0.048909 0.751892 0.062515
S6    S     S_3+6 0.321868 0.951934 0.245806 0.063533

loop_
_geom_bond_atom_site_label_1
_geom_bond_atom_site_label_2
_ccdc_geom_bond_type
C2    C35   S    
C8    C13   S    
O10   S4    D    
C2    C4    S    
O9    S3    S    
C14   C31   S    
Cu2   O12   S    
C35   S6    S    
C2    H8    S    
C1    O20   A    
C7    C11   S    
C5    H9    S    
C6    H10   S    
C12   O21   A    
C23   C29   A    
Cu1   O21   S    
C19   C21   A    
C24   C26   A    
C11   N1    S    
C30   C31   A    
C15   O25   A    
C29   C33   A    
O13   S4    S    
C6    C35   S    
C16   H22   S    
C9    C13   S    
C3    C12   S    
C17   H23   S    
C28   H12   S    
O4    S2    D    
C27   H1    S    
C22   C25   A    
Cu1   O1    S    
C1    O1    A    
C31   C33   A    
C8    S2    S    
H13   O6    S    
O5    S2    D    
Cu2   N2    S    
C16   C27   A    
C15   C23   S    
C29   H5    S    
C30   H6    S    
Cu1   N1    S    
H16   O16   S    
C21   C32   S    
O6    S2    S    
O18   S6    D    
Cu1   O22   S    
C10   H19   S    
C34   S5    S    
C14   O22   A    
C4    C6    S    
H14   O9    S    
C25   H3    S    
O17   S6    D    
C17   C19   A    
Cu2   O24   S    
H15   O13   S    
O15   S5    D    
Cu1   Cu2   S    
C22   H24   S    
C3    C35   S    
O14   S5    D    
C7    S1    S    
C5    C34   S    
O3    S1    S    
C36   H7    S    
C9    H18   S    
O16   S5    S    
C19   S4    S    
O7    S3    D    
C20   C33   S    
C16   C18   A    
C20   C22   A    
C12   O12   A    
C2    C5    S    
O8    S3    D    
H17   O19   S    
C11   H20   S    
C26   H4    S    
C15   O23   A    
C7    C9    S    
H11   O3    S    
Cu2   O20   S    
C9    N1    S    
C17   C28   A    
C10   N2    S    
C3    C5    S    
O2    S1    D    
C13   H21   S    
C25   C27   A    
C26   C28   A    
Cu1   O25   S    
Cu2   O23   S    
C1    C4    S    
C23   C32   A    
C14   O24   A    
C30   C32   A    
O26   S1    D    
C13   N2    S    
C3    C36   S    
O19   S6    S    
C24   H2    S    
C34   C36   S    
C6    C36   S    
C18   C20   A    
C4    C34   S    
C7    N2    S    
C10   C11   S    
C8    N1    S    
C8    C10   S    
C21   C24   A    
C18   S3    S    
O11   S4    D    
