data_mof_unit_19010.cif
_audit_creation_date              2012-12-11T15:39:28-0500
_audit_creation_method            fapswitch 2.2
_symmetry_space_group_name_H-M    P1
_symmetry_Int_Tables_number       1
_space_group_crystal_system       triclinic
_cell_length_a                    6.951375
_cell_length_b                    15.117397
_cell_length_c                    16.623035
_cell_angle_alpha                 95.495357
_cell_angle_beta                  90.411249
_cell_angle_gamma                 90.371425
_cell_volume                      1738.74128356

loop_
_atom_site_label
_atom_site_type_symbol
_atom_type_description
_atom_site_fract_x
_atom_site_fract_y
_atom_site_fract_z
_atom_type_partial_charge
O1    O     O_R   0.633330 0.174290 0.828230 -0.540878
O2    O     O_R   0.366670 0.825710 0.171770 -0.540878
O3    O     O_R   0.301450 0.154140 0.662030 -0.542974
O4    O     O_R   0.698550 0.845860 0.337970 -0.542975
O5    O     O_R   0.133140 0.325730 0.671770 -0.537372
O6    O     O_R   0.866860 0.674270 0.328230 -0.537372
C1    C     C_R   0.470019 0.131750 0.633455 0.692025
C2    C     C_R   0.529981 0.868250 0.366545 0.692025
O7    O     O_R   0.303490 0.163670 0.827000 -0.543031
O8    O     O_R   0.696510 0.836330 0.173000 -0.543031
O9    O     O_R   0.135190 0.335320 0.837920 -0.549764
O10   O     O_R   0.864810 0.664680 0.162080 -0.549764
C3    C     C_R   0.472523 0.143280 0.854020 0.695967
C4    C     C_R   0.527477 0.856719 0.145979 0.695966
O11   O     O_R   0.631280 0.164690 0.662080 -0.520723
O12   O     O_R   0.368720 0.835310 0.337920 -0.520723
O13   O     O_3   0.467420 0.306310 0.753380 -0.364979
O14   O     O_3   0.532580 0.693690 0.246620 -0.364979
V1    V     V_3+5 0.191790 0.239560 0.749370 1.467267
V2    V     V_3+5 0.808210 0.760440 0.250630 1.467266
O15   O     O_R   0.805590 0.345870 0.837970 -0.530427
O16   O     O_R   0.194410 0.654130 0.162030 -0.530427
C5    C     C_R   0.975425 0.368597 0.866419 0.727498
C6    C     C_R   0.024575 0.631403 0.133581 0.727498
O17   O     O_R   0.803560 0.336340 0.672990 -0.520480
O18   O     O_R   0.196440 0.663660 0.327010 -0.520480
C7    C     C_R   0.972299 0.356624 0.645885 0.798673
C8    C     C_R   0.027701 0.643375 0.354115 0.798674
V3    V     V_3+5 0.692030 0.260450 0.750630 1.520963
V4    V     V_3+5 0.307970 0.739550 0.249370 1.520964
O19   O     O_3   0.966260 0.193700 0.746610 -0.370558
O20   O     O_3   0.033740 0.806300 0.253390 -0.370558
C9    C     C_1   0.982611 0.418631 0.583462 -0.146917
C10   C     C_1   0.017389 0.581369 0.416538 -0.146917
C11   C     C_1   0.993299 0.469903 0.530974 0.053627
C12   C     C_1   0.006701 0.530096 0.469026 0.053627
C13   C     C_3   0.821990 0.528193 0.020736 -0.188759
C14   C     C_3   0.178010 0.471807 0.979264 -0.188759
C15   C     C_3   0.918590 0.535305 0.938230 0.037303
C16   C     C_3   0.081409 0.464695 0.061769 0.037303
H1    H     H_    0.674924 0.551377 0.037245 0.124564
H2    H     H_    0.325076 0.448623 0.962755 0.124564
C17   C     C_3   0.988393 0.438927 0.936777 -0.018603
C18   C     C_3   0.011607 0.561073 0.063223 -0.018603
C19   C     C_3   0.892938 0.430616 0.019371 -0.214569
C20   C     C_3   0.107062 0.569385 0.980629 -0.214570
C21   C     C_3   0.675091 0.025685 0.527092 0.006837
C22   C     C_3   0.324908 0.974315 0.472908 0.006841
C23   C     C_3   0.594437 0.929798 0.523485 -0.102009
C24   C     C_3   0.405562 0.070202 0.476515 -0.102011
C25   C     C_3   0.517396 0.938150 0.436985 -0.207835
C26   C     C_3   0.482604 0.061850 0.563015 -0.207836
C27   C     C_3   0.597552 0.034111 0.440727 -0.052986
C28   C     C_3   0.402448 0.965889 0.559273 -0.052981
C29   C     C_1   0.482984 0.081277 0.916445 -0.184169
C30   C     C_1   0.517015 0.918723 0.083555 -0.184169
C31   C     C_1   0.493476 0.030052 0.968983 0.017683
C32   C     C_1   0.506524 0.969947 0.031017 0.017683
C33   C     C_2   0.826494 0.578740 0.870604 0.358535
H3    H     H_    0.780615 0.647307 0.880703 0.054382
O21   O     O_2   0.802865 0.537915 0.804310 -0.522293
C34   C     C_2   0.173506 0.421260 0.129396 0.358534
H4    H     H_    0.219385 0.352693 0.119297 0.054382
O22   O     O_2   0.197135 0.462084 0.195690 -0.522294
H5    H     H_    0.805329 0.373336 0.035512 0.118180
H6    H     H_    0.194671 0.626664 0.964488 0.118180
C35   C     C_2   0.697680 0.850858 0.550095 0.503969
H7    H     H_    0.719619 0.792658 0.507817 0.061788
O23   O     O_2   0.756034 0.851433 0.619529 -0.511296
C36   C     C_2   0.302320 0.149142 0.449905 0.503977
H8    H     H_    0.280397 0.207345 0.492181 0.061779
O24   O     O_2   0.243952 0.148564 0.380472 -0.511296
C37   C     C_2   0.869516 0.054782 0.559103 0.395559
H9    H     H_    0.949334 0.013258 0.596881 0.055983
O25   O     O_2   0.934472 0.127122 0.546095 -0.529833
C38   C     C_2   0.130483 0.945218 0.440897 0.395556
H10   H     H_    0.050665 0.986742 0.403120 0.055989
O26   O     O_2   0.065529 0.872878 0.453905 -0.529836
C39   C     C_2   0.704293 0.072498 0.374101 0.478326
H11   H     H_    0.735266 0.031438 0.318667 0.012962
O27   O     O_2   0.757042 0.149985 0.381950 -0.481639
C40   C     C_2   0.295707 0.927502 0.625899 0.478329
H12   H     H_    0.264734 0.968562 0.681333 0.012960
O28   O     O_2   0.242956 0.850016 0.618050 -0.481640

loop_
_geom_bond_atom_site_label_1
_geom_bond_atom_site_label_2
_ccdc_geom_bond_type
C4    C30   S    
O13   V3    S    
C37   H9    S    
C22   C38   S    
C11   C12   S    
O4    C2    A    
V1    O19   S    
C16   C34   S    
C21   C23   S    
C7    C9    S    
C22   C28   S    
O9    V1    S    
C27   C39   S    
C38   O26   D    
C1    C26   S    
C20   H6    S    
O3    C1    A    
O12   V4    S    
C23   C28   S    
C5    C17   S    
O7    C3    A    
C34   O22   D    
O13   V1    S    
O5    C7    A    
O7    V1    S    
C22   C25   S    
O6    C8    A    
O8    V2    S    
C23   C25   S    
C24   C26   S    
O3    V1    S    
C36   H8    S    
O14   V4    S    
V4    O20   S    
C23   C35   S    
C10   C12   T    
C21   C27   S    
C22   C24   S    
C8    C10   S    
C33   H3    S    
C2    O12   A    
C37   O25   D    
C26   C28   S    
O11   V3    S    
O17   V3    S    
C16   C19   S    
C33   O21   D    
C24   C27   S    
C35   H7    S    
C38   H10   S    
C21   C37   S    
O8    C4    A    
C39   O27   D    
C15   C17   S    
C1    O11   A    
C18   C20   S    
O15   V3    S    
C25   C27   S    
C34   H4    S    
C15   C33   S    
O10   V2    S    
O1    V3    S    
C17   C19   S    
C2    C25   S    
C15   C20   S    
O18   V4    S    
C40   O28   D    
C29   C31   T    
C19   H5    S    
C6    C18   S    
O16   C6    A    
O1    C3    A    
C13   C19   S    
C28   C40   S    
V2    O20   S    
O16   V4    S    
C14   H2    S    
C21   C26   S    
O5    V1    S    
O17   C7    A    
O6    V2    S    
O10   C6    A    
O18   C8    A    
O2    V4    S    
C13   C18   S    
O15   C5    A    
C24   C36   S    
C14   C17   S    
V3    O19   S    
C14   C16   S    
C31   C32   S    
O9    C5    A    
C9    C11   T    
C30   C32   T    
O14   V2    S    
C13   H1    S    
O2    C4    A    
C14   C20   S    
C39   H11   S    
O4    V2    S    
C16   C18   S    
C13   C15   S    
C40   H12   S    
C36   O24   D    
C35   O23   D    
C3    C29   S    
