data_mof_unit_28823.cif
_audit_creation_date              2012-12-11T14:17:42-0500
_audit_creation_method            fapswitch 2.2
_symmetry_space_group_name_H-M    P1
_symmetry_Int_Tables_number       1
_space_group_crystal_system       triclinic
_cell_length_a                    11.143563
_cell_length_b                    11.1603
_cell_length_c                    18.796881
_cell_angle_alpha                 89.965488
_cell_angle_beta                  90.249678
_cell_angle_gamma                 120.130579
_cell_volume                      2021.80172333

loop_
_atom_site_label
_atom_site_type_symbol
_atom_type_description
_atom_site_fract_x
_atom_site_fract_y
_atom_site_fract_z
_atom_type_partial_charge
C1    C     C_R   0.519574 0.454466 0.146473 0.553430
C2    C     C_R   0.056932 0.437337 0.531494 -0.141469
C3    C     C_R   0.378658 0.918309 0.528327 -0.136169
C4    C     C_R   0.576659 0.599808 0.534587 -0.149656
C5    C     C_R   0.749625 0.118049 0.587188 -0.079561
C6    C     C_R   0.893977 0.647345 0.582997 -0.076277
C7    C     C_R   0.377815 0.238896 0.604211 -0.084568
C8    C     C_R   0.972005 0.727437 0.443438 -0.094848
C9    C     C_R   0.769911 0.051511 0.447438 -0.082669
C10   C     C_R   0.340176 0.193673 0.459133 -0.103914
C11   C     C_R   0.873792 0.133331 0.562905 -0.114180
C12   C     C_R   0.544081 0.064007 0.146503 0.563183
C13   C     C_R   0.886226 0.758511 0.555115 -0.118793
C14   C     C_R   0.273299 0.112617 0.579150 -0.106622
C15   C     C_R   0.924833 0.797936 0.485216 -0.156829
C16   C     C_R   0.883816 0.099232 0.493164 -0.150288
C17   C     C_R   0.250698 0.093193 0.506579 -0.151566
C18   C     C_R   0.544195 0.421498 0.361619 0.553313
C19   C     C_R   0.546093 0.061312 0.353702 0.531700
C20   C     C_R   0.938867 0.484153 0.353747 0.531200
C21   C     C_R   0.458658 0.517351 0.648081 0.519793
C22   C     C_R   0.061841 0.542847 0.646530 0.515842
C23   C     C_R   0.935991 0.480822 0.146875 0.558357
C24   C     C_R   0.479927 0.935965 0.646070 0.517864
C25   C     C_R   0.507661 0.996610 0.924501 -0.013049
C26   C     C_R   0.013770 0.515170 0.927051 -0.013765
C27   C     C_R   0.487669 0.496553 0.926012 -0.008973
C28   C     C_R   0.997694 0.507353 0.075822 0.007173
C29   C     C_R   0.511983 0.010178 0.073355 0.012050
C30   C     C_R   0.494348 0.487107 0.074603 -0.012349
C31   C     C_R   0.409877 0.019123 0.959975 -0.022816
C32   C     C_R   0.996072 0.397386 0.964046 -0.021493
C33   C     C_R   0.604210 0.597928 0.963588 -0.017843
C34   C     C_R   0.454618 0.520352 0.853812 0.537692
C35   C     C_R   0.014106 0.406625 0.039185 -0.021768
C36   C     C_R   0.398146 0.000263 0.034936 0.011892
C37   C     C_R   0.593360 0.606177 0.038552 -0.019118
C38   C     C_R   0.618949 0.006932 0.036191 -0.171774
C39   C     C_R   0.002545 0.617558 0.037861 -0.139437
C40   C     C_R   0.387260 0.378752 0.035936 -0.167187
C41   C     C_R   0.015794 0.624005 0.965262 -0.162811
C42   C     C_R   0.613769 0.994341 0.963600 -0.166113
C43   C     C_R   0.380546 0.386686 0.963462 -0.161910
C44   C     C_R   0.317427 0.050993 0.923751 0.298996
C45   C     C_R   0.067528 0.546516 0.854263 0.538582
C46   C     C_R   0.962651 0.270837 0.929863 0.300580
C47   C     C_R   0.730934 0.692618 0.930199 0.300356
C48   C     C_R   0.044501 0.312292 0.074339 0.297815
C49   C     C_R   0.272324 0.968225 0.068257 0.292056
C50   C     C_R   0.685376 0.731919 0.073965 0.292778
C51   C     C_R   0.199998 0.029808 0.958699 -0.152262
C52   C     C_R   0.978753 0.173414 0.967606 -0.163167
C53   C     C_R   0.827612 0.805658 0.968734 -0.164121
C54   C     C_R   0.025960 0.197108 0.037548 -0.163423
C55   C     C_R   0.173057 0.980223 0.027976 -0.198731
C56   C     C_R   0.480942 0.935859 0.853209 0.542427
C57   C     C_R   0.801734 0.828785 0.038184 -0.170623
C58   C     C_R   0.495709 0.984669 0.573285 0.005096
C59   C     C_R   0.007130 0.506251 0.574469 -0.007824
C60   C     C_R   0.506301 0.489305 0.581643 -0.006497
C61   C     C_R   0.995725 0.515877 0.426278 -0.000769
C62   C     C_R   0.524367 0.003373 0.425824 0.005228
C63   C     C_R   0.526756 0.441185 0.437228 0.006428
C64   C     C_R   0.629293 0.053218 0.543897 0.021654
C65   C     C_R   0.951812 0.581938 0.542525 0.022794
C66   C     C_R   0.446702 0.352169 0.557100 0.022602
C67   C     C_R   0.392617 0.936555 0.455124 -0.166775
C68   C     C_R   0.973374 0.608787 0.469547 0.037386
C69   C     C_R   0.642073 0.037456 0.470918 0.041971
C70   C     C_R   0.440385 0.327891 0.483155 0.023731
C71   C     C_3   0.461170 0.209169 0.839128 -0.120545
C72   C     C_3   0.800241 0.250877 0.845741 -0.116848
C73   C     C_3   0.753928 0.553307 0.846050 -0.117367
C74   C     C_3   0.206066 0.455338 0.158493 -0.108578
C75   C     C_3   0.159444 0.938682 0.176852 -0.078007
C76   C     C_3   0.539143 0.747696 0.156596 -0.101223
C77   C     C_R   0.040107 0.432513 0.458246 -0.150216
C78   C     C_R   0.593757 0.576032 0.464278 -0.137694
Cr1   Cr    Cr6+3 0.768550 0.541320 0.250660 1.031785
Cr2   Cr    Cr6+3 0.458680 0.227230 0.250660 0.988408
Cr3   Cr    Cr6+3 0.772770 0.231450 0.250660 1.048679
Cr4   Cr    Cr6+3 0.541320 0.768550 0.749340 1.053541
Cr5   Cr    Cr6+3 0.227230 0.458680 0.749340 1.050746
Cr6   Cr    Cr6+3 0.231450 0.772770 0.749340 1.048560
H1    H     H_    0.745178 0.146148 0.641874 0.120217
H2    H     H_    0.920111 0.884332 0.462976 0.103212
H3    H     H_    0.980958 0.111610 0.474224 0.105983
H4    H     H_    0.172695 0.994604 0.486419 0.114245
H5    H     H_    0.708652 0.015003 0.063112 0.174132
H6    H     H_    0.991715 0.697916 0.063880 0.170627
H7    H     H_    0.308088 0.285849 0.061526 0.165662
H8    H     H_    0.027842 0.715827 0.939162 0.174646
H9    H     H_    0.692641 0.979897 0.938319 0.176660
H10   H     H_    0.289275 0.306304 0.936924 0.175462
H11   H     H_    0.524971 0.177559 0.808370 0.094050
H12   H     H_    0.862016 0.617797 0.637593 0.124354
H13   H     H_    0.518813 0.268213 0.887390 0.086312
H14   H     H_    0.445517 0.279134 0.803623 0.148677
H15   H     H_    0.829713 0.344908 0.813956 0.094951
H16   H     H_    0.742924 0.251182 0.894058 0.088306
H17   H     H_    0.729309 0.163847 0.811110 0.153479
H18   H     H_    0.659240 0.487699 0.814664 0.092482
H19   H     H_    0.756726 0.496682 0.894266 0.087746
H20   H     H_    0.840045 0.570762 0.810747 0.156819
H21   H     H_    0.267004 0.508660 0.110211 0.097226
H22   H     H_    0.273510 0.439807 0.196133 0.158849
H23   H     H_    0.396244 0.250681 0.661065 0.123982
H24   H     H_    0.176612 0.524078 0.186335 0.126751
H25   H     H_    0.173696 0.919798 0.233389 0.129845
H26   H     H_    0.047613 0.871582 0.163993 0.124636
H27   H     H_    0.191109 0.050243 0.172009 0.132744
H28   H     H_    0.476612 0.653620 0.188526 0.108496
H29   H     H_    0.481362 0.746066 0.107733 0.102218
H30   H     H_    0.552368 0.833929 0.190805 0.165460
H31   H     H_    0.128106 0.048181 0.929519 0.134874
H32   H     H_    0.953783 0.079183 0.941121 0.128169
H33   H     H_    0.922912 0.874937 0.943192 0.127348
H34   H     H_    0.013313 0.772101 0.392016 0.131443
H35   H     H_    0.048622 0.126570 0.064857 0.117736
H36   H     H_    0.073791 0.947868 0.049932 0.091268
H37   H     H_    0.871765 0.921562 0.066136 0.122508
H38   H     H_    0.301390 0.899218 0.421608 0.109234
H39   H     H_    0.065125 0.367098 0.426492 0.134028
H40   H     H_    0.651555 0.664570 0.429907 0.146053
H41   H     H_    0.111318 0.388818 0.554285 0.150276
H42   H     H_    0.275457 0.854857 0.549902 0.152235
H43   H     H_    0.614091 0.705632 0.551415 0.146347
H44   H     H_    0.782292 0.017199 0.395740 0.143962
H45   H     H_    0.321958 0.161287 0.404698 0.167856
H46   H     H_    0.961776 0.170019 0.598611 0.126462
H47   H     H_    0.850989 0.814482 0.587840 0.127106
H48   H     H_    0.211518 0.029231 0.615702 0.137197
O1    O     O_R   0.910960 0.572410 0.171010 -0.530934
O2    O     O_R   0.528530 0.639750 0.824400 -0.445269
O3    O     O_R   0.111220 0.471470 0.824400 -0.442804
O4    O     O_R   0.360250 0.888780 0.824400 -0.443105
O5    O     O_R   0.909330 0.572400 0.331540 -0.544708
O6    O     O_R   0.427600 0.336930 0.331540 -0.545422
O7    O     O_R   0.663070 0.090670 0.331540 -0.533053
O8    O     O_R   0.572400 0.909330 0.668460 -0.524738
O9    O     O_R   0.336930 0.427600 0.668460 -0.527242
O10   O     O_R   0.090670 0.663070 0.668460 -0.529131
O11   O     O_R   0.638240 0.528520 0.324410 -0.496943
O12   O     O_R   0.427590 0.338550 0.171010 -0.542660
O13   O     O_R   0.471480 0.109720 0.324410 -0.532317
O14   O     O_R   0.890280 0.361760 0.324410 -0.491119
O15   O     O_R   0.528520 0.638240 0.675590 -0.504612
O16   O     O_R   0.109720 0.471480 0.675590 -0.505216
O17   O     O_R   0.361760 0.890280 0.675590 -0.507325
O18   O     O_3   0.666667 0.333333 0.250630 -0.285854
O19   O     O_3   0.333333 0.666667 0.749370 -0.274284
O20   O     O_3   0.330110 0.092781 0.853187 -0.539095
O21   O     O_3   0.917547 0.237521 0.859820 -0.536806
O22   O     O_3   0.765233 0.682758 0.860294 -0.537775
O23   O     O_R   0.661450 0.089040 0.171010 -0.527112
O24   O     O_3   0.088324 0.324641 0.144672 -0.551181
O25   O     O_3   0.241045 0.902618 0.134378 -0.570271
O26   O     O_3   0.671215 0.763738 0.143831 -0.552019
O27   O     O_R   0.572410 0.910960 0.828990 -0.529315
O28   O     O_R   0.338550 0.427590 0.828990 -0.528232
O29   O     O_R   0.089040 0.661450 0.828990 -0.531837
O30   O     O_R   0.639750 0.528530 0.175600 -0.442003
O31   O     O_R   0.471470 0.111220 0.175600 -0.466421
O32   O     O_R   0.888780 0.360250 0.175600 -0.446730

loop_
_geom_bond_atom_site_label_1
_geom_bond_atom_site_label_2
_ccdc_geom_bond_type
C25   C31   A    
C11   H46   S    
C26   C32   A    
C37   C50   A    
C12   C29   S    
C17   H4    S    
C25   C56   S    
Cr4   O15   S    
C3    H42   S    
C8    H34   S    
C39   C41   A    
C14   H48   S    
C27   C33   A    
Cr2   O18   S    
Cr4   O2    S    
C71   H13   S    
C29   C36   A    
C76   O26   S    
C19   O13   A    
C62   C67   A    
C77   H39   S    
C21   O15   A    
C18   O11   A    
C9    C16   A    
C9    C69   A    
C38   C42   A    
C56   O27   A    
C53   H33   S    
C18   C63   S    
C71   H11   S    
C72   H17   S    
C34   O2    A    
C19   C62   S    
Cr3   O18   S    
C42   H9    S    
C46   C52   A    
C43   H10   S    
C62   C69   A    
C51   C55   A    
C20   C61   S    
C18   O6    A    
C45   O29   A    
Cr4   O8    S    
C26   C45   S    
C7    C14   A    
Cr1   O11   S    
Cr5   O28   S    
C28   C35   A    
C61   C77   A    
Cr2   O12   S    
C73   O22   S    
C16   H3    S    
C76   H30   S    
C78   H40   S    
C39   H6    S    
Cr5   O3    S    
Cr4   O19   S    
C47   C53   A    
C5    H1    S    
Cr6   O17   S    
C75   O25   S    
C48   O24   S    
C60   C66   A    
C54   H35   S    
C14   C17   A    
C49   O25   S    
C35   C48   A    
C56   O4    A    
C52   C54   A    
Cr5   O19   S    
C55   H36   S    
C52   H32   S    
C27   C34   S    
C58   C64   A    
Cr1   O1    S    
C71   H14   S    
C45   O3    A    
C9    H44   S    
C75   H25   S    
C31   C44   A    
C23   O1    A    
C74   O24   S    
C32   C35   A    
C21   C60   S    
C22   C59   S    
Cr5   O9    S    
C53   C57   A    
C2    C59   A    
C28   C39   A    
C49   C55   A    
C57   H37   S    
C33   C37   A    
C30   C37   A    
C20   O5    A    
C29   C38   A    
C48   C54   A    
C2    H41   S    
Cr2   O31   S    
C4    C78   A    
C3    C58   A    
C6    C65   A    
C73   H20   S    
C11   C16   A    
C71   O20   S    
C38   H5    S    
C63   C70   A    
Cr6   O10   S    
C76   H28   S    
C65   C68   A    
C4    C60   A    
C76   H29   S    
C13   H47   S    
C30   C40   A    
C44   O20   S    
C64   C69   A    
Cr1   O18   S    
C10   C70   A    
C44   C51   A    
C19   O7    A    
C73   H18   S    
Cr1   O5    S    
C22   O16   A    
C1    O30   A    
C8    C68   A    
C8    C15   A    
C6    H12   S    
C15   H2    S    
C33   C47   A    
Cr3   O32   S    
C7    H23   S    
C23   C28   S    
Cr1   O30   S    
C10   C17   A    
C24   O8    A    
C67   H38   S    
C23   O32   A    
C72   H16   S    
Cr3   O7    S    
C46   O21   S    
Cr6   O4    S    
C75   H26   S    
C72   O21   S    
C4    H43   S    
C50   C57   A    
C32   C46   A    
C3    C67   A    
C50   O26   S    
C25   C42   A    
C22   O10   A    
C5    C11   A    
C47   O22   S    
C75   H27   S    
Cr3   O23   S    
C40   C43   A    
C13   C15   A    
C10   H45   S    
C21   O9    A    
C1    O12   A    
C59   C65   A    
C74   H21   S    
Cr4   O27   S    
C61   C68   A    
C66   C70   A    
Cr2   O6    S    
C1    C30   S    
C20   O14   A    
C74   H22   S    
C40   H7    S    
C51   H31   S    
C12   O31   A    
Cr2   O13   S    
C24   O17   A    
Cr6   O29   S    
C74   H24   S    
Cr5   O16   S    
Cr6   O19   S    
C27   C43   A    
C73   H19   S    
C41   H8    S    
C5    C64   A    
C6    C13   A    
C24   C58   S    
Cr3   O14   S    
C2    C77   A    
C31   C36   A    
C12   O23   A    
C63   C78   A    
C36   C49   A    
C26   C41   A    
C7    C66   A    
C72   H15   S    
C34   O28   A    
