data_mof_unit_38958.cif
_audit_creation_date              2012-12-10T16:41:54-0500
_audit_creation_method            fapswitch 2.2
_symmetry_space_group_name_H-M    P1
_symmetry_Int_Tables_number       1
_space_group_crystal_system       triclinic
_cell_length_a                    10.863725
_cell_length_b                    8.717144
_cell_length_c                    7.508737
_cell_angle_alpha                 103.305176
_cell_angle_beta                  93.784874
_cell_angle_gamma                 93.015396
_cell_volume                      688.801249498

loop_
_atom_site_label
_atom_site_type_symbol
_atom_type_description
_atom_site_fract_x
_atom_site_fract_y
_atom_site_fract_z
_atom_type_partial_charge
C1    C     C_R   0.491260 0.200235 0.453736 0.727625
C2    C     C_2   0.508766 0.968020 0.568342 -0.451396
C3    C     C_R   0.265371 0.503941 0.503347 0.691348
C4    C     C_R   0.503093 0.799974 0.546284 0.914967
C5    C     C_R   0.733692 0.491903 0.496489 0.826121
C6    C     C_2   0.925999 0.462836 0.345565 -0.121793
C7    C     C_2   0.863406 0.465547 0.492575 -0.233320
C8    C     C_2   0.059203 0.447473 0.358255 -0.260019
C9    C     C_2   0.132708 0.520446 0.508963 0.302890
C10   C     C_2   0.470296 0.032431 0.430261 0.346293
Cu1   Cu    Cu3+1 0.513740 0.517380 0.684380 1.004657
Cu2   Cu    Cu3+1 0.486260 0.482620 0.315620 0.999478
H1    H     H_    0.880176 0.467129 0.214712 0.147016
H2    H     H_    0.909039 0.444625 0.616672 0.161781
H3    H     H_    0.097015 0.374356 0.239746 0.128405
H4    H     H_    0.549058 0.040194 0.699116 0.138991
N1    N     N_2   0.465540 0.456420 0.038510 0.036300
N2    N     N_2   0.534460 0.543580 0.961490 -0.112049
O1    O     O_R   0.508930 0.286130 0.619780 -0.596013
O2    O     O_R   0.485720 0.256780 0.308360 -0.605064
O3    O     O_R   0.333540 0.514670 0.655670 -0.536299
O4    O     O_R   0.310330 0.485320 0.344250 -0.613237
O5    O     O_R   0.514280 0.743220 0.691640 -0.583183
O6    O     O_R   0.491070 0.713870 0.380220 -0.495882
O7    O     O_R   0.689670 0.514680 0.655750 -0.624010
O8    O     O_R   0.666460 0.485330 0.344330 -0.619165
O9    O     O_3   0.087598 0.638993 0.641655 -0.581870
C11   C     C_3   0.111031 0.613777 0.819711 0.087469
H5    H     H_    0.203981 0.667591 0.879297 0.202912
H6    H     H_    0.104350 0.485953 0.820620 0.147160
C12   C     C_3   0.015707 0.694527 0.942350 -0.821051
H7    H     H_    0.920556 0.656492 0.879223 0.257127
H8    H     H_    0.024669 0.662388 0.076908 0.213027
H9    H     H_    0.029935 0.824827 0.963931 0.248725
O10   O     O_3   0.412969 0.942221 0.265649 -0.529256
C13   C     C_3   0.285578 0.969890 0.254129 0.036784
H10   H     H_    0.252741 0.946861 0.106754 0.162765
H11   H     H_    0.265389 0.093904 0.316759 0.091137
C14   C     C_3   0.210930 0.857424 0.340585 -0.766419
H12   H     H_    0.243672 0.871799 0.486891 0.237903
H13   H     H_    0.111895 0.882721 0.333108 0.218960
H14   H     H_    0.220438 0.734010 0.265206 0.267642
O11   O     O_3   0.358208 0.400081 0.939674 -0.462425
C15   C     C_3   0.332206 0.245302 0.958803 0.216290
H15   H     H_    0.294976 0.247489 0.092804 0.149098
H16   H     H_    0.415847 0.176003 0.944796 0.152600
C16   C     C_3   0.233917 0.161623 0.809326 -0.913469
H17   H     H_    0.263560 0.167367 0.672275 0.251665
H18   H     H_    0.219118 0.035773 0.814459 0.219536
H19   H     H_    0.145183 0.218286 0.829662 0.234060
C17   C     C_2   0.648419 0.611366 0.053945 0.728131
H20   H     H_    0.728631 0.542454 0.041874 -0.061961
O12   O     O_2   0.659506 0.750860 0.132833 -0.560983

loop_
_geom_bond_atom_site_label_1
_geom_bond_atom_site_label_2
_ccdc_geom_bond_type
Cu2   N1    S    
C2    C4    S    
Cu1   Cu2   S    
C12   H8    S    
Cu1   N2    S    
C10   O10   S    
C3    C9    S    
C5    O8    A    
C16   H19   S    
C2    H4    S    
Cu2   O6    S    
C12   H7    S    
C15   C16   S    
O11   C15   S    
Cu2   O2    S    
C11   H6    S    
N1    N2    D    
C12   H9    S    
C14   H13   S    
C6    H1    S    
Cu1   O1    S    
C6    C7    D    
C5    O7    A    
Cu1   O5    S    
C11   H5    S    
C15   H16   S    
N2    C17   S    
C8    H3    S    
C11   C12   S    
C4    O6    A    
C3    O3    A    
C1    O1    A    
Cu1   O7    S    
C14   H12   S    
C17   H20   S    
C2    C10   D    
C16   H17   S    
Cu2   O4    S    
O9    C11   S    
C13   H11   S    
C15   H15   S    
C9    O9    S    
C16   H18   S    
N1    O11   S    
C5    C7    S    
C4    O5    A    
C14   H14   S    
C13   H10   S    
C1    O2    A    
C6    C8    S    
C3    O4    A    
Cu1   O3    S    
C13   C14   S    
C7    H2    S    
C1    C10   S    
O10   C13   S    
Cu2   O8    S    
C8    C9    D    
C17   O12   D    
