data_mof_unit_31672.cif
_audit_creation_date              2013-03-05T15:54:25-0500
_audit_creation_method            fapswitch 2.2
_symmetry_space_group_name_H-M    P1
_symmetry_Int_Tables_number       1
_space_group_crystal_system       triclinic
_cell_length_a                    15.705381
_cell_length_b                    10.714067
_cell_length_c                    9.964219
_cell_angle_alpha                 90.583194
_cell_angle_beta                  90.505477
_cell_angle_gamma                 93.731067
_cell_volume                      1672.94825682

loop_
_atom_site_label
_atom_site_type_symbol
_atom_site_description
_atom_site_fract_x
_atom_site_fract_y
_atom_site_fract_z
_atom_type_partial_charge
O1    O     O_R   0.500000 0.316780 0.614690 -0.640262
O2    O     O_R   0.499990 0.316750 0.385360 -0.631323
C1    C     C_R   0.507201 0.260914 0.499831 0.946519
O3    O     O_R   0.376780 0.500000 0.614650 -0.555886
O4    O     O_R   0.376770 0.499980 0.385310 -0.592190
C2    C     C_R   0.338330 0.501066 0.499470 0.955836
Zn1   Zn    Zn3+2 0.500010 0.500020 0.653130 1.078854
Zn2   Zn    Zn3+2 0.499990 0.499980 0.346870 1.112511
O5    O     O_R   0.500010 0.683250 0.614640 -0.612124
O6    O     O_R   0.500000 0.683220 0.385310 -0.516323
O7    O     O_R   0.623230 0.500020 0.614690 -0.587454
O8    O     O_R   0.623220 0.500000 0.385350 -0.572562
C3    C     C_R   0.491393 0.738814 0.500972 0.920985
C4    C     C_R   0.661785 0.500564 0.500579 0.877515
C5    C     C_3   0.968809 0.423921 0.601977 -0.312852
C6    C     C_3   0.022178 0.386100 0.480723 0.193751
H1    H     H_    0.943091 0.361805 0.682571 0.232933
C7    C     C_1   0.249656 0.502051 0.498574 0.063301
C8    C     C_1   0.750584 0.500399 0.502034 -0.053553
C9    C     C_3   0.030235 0.541289 0.619964 0.333062
C10   C     C_3   0.083691 0.501343 0.501448 -0.145058
C11   C     C_3   0.976546 0.618761 0.526032 -0.225366
C12   C     C_3   0.916565 0.500464 0.504517 -0.078881
C13   C     C_3   0.030394 0.577350 0.404650 -0.277898
C14   C     C_3   0.968781 0.459966 0.384640 0.700878
C15   C     C_1   0.174463 0.502175 0.499284 0.191507
C16   C     C_1   0.825839 0.500333 0.503383 0.136540
H2    H     H_    0.056388 0.638751 0.323654 0.234709
H3    H     H_    0.956261 0.714297 0.547102 0.225751
H4    H     H_    0.488047 0.109810 0.286251 0.198617
C17   C     C_R   0.564101 0.115540 0.735782 -0.215851
H5    H     H_    0.603226 0.202072 0.728339 0.201613
C18   C     C_R   0.557730 0.055491 0.859949 0.324641
C19   C     C_R   0.502119 0.948327 0.870458 -0.228144
H6    H     H_    0.487815 0.910101 0.968468 0.249570
C20   C     C_R   0.463737 0.891549 0.755371 0.305445
C21   C     C_R   0.486521 0.939922 0.627114 -0.049302
C22   C     C_R   0.521869 0.062517 0.621150 -0.002889
C23   C     C_R   0.512995 0.127245 0.499819 -0.151954
C24   C     C_R   0.492586 0.062261 0.380720 -0.177208
C25   C     C_R   0.478266 0.934827 0.381581 0.678123
C26   C     C_R   0.478982 0.871608 0.504186 -0.218752
C27   C     C_R   0.411099 0.300805 0.134530 0.368262
C28   C     C_R   0.401402 0.187435 0.064533 -0.245573
H7    H     H_    0.374862 0.104281 0.113924 0.226210
C29   C     C_R   0.396588 0.189466 0.926441 -0.283861
H8    H     H_    0.366457 0.108266 0.875298 0.219770
C30   C     C_R   0.407103 0.303091 0.860001 0.383706
C31   C     C_R   0.452311 0.406274 0.926366 -0.010425
C32   C     C_R   0.453766 0.405153 0.070579 -0.061397
N1    N     N_R   0.499210 0.498800 0.142780 -0.186415
C33   C     C_R   0.548555 0.585045 0.073679 0.696219
C34   C     C_R   0.551848 0.581710 0.930925 0.241337
N2    N     N_R   0.499180 0.498720 0.857170 -0.184451
N3    N     N_R   0.045479 0.258836 0.453817 0.262332
O9    O     O_R   0.986038 0.169627 0.437081 -0.285099
O10   O     O_R   0.125162 0.233340 0.447030 -0.270846
N4    N     N_R   0.395039 0.796875 0.770657 0.235076
O11   O     O_R   0.335860 0.781059 0.678647 -0.356730
O12   O     O_R   0.385377 0.736971 0.883044 -0.345990
F1    F     F_    0.463146 0.874373 0.262346 -0.608196
F2    F     F_    0.600255 0.669421 0.143264 -0.560024
N5    N     N_R   0.345305 0.318383 0.229220 0.233164
O13   O     O_R   0.330166 0.235767 0.322407 -0.355895
O14   O     O_R   0.284261 0.388564 0.194636 -0.311955
N6    N     N_R   0.341832 0.321351 0.763536 0.231727
O15   O     O_R   0.280505 0.390957 0.798036 -0.287431
O16   O     O_R   0.327450 0.239570 0.667061 -0.357005
N7    N     N_R   0.620041 0.652137 0.866770 0.241953
O17   O     O_R   0.688299 0.595261 0.837945 -0.313433
O18   O     O_R   0.627613 0.772688 0.883279 -0.328414
F3    F     F_    0.934980 0.415956 0.263228 -0.561217
N8    N     N_R   0.062911 0.587061 0.749963 0.252469
O19   O     O_R   0.009924 0.617236 0.842559 -0.278802
O20   O     O_R   0.144542 0.598848 0.774186 -0.267938
N9    N     N_R   0.601255 0.108893 0.976814 0.229226
O21   O     O_R   0.641484 0.218863 0.972147 -0.364358
O22   O     O_R   0.602130 0.047102 0.088526 -0.312826

loop_
_geom_bond_atom_site_label_1
_geom_bond_atom_site_label_2
_geom_bond_distance
_ccdc_geom_bond_type
N6    O16   1.302357 A    
N3    O9    1.300289 A    
N5    O14   1.302523 A    
C6    C10   1.528571 S    
C11   H3    1.110201 S    
N8    O19   1.300312 A    
C7    C15   1.181104 T    
C25   F1    1.358977 S    
C10   C15   1.425412 S    
C34   N7    1.428901 S    
C27   N5    1.425600 S    
C34   N2    1.376650 A    
C28   H7    1.083462 S    
Zn1   O7    1.976069 S    
C20   C21   1.423837 A    
N9    O22   1.301321 A    
C20   N4    1.442148 S    
O4    C2    1.292788 A    
O7    C4    1.292808 A    
N4    O12   1.301525 A    
C5    C6    1.542272 S    
Zn1   O5    2.004077 S    
C19   H6    1.082568 S    
C25   C26   1.403196 A    
C21   C26   1.420562 A    
N7    O18   1.297986 A    
O5    C3    1.295001 A    
C17   C18   1.401667 A    
C12   C16   1.424725 S    
C8    C16   1.181919 T    
C5    C12   1.542265 S    
N6    O15   1.302347 A    
C1    C23   1.440916 S    
N8    O20   1.300278 A    
O3    Zn1   1.969655 S    
C3    C26   1.448640 S    
C28   C29   1.377854 A    
C32   N1    1.384448 A    
C5    C9    1.542245 S    
C2    C7    1.393350 S    
C29   C30   1.392742 A    
N1    C33   1.362972 A    
C13   C14   1.546265 S    
O3    C2    1.292625 A    
C23   C24   1.394001 A    
N4    O11   1.301689 A    
O1    C1    1.295396 A    
C27   C28   1.393506 A    
C21   C22   1.394361 A    
C18   N9    1.439483 S    
C17   H5    1.081978 S    
Zn2   O8    1.969656 S    
C18   C19   1.402006 A    
H4    C24   1.078877 S    
C14   F3    1.382815 S    
N9    O21   1.301650 A    
Zn2   N1    2.033431 S    
C30   C31   1.427666 A    
O8    C4    1.293165 A    
N3    O10   1.300349 A    
C11   C13   1.559115 S    
C33   C34   1.423994 A    
C6    C14   1.527704 S    
C5    H1    1.110219 S    
C29   H8    1.083347 S    
C24   C25   1.369344 A    
O1    Zn1   1.996420 S    
C4    C8    1.394686 S    
O2    Zn2   2.004078 S    
C13   H2    1.110162 S    
C9    C11   1.539142 S    
O6    C3    1.304040 A    
O4    Zn2   1.976068 S    
C27   C32   1.424619 A    
C17   C22   1.411273 A    
O2    C1    1.300821 A    
C6    N3    1.457456 S    
C33   F2    1.356120 S    
C22   C23   1.410199 A    
C9    N8    1.457518 S    
C19   C20   1.405112 A    
C12   C14   1.529913 S    
N7    O17   1.299983 A    
N5    O13   1.302082 A    
C9    C10   1.528582 S    
Zn2   O6    1.996419 S    
C31   C32   1.437132 A    
C10   C13   1.544200 S    
C11   C12   1.541202 S    
Zn1   N2    2.033441 S    
C30   N6    1.423228 S    
C31   N2    1.387889 A    
