data_mof_unit_43315.cif
_audit_creation_date              2012-12-10T16:50:57-0500
_audit_creation_method            fapswitch 2.2
_symmetry_space_group_name_H-M    P1
_symmetry_Int_Tables_number       1
_space_group_crystal_system       triclinic
_cell_length_a                    7.699717
_cell_length_b                    8.566294
_cell_length_c                    10.925308
_cell_angle_alpha                 91.254797
_cell_angle_beta                  86.391936
_cell_angle_gamma                 93.729977
_cell_volume                      717.545427508

loop_
_atom_site_label
_atom_site_type_symbol
_atom_type_description
_atom_site_fract_x
_atom_site_fract_y
_atom_site_fract_z
_atom_type_partial_charge
C1    C     C_R   0.546039 0.795009 0.496728 0.980011
C2    C     C_R   0.959497 0.405728 0.056432 0.332450
C3    C     C_R   0.029160 0.563658 0.070964 -0.198579
C4    C     C_R   0.970861 0.436431 0.929012 -0.198462
C5    C     C_R   0.188580 0.589142 0.132121 0.459998
C6    C     C_R   0.811440 0.410941 0.867864 0.459881
C7    C     C_R   0.345385 0.540533 0.069773 0.115104
C8    C     C_R   0.654632 0.459528 0.930221 0.115116
C9    C     C_R   0.355902 0.552747 0.942692 -0.064566
C10   C     C_R   0.644118 0.447312 0.057300 -0.064570
C11   C     C_R   0.492550 0.492126 0.127647 -0.153465
C12   C     C_R   0.453961 0.204991 0.503272 0.980014
C13   C     C_R   0.507458 0.507911 0.872350 -0.153458
C14   C     C_2   0.570497 0.958354 0.494862 -0.352633
C15   C     C_2   0.429502 0.041646 0.505138 -0.352626
C16   C     C_R   0.503647 0.503783 0.739971 0.931981
C17   C     C_R   0.496354 0.496226 0.260028 0.931978
C18   C     C_R   0.213450 0.620695 0.891731 -0.212780
C19   C     C_R   0.786583 0.379379 0.108256 -0.212685
C20   C     C_R   0.040533 0.594356 0.943544 0.332370
H1    H     H_    0.065615 0.362598 0.882294 0.145423
H2    H     H_    0.015877 0.188983 0.062745 0.339933
H3    H     H_    0.086413 0.718853 0.263394 0.328435
H4    H     H_    0.913536 0.281404 0.736474 0.328515
H5    H     H_    0.934394 0.637489 0.117671 0.145334
H6    H     H_    0.235104 0.699446 0.815189 0.193734
H7    H     H_    0.764941 0.300605 0.184786 0.193707
H8    H     H_    0.703601 0.009533 0.485094 0.180726
H9    H     H_    0.296399 0.990467 0.514906 0.180732
H10   H     H_    0.014894 0.384993 0.405456 0.207541
H11   H     H_    0.985105 0.615005 0.594545 0.207523
H12   H     H_    0.984191 0.811119 0.937244 0.339885
N1    N     N_2   0.950330 0.457950 0.466250 -0.179901
N2    N     N_2   0.049670 0.542050 0.533750 -0.179899
O1    O     O_R   0.389250 0.738570 0.508280 -0.605652
O2    O     O_3   0.065660 0.292227 0.091870 -0.790277
O3    O     O_3   0.202805 0.704946 0.221994 -0.759870
O4    O     O_3   0.797219 0.295072 0.778045 -0.759917
O5    O     O_R   0.610750 0.261430 0.491720 -0.605688
O6    O     O_R   0.678390 0.711630 0.486650 -0.639610
O7    O     O_R   0.321610 0.288370 0.513350 -0.639624
O8    O     O_R   0.355430 0.513480 0.694040 -0.650574
O9    O     O_R   0.644570 0.486520 0.305960 -0.650570
O10   O     O_R   0.644570 0.486540 0.672410 -0.572231
O11   O     O_R   0.355430 0.513460 0.327590 -0.572103
O12   O     O_3   0.934390 0.707862 0.908098 -0.790199
Zn1   Zn    Zn3+2 0.306940 0.517990 0.514440 0.964795
Zn2   Zn    Zn3+2 0.693060 0.482010 0.485560 0.964751

loop_
_geom_bond_atom_site_label_1
_geom_bond_atom_site_label_2
_ccdc_geom_bond_type
H4    O4    S    
C6    O4    S    
C15   H9    S    
C8    C13   A    
N2    Zn1   S    
C5    O3    S    
C19   H7    S    
O9    Zn2   S    
C16   O10   A    
C2    C4    A    
C18   H6    S    
C12   C15   S    
C10   C19   A    
O1    Zn1   S    
C1    O6    A    
C12   O5    A    
C17   O9    A    
C2    C3    A    
O7    Zn1   S    
H11   N2    S    
C5    C7    A    
C3    C20   A    
H3    O3    S    
C7    C11   A    
C4    H1    S    
C12   O7    A    
C4    C6    A    
C17   O11   A    
N1    N2    D    
C18   C20   A    
O8    Zn1   S    
O11   Zn1   S    
C10   C11   A    
C4    C20   A    
C16   O8    A    
C9    C18   A    
C3    H5    S    
H2    O2    S    
C1    O1    A    
C8    C10   A    
C13   C16   S    
C2    O2    S    
C7    C9    A    
N1    Zn2   S    
C9    C13   A    
O6    Zn2   S    
C11   C17   S    
C6    C8    A    
C1    C14   S    
H10   N1    S    
C14   H8    S    
C2    C19   A    
C14   C15   D    
H12   O12   S    
C20   O12   S    
O10   Zn2   S    
O5    Zn2   S    
C3    C5    A    
