data_mof_unit_28822.cif
_audit_creation_date              2012-12-11T14:15:30-0500
_audit_creation_method            fapswitch 2.2
_symmetry_space_group_name_H-M    P1
_symmetry_Int_Tables_number       1
_space_group_crystal_system       triclinic
_cell_length_a                    11.084698
_cell_length_b                    12.706777
_cell_length_c                    23.538232
_cell_angle_alpha                 90.61441
_cell_angle_beta                  96.976793
_cell_angle_gamma                 69.166773
_cell_volume                      3073.78848564

loop_
_atom_site_label
_atom_site_type_symbol
_atom_type_description
_atom_site_fract_x
_atom_site_fract_y
_atom_site_fract_z
_atom_type_partial_charge
C1    C     C_R   0.150662 0.616862 0.429491 0.550860
C2    C     C_R   0.697814 0.539347 0.308102 -0.116894
C3    C     C_R   0.696805 0.730497 0.317948 -0.095349
C4    C     C_R   0.690331 0.740736 0.258636 0.067924
C5    C     C_R   0.696653 0.646514 0.224986 0.035456
C6    C     C_R   0.693919 0.654409 0.166381 -0.098707
C7    C     C_R   0.663831 0.852586 0.172582 -0.099049
C8    C     C_R   0.677931 0.842791 0.232153 -0.074839
C9    C     C_1   0.279244 0.086688 0.135161 0.040554
C10   C     C_2   0.249349 0.128155 0.244036 -0.102712
C11   C     C_2   0.131503 0.166667 0.262346 0.263260
C12   C     C_R   0.750808 0.602607 0.403509 0.546108
C13   C     C_1   0.122188 0.196745 0.321270 -0.020051
C14   C     C_1   0.266223 0.106361 0.184694 0.024686
C15   C     C_1   0.113186 0.229612 0.369315 -0.000092
C16   C     C_1   0.173758 0.760092 0.126606 0.019999
C17   C     C_2   0.149646 0.739158 0.235962 0.281452
C18   C     C_2   0.240029 0.658880 0.270964 -0.120993
C19   C     C_1   0.223239 0.644505 0.329944 0.030621
C20   C     C_1   0.163542 0.746180 0.176132 0.004647
C21   C     C_1   0.197187 0.632765 0.377181 0.050414
C22   C     C_1   0.631310 0.759773 0.866115 0.042204
C23   C     C_R   0.100878 0.281019 0.423806 0.551968
C24   C     C_2   0.693649 0.731511 0.760648 -0.109908
C25   C     C_2   0.653771 0.660545 0.727259 0.232713
C26   C     C_1   0.678271 0.648368 0.668534 -0.061728
C27   C     C_1   0.665462 0.747542 0.819055 0.019862
C28   C     C_1   0.704199 0.631078 0.620349 -0.020110
C29   C     C_R   0.256527 0.066192 0.839978 0.022380
C30   C     C_R   0.106125 0.217301 0.638195 -0.004590
C31   C     C_R   0.996229 0.198261 0.719030 -0.002104
C32   C     C_R   0.991712 0.235286 0.662928 -0.116010
C33   C     C_R   0.226273 0.153071 0.667468 -0.107533
C34   C     C_R   0.144613 0.613049 0.592931 0.541372
C35   C     C_R   0.234169 0.114941 0.723394 0.060520
C36   C     C_R   0.119535 0.139982 0.750452 0.068945
C37   C     C_R   0.132889 0.112492 0.808912 -0.101020
C38   C     C_R   0.367864 0.036338 0.812002 -0.109920
C39   C     C_R   0.356746 0.059232 0.753855 -0.107704
C40   C     C_R   0.115495 0.745281 0.854755 -0.000131
C41   C     C_R   0.171623 0.622140 0.654666 -0.050651
C42   C     C_R   0.257277 0.529312 0.748860 0.306296
C43   C     C_R   0.253149 0.528172 0.689154 -0.089313
C44   C     C_R   0.089389 0.715600 0.679877 -0.130217
C45   C     C_R   0.750728 0.601513 0.566245 0.546376
C46   C     C_R   0.088164 0.716859 0.738332 0.006649
C47   C     C_R   0.178401 0.627390 0.774029 0.054279
C48   C     C_R   0.191739 0.643378 0.833118 -0.055930
C49   C     C_R   0.009118 0.820833 0.819782 -0.130376
C50   C     C_R   0.997713 0.808231 0.761421 -0.142997
C51   C     C_R   0.293975 0.058466 0.076670 0.553760
C52   C     C_R   0.600227 0.775697 0.081213 0.534442
C53   C     C_R   0.189940 0.788729 0.069980 0.539246
C54   C     C_R   0.272748 0.052650 0.902064 0.569695
C55   C     C_R   0.575473 0.776601 0.918760 0.544935
C56   C     C_R   0.099045 0.278797 0.585254 0.544963
C57   C     C_R   0.161600 0.785802 0.908113 0.535814
C58   C     C_R   0.665821 0.759223 0.139594 0.012083
C59   C     C_R   0.704913 0.628349 0.342913 0.001709
C60   C     C_R   0.697288 0.547368 0.249716 -0.114627
Cr1   Cr    Cr6+3 0.189770 0.415650 0.511620 1.037878
Cr2   Cr    Cr6+3 0.930400 0.667320 0.496770 1.045563
Cr3   Cr    Cr6+3 0.879870 0.417010 0.491650 1.035951
Cr4   Cr    Cr6+3 0.149500 0.973980 0.985330 1.074825
Cr5   Cr    Cr6+3 0.457000 0.976510 0.994660 1.049546
Cr6   Cr    Cr6+3 0.411170 0.724270 0.995270 1.068610
H1    H     H_    0.697098 0.581683 0.141131 0.156955
H2    H     H_    0.742406 0.782042 0.743232 0.078954
H3    H     H_    0.048708 0.132862 0.831481 0.134501
H4    H     H_    0.463967 0.998556 0.835615 0.122523
H5    H     H_    0.444437 0.038855 0.733409 0.103359
H6    H     H_    0.898256 0.284571 0.639592 0.145043
H7    H     H_    0.314323 0.138673 0.647948 0.133376
H8    H     H_    0.268718 0.583283 0.861517 0.199054
H9    H     H_    0.641576 0.934755 0.152521 0.148744
H10   H     H_    0.943501 0.896537 0.836454 0.136618
H11   H     H_    0.922840 0.873045 0.734159 0.100560
H12   H     H_    0.309957 0.452434 0.669337 0.194925
H13   H     H_    0.021412 0.786753 0.653777 0.143594
H14   H     H_    0.698029 0.475865 0.224004 0.176460
H15   H     H_    0.672247 0.916058 0.257211 0.123726
H16   H     H_    0.703195 0.459514 0.326164 0.167373
H17   H     H_    0.700843 0.799626 0.344585 0.136732
H18   H     H_    0.336345 0.114035 0.274256 0.079608
H19   H     H_    0.323092 0.597797 0.254144 0.083941
O1    O     O_R   0.196340 0.303200 0.448500 -0.509462
O2    O     O_R   0.811960 0.658090 0.547150 -0.500380
O3    O     O_R   0.757930 0.506140 0.547110 -0.507021
O4    O     O_R   0.988670 0.321620 0.556040 -0.507852
O5    O     O_3   0.000020 0.499990 0.500010 -0.253242
O6    O     O_R   0.113660 0.883270 0.047820 -0.481760
O7    O     O_R   0.186930 0.068530 0.043990 -0.446881
O8    O     O_R   0.377770 0.089040 0.054220 -0.490499
O9    O     O_R   0.562800 0.872960 0.056970 -0.517713
O10   O     O_R   0.555390 0.700940 0.062700 -0.510441
O11   O     O_R   0.295020 0.731920 0.049950 -0.502051
O12   O     O_R   0.199310 0.519670 0.454880 -0.503857
O13   O     O_R   0.094290 0.884230 0.921550 -0.531796
O14   O     O_R   0.168980 0.069410 0.926940 -0.489346
O15   O     O_R   0.358400 0.089990 0.927950 -0.466575
O16   O     O_R   0.544850 0.873850 0.939920 -0.536824
O17   O     O_R   0.536020 0.701900 0.936430 -0.453554
O18   O     O_R   0.277070 0.732810 0.932890 -0.488245
O19   O     O_3   0.339220 0.891590 0.991750 -0.316971
O20   O     O_R   0.045660 0.691380 0.441680 -0.472603
O21   O     O_R   0.811930 0.659460 0.430950 -0.490857
O22   O     O_R   0.757900 0.507620 0.421760 -0.520624
O23   O     O_R   0.988630 0.322990 0.439840 -0.488416
O24   O     O_R   0.196380 0.301720 0.573850 -0.509102
O25   O     O_R   0.199350 0.518300 0.571080 -0.504122
O26   O     O_R   0.045700 0.689900 0.567030 -0.517541
S1    S     S_3+6 0.017647 0.845773 0.261597 0.018496
O27   O     O_2   0.949085 0.794160 0.297761 -0.299205
O28   O     O_2   0.069022 0.922958 0.297388 -0.297312
O29   O     O_3   0.912915 0.919695 0.205984 -0.486692
H20   H     H_    0.848756 0.983305 0.223342 0.364352
S2    S     S_3+6 0.578693 0.573548 0.754070 0.037949
O30   O     O_2   0.666653 0.502892 0.803975 -0.213260
O31   O     O_2   0.452753 0.646339 0.774003 -0.293199
O32   O     O_3   0.550831 0.488194 0.703167 -0.501650
H21   H     H_    0.496526 0.539364 0.670973 0.325364
C61   C     C_3   0.868915 0.230083 0.744450 -0.249702
C62   C     C_3   0.827410 0.128729 0.749707 -0.434275
H22   H     H_    0.901438 0.062078 0.778202 0.139071
H23   H     H_    0.733844 0.154886 0.768031 0.173148
H24   H     H_    0.813986 0.094087 0.706851 0.150462
H25   H     H_    0.876333 0.268735 0.786627 0.189415
H26   H     H_    0.789486 0.295516 0.717004 0.208456
S3    S     S_3+6 0.351947 0.404157 0.789512 0.041758
O33   O     O_2   0.456654 0.424627 0.829829 -0.201656
O34   O     O_2   0.265267 0.369477 0.823648 -0.288088
O35   O     O_3   0.421436 0.299727 0.746176 -0.531078
H27   H     H_    0.478107 0.236218 0.772327 0.358656
S4    S     S_3+6 0.985233 0.198689 0.215151 0.051269
O36   O     O_2   0.964898 0.302852 0.179884 -0.251680
O37   O     O_2   0.993232 0.103296 0.175717 -0.221449
O38   O     O_3   0.858314 0.222961 0.252413 -0.526613
H28   H     H_    0.878626 0.152729 0.275525 0.354145

loop_
_geom_bond_atom_site_label_1
_geom_bond_atom_site_label_2
_ccdc_geom_bond_type
C30   C32   A    
C38   H4    S    
C1    C21   S    
C37   H3    S    
Cr3   O3    S    
C6    C58   A    
C35   C36   A    
C9    C51   S    
C24   C27   S    
Cr5   O16   S    
C4    C8    A    
Cr1   O24   S    
S4    O38   S    
S1    O28   D    
C62   H22   S    
C32   H6    S    
Cr2   O20   S    
Cr1   O5    S    
C43   H12   S    
C55   O17   A    
C36   C37   A    
C45   O2    A    
C55   O16   A    
S2    O31   D    
C5    C6    A    
C2    C60   A    
C62   H23   S    
C29   C54   S    
C23   O23   A    
O29   H20   S    
C17   C20   S    
C52   O10   A    
C40   C48   A    
C18   C19   S    
C61   H25   S    
Cr6   O17   S    
C16   C53   S    
C12   C59   S    
Cr4   O14   S    
Cr2   O26   S    
C31   C32   A    
O35   H27   S    
C23   O1    A    
C29   C38   A    
C53   O6    A    
C52   O9    A    
C7    C58   A    
C5    C60   A    
S3    O35   S    
C15   C23   S    
Cr4   O13   S    
C53   O11   A    
C34   O26   A    
C41   C43   A    
C54   O15   A    
C34   C41   S    
Cr1   O25   S    
S1    O27   D    
C44   C46   A    
C57   O18   A    
C28   C45   S    
C18   H19   S    
C8    H15   S    
C48   H8    S    
C7    C8    A    
C45   O3    A    
C24   C25   D    
C31   C61   S    
C10   C14   S    
C11   S4    S    
C1    O12   A    
C2    C59   A    
C62   H24   S    
S4    O37   D    
C25   C26   S    
C30   C56   S    
C35   C39   A    
C9    C14   T    
Cr6   O19   S    
C51   O7    A    
C47   C48   A    
C16   C20   T    
Cr3   O4    S    
C17   C18   D    
C49   H10   S    
C22   C55   S    
C52   C58   S    
C51   O8    A    
C33   H7    S    
Cr5   O9    S    
C17   S1    S    
C22   C27   T    
C13   C15   T    
C3    H17   S    
C34   O25   A    
C41   C44   A    
C54   O14   A    
S2    O32   S    
C42   C43   A    
Cr4   O7    S    
Cr3   O22   S    
C3    C4    A    
C50   H11   S    
C56   O24   A    
O32   H21   S    
Cr6   O11   S    
S3    O33   D    
Cr2   O2    S    
Cr4   O19   S    
C56   O4    A    
C46   C47   A    
C60   H14   S    
C40   C57   S    
C30   C33   A    
C19   C21   T    
Cr6   O18   S    
C44   H13   S    
Cr1   O12   S    
Cr5   O15   S    
C4    C5    A    
C25   S2    S    
C12   O22   A    
C7    H9    S    
S4    O36   D    
Cr2   O21   S    
Cr1   O1    S    
O38   H28   S    
C46   C50   A    
C26   C28   T    
Cr5   O19   S    
C61   C62   S    
C6    H1    S    
S2    O30   D    
C12   O21   A    
C11   C13   S    
C38   C39   A    
C57   O13   A    
Cr2   O5    S    
Cr3   O5    S    
C10   H18   S    
Cr5   O8    S    
C33   C35   A    
C42   S3    S    
C42   C47   A    
C61   H26   S    
C2    H16   S    
C10   C11   D    
C24   H2    S    
C49   C50   A    
C29   C37   A    
C39   H5    S    
C31   C36   A    
Cr4   O6    S    
Cr3   O23   S    
S1    O29   S    
C40   C49   A    
C1    O20   A    
Cr6   O10   S    
S3    O34   D    
C3    C59   A    
