data_mof_unit_44642.cif
_audit_creation_date              2012-12-11T16:24:15-0500
_audit_creation_method            fapswitch 2.2
_symmetry_space_group_name_H-M    P1
_symmetry_Int_Tables_number       1
_space_group_crystal_system       triclinic
_cell_length_a                    14.754753
_cell_length_b                    14.772778
_cell_length_c                    33.259295
_cell_angle_alpha                 96.029489
_cell_angle_beta                  96.194423
_cell_angle_gamma                 61.208549
_cell_volume                      6304.47023693

loop_
_atom_site_label
_atom_site_type_symbol
_atom_type_description
_atom_site_fract_x
_atom_site_fract_y
_atom_site_fract_z
_atom_type_partial_charge
C1    C     C_R   0.391005 0.699528 0.446097 0.546236
C2    C     C_R   0.330581 0.348017 0.308657 0.041298
C3    C     C_R   0.412044 0.265217 0.328384 -0.106450
C4    C     C_R   0.431722 0.274227 0.370160 -0.123311
C5    C     C_R   0.394727 0.253597 0.165689 -0.100464
C6    C     C_R   0.385443 0.235085 0.123865 -0.117138
C7    C     C_R   0.209785 0.377605 0.121786 -0.123979
C8    C     C_R   0.219270 0.395799 0.163645 -0.106927
C9    C     C_R   0.310550 0.331739 0.185689 0.039414
C10   C     C_1   0.315271 0.340252 0.229001 -0.012199
C11   C     C_1   0.320600 0.344418 0.265353 -0.012516
C12   C     C_R   0.405859 0.386396 0.433997 0.544637
C13   C     C_R   0.291460 0.294465 0.101725 0.017714
C14   C     C_R   0.752809 0.375600 0.409210 0.021888
C15   C     C_R   0.773420 0.443680 0.390230 -0.127968
C16   C     C_R   0.796772 0.424397 0.349807 -0.117310
C17   C     C_R   0.801468 0.336032 0.327831 0.037805
C18   C     C_R   0.791060 0.262760 0.347765 -0.117568
C19   C     C_R   0.766338 0.282663 0.388209 -0.130467
C20   C     C_R   0.816317 0.310465 0.202058 0.363573
C21   C     C_R   0.808083 0.325876 0.283732 0.333803
C22   C     C_R   0.837418 0.385616 0.143000 -0.149484
C23   C     C_R   0.700315 0.410289 0.447371 0.546034
C24   C     C_R   0.872671 0.375640 0.104906 -0.142148
C25   C     C_R   0.891473 0.203044 0.094815 -0.096679
C26   C     C_R   0.855396 0.212561 0.133039 0.166211
C27   C     C_R   0.833333 0.302767 0.158536 0.044061
C28   C     C_R   0.904803 0.282491 0.081300 -0.011138
C29   C     C_R   0.371121 0.754173 0.408995 0.022076
C30   C     C_R   0.277113 0.783761 0.385715 -0.129794
C31   C     C_R   0.267183 0.811312 0.346110 -0.118080
C32   C     C_R   0.350959 0.810047 0.329157 0.035374
C33   C     C_R   0.441455 0.790023 0.353678 -0.119011
C34   C     C_R   0.393475 0.701304 0.561252 0.543070
C35   C     C_R   0.451494 0.762234 0.393325 -0.130829
C36   C     C_R   0.344440 0.826733 0.204070 0.349523
C37   C     C_R   0.347014 0.820137 0.285370 0.347575
C38   C     C_R   0.258957 0.830804 0.135009 -0.107345
C39   C     C_R   0.238954 0.861916 0.095524 -0.120625
C40   C     C_R   0.382203 0.900567 0.104669 -0.130004
C41   C     C_R   0.402282 0.869320 0.144216 -0.118082
C42   C     C_R   0.337554 0.839039 0.160324 0.033688
C43   C     C_R   0.297134 0.901920 0.080716 0.019025
C44   C     C_R   0.371480 0.369167 0.585112 0.022352
C45   C     C_R   0.407331 0.388855 0.549007 0.545694
C46   C     C_R   0.284972 0.448626 0.603961 -0.131145
C47   C     C_R   0.265860 0.439405 0.643071 -0.121783
C48   C     C_R   0.333048 0.350668 0.663874 0.034925
C49   C     C_R   0.413729 0.267554 0.643564 -0.120955
C50   C     C_R   0.432692 0.276649 0.604497 -0.129825
C51   C     C_R   0.319005 0.348485 0.788664 0.346703
C52   C     C_R   0.325478 0.348110 0.707468 0.346815
C53   C     C_R   0.218871 0.403938 0.850647 -0.121840
C54   C     C_R   0.207582 0.384172 0.889374 -0.131121
C55   C     C_R   0.386550 0.249253 0.893126 -0.129180
C56   C     C_R   0.701299 0.413633 0.562686 0.543177
C57   C     C_R   0.397789 0.268957 0.854482 -0.120738
C58   C     C_R   0.312650 0.342980 0.832137 0.034349
C59   C     C_R   0.289946 0.303175 0.910072 0.022428
C60   C     C_R   0.754044 0.380607 0.602938 0.020040
C61   C     C_R   0.778082 0.447742 0.629549 -0.126240
C62   C     C_R   0.806241 0.427297 0.670356 -0.110485
C63   C     C_R   0.811172 0.339490 0.684931 0.040962
C64   C     C_R   0.793681 0.269011 0.658257 -0.111033
C65   C     C_R   0.765555 0.289199 0.617438 -0.125818
C66   C     C_R   0.885728 0.212951 0.822850 -0.110618
C67   C     C_R   0.370204 0.366599 0.392513 0.019830
C68   C     C_R   0.913447 0.201590 0.864242 -0.126957
C69   C     C_R   0.871541 0.382341 0.873474 -0.125509
C70   C     C_R   0.843692 0.393493 0.832140 -0.110826
C71   C     C_R   0.853700 0.308138 0.806636 0.041515
C72   C     C_1   0.838415 0.316863 0.763615 -0.022121
C73   C     C_1   0.826873 0.325840 0.727638 -0.022408
C74   C     C_R   0.910096 0.285361 0.889724 0.019906
C75   C     C_R   0.376329 0.754805 0.601982 0.020078
C76   C     C_R   0.280998 0.790039 0.619100 -0.125646
C77   C     C_R   0.271513 0.819227 0.660344 -0.110821
C78   C     C_R   0.283901 0.446528 0.372750 -0.125215
C79   C     C_R   0.356890 0.813869 0.684879 0.041535
C80   C     C_R   0.450157 0.785118 0.667732 -0.111357
C81   C     C_R   0.459832 0.756086 0.626430 -0.127569
C82   C     C_R   0.397070 0.884035 0.832769 -0.111000
C83   C     C_R   0.377199 0.911582 0.873590 -0.125634
C84   C     C_R   0.228196 0.881769 0.862807 -0.126278
C85   C     C_R   0.248356 0.854141 0.822037 -0.110952
C86   C     C_R   0.331024 0.858020 0.806780 0.040181
C87   C     C_1   0.343323 0.842190 0.764020 -0.022940
C88   C     C_1   0.350557 0.830146 0.727966 -0.022612
C89   C     C_R   0.264534 0.437321 0.330945 -0.108418
C90   C     C_R   0.290490 0.913994 0.888732 0.019721
C91   C     C_R   0.963400 0.264228 0.045521 0.548786
C92   C     C_R   0.272760 0.259463 0.060012 0.544967
C93   C     C_R   0.259274 0.959538 0.043736 0.546390
C94   C     C_R   0.962604 0.267636 0.930733 0.542733
C95   C     C_R   0.270905 0.264081 0.945403 0.545825
C96   C     C_R   0.256128 0.965055 0.928954 0.542417
Cr1   Cr    Cr6+3 0.576280 0.580550 0.506370 1.012800
Cr2   Cr    Cr6+3 0.346780 0.572400 0.496520 1.013209
Cr3   Cr    Cr6+3 0.576960 0.347070 0.497150 1.013412
Cr4   Cr    Cr6+3 0.087320 0.083240 0.984860 1.021115
Cr5   Cr    Cr6+3 0.087720 0.316210 0.996740 1.017401
Cr6   Cr    Cr6+3 0.317350 0.090340 0.995890 1.020182
H1    H     H_    0.449721 0.170647 0.109301 0.142811
H2    H     H_    0.751450 0.228495 0.402154 0.127781
H3    H     H_    0.880474 0.439000 0.095047 0.142668
H4    H     H_    0.806715 0.481002 0.335255 0.134157
H5    H     H_    0.795198 0.193592 0.331446 0.136894
H6    H     H_    0.819466 0.456662 0.161234 0.146810
H7    H     H_    0.913145 0.131547 0.076419 0.157738
H8    H     H_    0.213375 0.779422 0.397137 0.131192
H9    H     H_    0.524689 0.740542 0.410679 0.128813
H10   H     H_    0.173752 0.860727 0.077549 0.142105
H11   H     H_    0.465834 0.203946 0.182639 0.133137
H12   H     H_    0.195603 0.828533 0.328186 0.140473
H13   H     H_    0.506866 0.789720 0.341583 0.136440
H14   H     H_    0.209090 0.805679 0.146318 0.149123
H15   H     H_    0.428947 0.930260 0.093929 0.134834
H16   H     H_    0.464345 0.875152 0.162855 0.140344
H17   H     H_    0.235947 0.520644 0.589632 0.129350
H18   H     H_    0.499221 0.213597 0.590550 0.129946
H19   H     H_    0.132310 0.427494 0.901815 0.131107
H20   H     H_    0.202260 0.504241 0.657791 0.131996
H21   H     H_    0.465566 0.197260 0.658537 0.132687
H22   H     H_    0.463293 0.195650 0.311241 0.121354
H23   H     H_    0.152240 0.462427 0.834336 0.132579
H24   H     H_    0.451824 0.187339 0.908624 0.131755
H25   H     H_    0.471758 0.222211 0.841336 0.133837
H26   H     H_    0.943371 0.125773 0.875745 0.128546
H27   H     H_    0.893508 0.146496 0.803276 0.111320
H28   H     H_    0.797620 0.200677 0.669303 0.111341
H29   H     H_    0.747445 0.236005 0.597783 0.126437
H30   H     H_    0.769605 0.518895 0.619416 0.126787
H31   H     H_    0.818599 0.467585 0.819814 0.111291
H32   H     H_    0.868061 0.448282 0.892262 0.128479
H33   H     H_    0.498642 0.211334 0.384482 0.130676
H34   H     H_    0.819944 0.482157 0.690849 0.112673
H35   H     H_    0.426477 0.936287 0.892697 0.129565
H36   H     H_    0.461408 0.886992 0.821179 0.113218
H37   H     H_    0.516618 0.780883 0.686555 0.110650
H38   H     H_    0.534427 0.728851 0.614244 0.127024
H39   H     H_    0.215327 0.789914 0.601121 0.127246
H40   H     H_    0.197001 0.833772 0.802081 0.113642
H41   H     H_    0.160789 0.882980 0.873466 0.128380
H42   H     H_    0.198905 0.841689 0.673410 0.110640
H43   H     H_    0.235142 0.518680 0.389087 0.129386
H44   H     H_    0.153885 0.456671 0.178995 0.120494
H45   H     H_    0.136381 0.424630 0.105615 0.132134
H46   H     H_    0.201112 0.501637 0.315808 0.118269
H47   H     H_    0.764508 0.515532 0.405662 0.131323
N1    N     N_R   0.777327 0.404130 0.222831 -0.237325
N2    N     N_R   0.243678 0.423375 0.727091 -0.236123
N3    N     N_R   0.404125 0.273628 0.729268 -0.234814
N4    N     N_R   0.400791 0.273620 0.769012 -0.234917
N5    N     N_R   0.773076 0.411723 0.262793 -0.225604
N6    N     N_R   0.845931 0.232078 0.263114 -0.214012
N7    N     N_R   0.850968 0.224580 0.223084 -0.146845
N8    N     N_R   0.268128 0.819944 0.220719 -0.215916
N9    N     N_R   0.269583 0.816342 0.260530 -0.221395
N10   N     N_R   0.423719 0.826500 0.268761 -0.227807
N11   N     N_R   0.422079 0.830449 0.228884 -0.226487
N12   N     N_R   0.240161 0.423148 0.766902 -0.236193
O1    O     O_R   0.679450 0.499830 0.463150 -0.519758
O2    O     O_R   0.356040 0.477400 0.534170 -0.502095
O3    O     O_R   0.495910 0.323070 0.537100 -0.519729
O4    O     O_R   0.663920 0.359620 0.542290 -0.501833
O5    O     O_3   0.500010 0.500010 0.500010 -0.236519
O6    O     O_R   0.170070 0.978950 0.027680 -0.514739
O7    O     O_R   0.001760 0.175230 0.026640 -0.499734
O8    O     O_R   0.984760 0.333570 0.037150 -0.517097
O9    O     O_R   0.183410 0.309240 0.041890 -0.501588
O10   O     O_R   0.340240 0.172500 0.045430 -0.516266
O11   O     O_R   0.309670 0.000990 0.032050 -0.501692
O12   O     O_R   0.480650 0.664000 0.464630 -0.501780
O13   O     O_R   0.168330 0.982130 0.939200 -0.520147
O14   O     O_R   0.000140 0.178170 0.944610 -0.502004
O15   O     O_R   0.983010 0.336750 0.948660 -0.519001
O16   O     O_R   0.181800 0.312190 0.959860 -0.502106
O17   O     O_R   0.338500 0.175680 0.956950 -0.518072
O18   O     O_R   0.308050 0.003930 0.950020 -0.501601
O19   O     O_3   0.164130 0.163270 0.992500 -0.239256
O20   O     O_R   0.323930 0.675950 0.455370 -0.519780
O21   O     O_R   0.354700 0.475360 0.451930 -0.501951
O22   O     O_R   0.494470 0.320860 0.448390 -0.518427
O23   O     O_R   0.662580 0.357570 0.460050 -0.501014
O24   O     O_R   0.680900 0.502040 0.551870 -0.519933
O25   O     O_R   0.481990 0.666040 0.546870 -0.502483
O26   O     O_R   0.325370 0.678160 0.544080 -0.519187
Br1   Br    Br    0.838504 0.099525 0.147826 -0.490111

loop_
_geom_bond_atom_site_label_1
_geom_bond_atom_site_label_2
_ccdc_geom_bond_type
C37   N9    A    
C81   H38   S    
C66   C68   A    
C87   C88   T    
C93   O11   A    
C40   C41   A    
C69   H32   S    
C55   C59   A    
C89   H46   S    
Cr6   O19   S    
C41   C42   A    
C74   C94   S    
C36   C42   S    
C83   H35   S    
C6    H1    S    
Cr2   O2    S    
C7    C8    A    
C85   C86   A    
C44   C45   S    
C25   C28   A    
Cr1   O24   S    
C16   H4    S    
C1    O12   A    
C26   C27   A    
N8    N9    A    
C96   O13   A    
C30   H8    S    
Cr4   O6    S    
C50   H18   S    
C45   O3    A    
C38   C42   A    
C5    C6    A    
C80   C81   A    
C12   O22   A    
C92   O10   A    
C68   C74   A    
Cr1   O5    S    
C49   H21   S    
C18   C19   A    
C62   H34   S    
C34   O25   A    
C18   H5    S    
C78   H43   S    
C43   C93   S    
C26   Br1   S    
C95   O16   A    
C40   C43   A    
C12   O21   A    
C47   C48   A    
C53   C54   A    
C92   O9    A    
C16   C17   A    
N2    N12   A    
Cr2   O26   S    
C56   O4    A    
C70   H31   S    
C21   N5    A    
Cr1   O1    S    
Cr5   O8    S    
C70   C71   A    
C41   H16   S    
C29   C30   A    
C9    C10   S    
C68   H26   S    
C31   H12   S    
Cr3   O22   S    
C61   C62   A    
C61   H30   S    
C25   H7    S    
C34   C75   S    
Cr3   O5    S    
C76   H39   S    
C40   H15   S    
Cr6   O18   S    
C34   O26   A    
C67   C78   A    
C84   C90   A    
C2    C11   S    
C79   C88   S    
C65   H29   S    
C44   C46   A    
C7    H45   S    
C54   C59   A    
C77   C79   A    
C78   C89   A    
Cr6   O11   S    
Cr1   O25   S    
C12   C67   S    
C33   H13   S    
Cr1   O12   S    
C91   O8    A    
C91   O7    A    
Cr5   O9    S    
C38   C39   A    
C84   C85   A    
C1    O20   A    
C86   C87   S    
C8    C9    A    
C47   H20   S    
C39   C43   A    
C63   C73   S    
C84   H41   S    
C25   C26   A    
C82   C86   A    
C17   C21   S    
C56   C60   S    
C60   C61   A    
C14   C23   S    
Cr2   O21   S    
C2    C89   A    
C75   C76   A    
C66   C71   A    
C5    C9    A    
C62   C63   A    
C94   O14   A    
C38   H14   S    
C19   H2    S    
C95   O17   A    
N10   N11   A    
C55   H24   S    
C7    C13   A    
C52   N3    A    
Cr4   O14   S    
C1    C29   S    
C17   C18   A    
C21   N6    A    
C69   C74   A    
C51   C58   S    
C32   C37   S    
C76   C77   A    
Cr3   O23   S    
Cr2   O5    S    
C53   H23   S    
C36   N8    A    
C59   C95   S    
C4    H33   S    
C48   C49   A    
C54   H19   S    
C64   H28   S    
C60   C65   A    
C49   C50   A    
C22   C27   A    
C55   C57   A    
C13   C92   S    
Cr4   O13   S    
Cr6   O17   S    
C22   C24   A    
C79   C80   A    
C3    C4    A    
Cr4   O19   S    
C15   H47   S    
C35   H9    S    
C3    H22   S    
N3    N4    A    
C44   C50   A    
Cr6   O10   S    
C83   C90   A    
C46   C47   A    
C39   H10   S    
C20   N7    A    
C5    H11   S    
C14   C19   A    
C31   C32   A    
C8    H44   S    
C24   C28   A    
C72   C73   T    
C85   H40   S    
C57   H25   S    
C4    C67   A    
C53   C58   A    
C90   C96   S    
C20   C27   S    
C75   C81   A    
C80   H37   S    
C29   C35   A    
Cr4   O7    S    
C64   C65   A    
C66   H27   S    
Cr2   O20   S    
C2    C3    A    
C45   O2    A    
C77   H42   S    
C23   O23   A    
C82   H36   S    
Cr5   O19   S    
C32   C33   A    
C6    C13   A    
C37   N10   A    
C57   C58   A    
C30   C31   A    
C52   N2    A    
C22   H6    S    
Cr3   O3    S    
C33   C35   A    
C20   N1    A    
C46   H17   S    
C51   N12   A    
C28   C91   S    
C96   O18   A    
C69   C70   A    
Cr5   O16   S    
C10   C11   T    
C36   N11   A    
C63   C64   A    
C48   C52   S    
C71   C72   S    
C56   O24   A    
C93   O6    A    
C82   C83   A    
N1    N5    A    
N6    N7    A    
C14   C15   A    
Cr5   O15   S    
C24   H3    S    
C51   N4    A    
C23   O1    A    
C15   C16   A    
C94   O15   A    
Cr3   O4    S    
