data_mof_unit_12694.cif
_audit_creation_date              2013-03-05T16:12:10-0500
_audit_creation_method            fapswitch 2.2
_symmetry_space_group_name_H-M    P1
_symmetry_Int_Tables_number       1
_space_group_crystal_system       triclinic
_cell_length_a                    10.733639
_cell_length_b                    9.401883
_cell_length_c                    27.790731
_cell_angle_alpha                 90.111254
_cell_angle_beta                  90.120465
_cell_angle_gamma                 89.945491
_cell_volume                      2804.52828308

loop_
_atom_site_label
_atom_site_type_symbol
_atom_site_description
_atom_site_fract_x
_atom_site_fract_y
_atom_site_fract_z
_atom_type_partial_charge
O1    O     O_R   0.317570 0.620260 0.500030 -0.597203
O2    O     O_R   0.317570 0.379740 0.500030 -0.595616
C1    C     C_R   0.259818 0.499848 0.498861 0.796283
O3    O     O_R   0.499900 0.620250 0.430280 -0.595533
O4    O     O_R   0.499900 0.379750 0.430280 -0.587420
C2    C     C_R   0.501011 0.499851 0.407448 0.809769
Cu1   Cu    Cu3+1 0.499860 0.642410 0.500020 0.896994
Cu2   Cu    Cu3+1 0.499860 0.357590 0.500020 0.900942
O5    O     O_R   0.682190 0.620260 0.500010 -0.581652
O6    O     O_R   0.682190 0.379740 0.500010 -0.578744
O7    O     O_R   0.499860 0.620280 0.569750 -0.592262
O8    O     O_R   0.499860 0.379720 0.569750 -0.593836
C3    C     C_R   0.739929 0.499837 0.498837 0.794945
C4    C     C_R   0.500084 0.500191 0.592588 0.797704
C5    C     C_R   0.413814 0.451534 0.177561 0.577365
O9    O     O_2   0.316028 0.398637 0.202184 -0.540030
N1    N     N_R   0.515163 0.502494 0.201850 -0.461831
C6    C     C_R   0.615045 0.559099 0.178135 0.522463
C7    C     C_R   0.521379 0.369710 0.278725 0.314426
C8    C     C_R   0.515035 0.370625 0.329090 -0.301039
C9    C     C_R   0.501614 0.628114 0.329007 -0.233025
C10   C     C_R   0.506297 0.627945 0.278962 -0.170136
C11   C     C_R   0.515574 0.499633 0.253533 0.337380
C12   C     C_R   0.511263 0.514229 0.101761 -0.097670
C13   C     C_R   0.410510 0.454856 0.127214 -0.011452
C14   C     C_R   0.309639 0.397367 0.101946 -0.169915
C15   C     C_R   0.615034 0.568426 0.127342 -0.059170
C16   C     C_R   0.505360 0.499492 0.354512 -0.072822
H1    H     H_    0.494338 0.729015 0.347669 0.152983
H2    H     H_    0.501543 0.727903 0.259734 0.147297
H3    H     H_    0.233808 0.345363 0.120602 0.185861
C17   C     C_R   0.500754 0.501141 0.645560 -0.041944
C18   C     C_R   0.391977 0.491116 0.974901 -0.002157
C19   C     C_R   0.615352 0.553304 0.974124 0.077210
C20   C     C_R   0.503411 0.519984 0.949218 0.021613
C21   C     C_R   0.277771 0.482971 0.948542 0.234470
C22   C     C_R   0.279978 0.477614 0.898242 -0.211527
C23   C     C_R   0.391567 0.491203 0.872894 -0.058185
C24   C     C_R   0.503049 0.516097 0.898199 -0.051981
C25   C     C_R   0.614317 0.537233 0.872367 -0.005823
C26   C     C_R   0.612093 0.531352 0.821906 0.529855
N2    N     N_R   0.502712 0.506234 0.798063 -0.469456
C27   C     C_R   0.393460 0.486456 0.822372 0.549780
C28   C     C_R   0.515335 0.631278 0.720910 -0.103474
C29   C     C_R   0.514436 0.629994 0.670774 -0.231346
C30   C     C_R   0.487770 0.373704 0.671457 -0.227358
C31   C     C_R   0.488114 0.375413 0.721664 -0.103751
C32   C     C_R   0.502076 0.504158 0.746494 0.361201
O10   O     O_2   0.286890 0.463616 0.797689 -0.537897
C33   C     C_R   0.399647 0.472815 0.025657 0.051527
C34   C     C_R   0.508032 0.518313 0.050684 0.058825
C35   C     C_R   0.613701 0.565527 0.025002 0.009717
C36   C     C_R   0.305231 0.404112 0.052092 -0.172717
H4    H     H_    0.525951 0.731122 0.739968 0.135336
H5    H     H_    0.192537 0.468164 0.878932 0.187521
H6    H     H_    0.229199 0.349033 0.034817 0.181594
O11   O     O_2   0.714564 0.603113 0.203849 -0.510806
C37   C     C_R   0.714985 0.628738 0.101304 0.278546
H7    H     H_    0.519139 0.270479 0.348264 0.148173
C38   C     C_R   0.725877 0.571397 0.947234 -0.212291
C39   C     C_R   0.725173 0.563205 0.897322 -0.152585
O12   O     O_2   0.718333 0.550196 0.796824 -0.538617
C40   C     C_R   0.714278 0.624016 0.051036 -0.280726
H8    H     H_    0.815556 0.587354 0.963962 0.138900
H9    H     H_    0.476858 0.272935 0.652992 0.142218
H10   H     H_    0.812346 0.577438 0.878350 0.185984
H11   H     H_    0.477936 0.276786 0.741317 0.135710
C41   C     C_3   0.073538 0.537292 0.549467 -0.381680
C42   C     C_3   0.072860 0.349935 0.483521 -0.436507
H12   H     H_    0.117435 0.637316 0.561922 0.182902
H13   H     H_    0.104372 0.324115 0.446406 0.182153
H14   H     H_    0.105674 0.454460 0.575271 0.131785
H15   H     H_    0.111684 0.266163 0.507564 0.145217
C43   C     C_3   0.928069 0.541517 0.549674 0.092063
C44   C     C_3   0.930250 0.346120 0.487224 0.098586
H16   H     H_    0.897640 0.456867 0.575140 0.074352
H17   H     H_    0.908977 0.280250 0.519521 0.089271
H18   H     H_    0.107591 0.717148 0.470047 0.162949
H19   H     H_    0.105672 0.581411 0.424797 0.159432
H20   H     H_    0.896229 0.719311 0.471842 0.183080
H21   H     H_    0.892541 0.595173 0.425179 0.156083
C45   C     C_3   0.072145 0.608838 0.461541 -0.393225
C46   C     C_3   0.122151 0.499111 0.498442 0.077341
C47   C     C_3   0.877802 0.499665 0.498476 0.087571
C48   C     C_3   0.928755 0.610981 0.461985 -0.361829
C49   C     C_3   0.618796 0.083470 0.482153 -0.183445
C50   C     C_3   0.618654 0.916028 0.481961 -0.206011
H22   H     H_    0.698194 0.120006 0.504715 0.149758
H23   H     H_    0.698530 0.878827 0.504117 0.161598
H24   H     H_    0.635719 0.123543 0.445102 0.161794
H25   H     H_    0.634959 0.876105 0.444789 0.139357
H26   H     H_    0.559096 0.122219 0.574268 0.139451
H27   H     H_    0.560347 0.878927 0.574051 0.140752
C51   C     C_3   0.483213 0.084000 0.550191 -0.189867
C52   C     C_3   0.483739 0.916476 0.550214 -0.183748
C53   C     C_3   0.398591 0.083685 0.470633 -0.190277
C54   C     C_3   0.398255 0.916148 0.470802 -0.186441
N3    N     N_3   0.500250 0.143650 0.501060 -0.114816
N4    N     N_3   0.500250 0.856350 0.501060 -0.110944
H28   H     H_    0.407888 0.122443 0.433038 0.139661
H29   H     H_    0.406684 0.876277 0.433260 0.139274
H30   H     H_    0.394094 0.123283 0.565729 0.139304
H31   H     H_    0.395163 0.876860 0.566007 0.139365
N5    N     N_2   0.531011 0.238198 0.253546 -0.414849
H32   H     H_    0.490235 0.153883 0.271240 0.247675
C55   C     C_3   0.655407 0.204199 0.237229 -0.677519
H33   H     H_    0.653488 0.102891 0.216626 0.224459
H34   H     H_    0.719121 0.191574 0.268526 0.219605
H35   H     H_    0.691496 0.288712 0.213209 0.253813
N6    N     N_2   0.816898 0.696074 0.124987 -0.369508
H36   H     H_    0.901608 0.678875 0.108452 0.243092
C56   C     C_3   0.796271 0.845171 0.135282 -0.610258
H37   H     H_    0.876024 0.887577 0.156371 0.228382
H38   H     H_    0.710045 0.859781 0.156811 0.237135
H39   H     H_    0.788167 0.906353 0.101227 0.199335
H40   H     H_    0.791863 0.673590 0.033045 0.136396
N7    N     N_2   0.872579 0.674660 0.567227 -0.403495
H41   H     H_    0.805928 0.662980 0.593634 0.252101
C57   C     C_3   0.939636 0.808271 0.569121 -0.702955
H42   H     H_    0.871850 0.897049 0.572322 0.207638
H43   H     H_    0.994767 0.825846 0.536028 0.220910
H44   H     H_    0.001472 0.810608 0.601192 0.229570
N8    N     N_2   0.873452 0.269026 0.446934 -0.425591
H45   H     H_    0.898623 0.163070 0.445905 0.232549
C58   C     C_3   0.863355 0.332139 0.399644 -0.652100
H46   H     H_    0.839014 0.248582 0.372918 0.208141
H47   H     H_    0.952755 0.381015 0.388492 0.225590
H48   H     H_    0.786098 0.410456 0.399057 0.223311
H49   H     H_    0.306691 0.121742 0.483692 0.138864
H50   H     H_    0.306455 0.879035 0.484219 0.135965
H51   H     H_    0.524861 0.729788 0.651835 0.142279
N9    N     N_2   0.159438 0.493865 0.971466 -0.450151
H52   H     H_    0.087105 0.447032 0.952752 0.249399
C59   C     C_3   0.128195 0.635307 0.988167 -0.683681
H53   H     H_    0.038407 0.632035 0.007911 0.213541
H54   H     H_    0.118532 0.708795 0.957100 0.229040
H55   H     H_    0.200908 0.676229 0.013078 0.246414

loop_
_geom_bond_atom_site_label_1
_geom_bond_atom_site_label_2
_geom_bond_distance
_ccdc_geom_bond_type
C50   H25   1.112560 S    
C26   N2    1.367438 A    
C20   C24   1.418244 A    
C7    C8    1.401496 A    
C12   C15   1.414927 A    
C59   H55   1.110721 S    
N5    C55   1.446303 S    
N8    H45   1.032282 S    
Cu1   O7    1.949387 S    
C3    C47   1.479935 S    
H20   C48   1.110372 S    
C43   H16   1.115611 S    
C44   N8    1.464783 S    
C21   C22   1.398913 A    
C54   H50   1.111032 S    
C21   N9    1.425666 S    
C23   C24   1.406260 A    
O7    C4    1.296302 A    
C49   H22   1.111265 S    
C44   C47   1.579922 S    
N8    C58   1.446845 S    
C55   H33   1.110568 S    
C51   N3    1.488790 S    
C41   C43   1.561907 S    
C5    O9    1.350028 S    
C18   C21   1.428766 A    
Cu1   O5    1.967917 S    
C19   C20   1.420306 A    
C17   C29   1.405977 A    
C42   H13   1.112464 S    
Cu2   N3    2.011703 S    
N6    H36   1.032091 S    
N5    H32   1.031921 S    
O5    C3    1.290593 A    
C39   H10   1.083507 S    
C2    C16   1.471955 S    
N9    H52   1.032096 S    
C53   N3    1.489611 S    
C58   H48   1.108570 S    
O6    C3    1.289057 A    
C42   H15   1.113867 S    
C41   H14   1.113696 S    
C12   C34   1.420419 A    
C14   H3    1.083460 S    
H27   C52   1.112515 S    
C37   N6    1.423823 S    
C9    C10   1.391804 A    
C19   C38   1.413995 A    
C26   O12   1.349756 S    
O3    Cu1   1.948890 S    
C31   H11   1.082835 S    
C56   H37   1.110348 S    
C54   N4    1.489469 S    
C52   H31   1.112803 S    
C33   C34   1.420046 A    
C50   N4    1.488993 S    
C57   H43   1.107422 S    
C33   C36   1.410737 A    
C34   C35   1.413676 A    
Cu1   Cu2   2.677843 S    
C12   C13   1.409745 A    
C30   H9    1.082919 S    
O3    C2    1.296669 A    
C49   H24   1.112477 S    
C43   C47   1.570149 S    
C24   C25   1.409213 A    
C49   C50   1.574267 S    
C27   O10   1.349720 S    
C59   H54   1.111461 S    
C8    C16   1.405209 A    
C18   C33   1.423533 A    
C9    H1    1.083116 S    
C35   C40   1.409822 A    
C25   C39   1.397441 A    
C38   C39   1.389094 A    
O1    C1    1.291534 A    
N2    C32   1.433229 S    
C7    C11   1.410366 A    
C22   C23   1.396911 A    
C42   C46   1.554740 S    
H19   C45   1.113143 S    
C7    N5    1.423325 S    
H18   C45   1.112225 S    
C6    O11   1.348855 S    
C31   C32   1.400181 A    
Cu2   O8    1.948584 S    
C54   H29   1.111761 S    
C53   C54   1.575192 S    
H26   C51   1.112458 S    
N1    C6    1.368358 A    
N1    C11   1.436596 S    
C47   C48   1.558978 S    
C8    H7    1.083598 S    
C44   H17   1.115591 S    
Cu1   N4    2.011599 S    
C56   H38   1.111390 S    
Cu2   O6    1.968311 S    
C25   C26   1.403470 A    
C9    C16   1.403393 A    
O8    C4    1.297289 A    
C29   H51   1.082698 S    
C50   H23   1.111115 S    
C1    C46   1.477711 S    
C58   H46   1.111022 S    
N2    C27   1.367613 A    
C40   H40   1.078947 S    
C14   C36   1.387761 A    
C28   C29   1.393372 A    
C36   H6    1.078352 S    
C37   C40   1.397600 A    
C5    N1    1.365753 A    
C43   N7    1.468725 S    
C30   C31   1.395339 A    
C10   H2    1.083092 S    
O1    Cu1   1.967885 S    
C41   C46   1.553292 S    
C17   C30   1.406059 A    
C57   H44   1.110325 S    
O2    Cu2   1.967491 S    
C6    C15   1.414468 A    
C4    C17   1.472148 S    
C15   C37   1.414988 A    
O4    Cu2   1.949695 S    
C57   H42   1.110325 S    
C59   H53   1.110487 S    
C45   C48   1.539276 S    
C19   C35   1.418526 A    
C38   H8    1.078564 S    
N7    C57   1.449196 S    
O2    C1    1.288113 A    
C13   C14   1.397848 A    
C23   C27   1.404844 A    
N7    H41   1.032020 S    
O4    C2    1.296398 A    
C55   H34   1.111765 S    
C53   H28   1.111907 S    
C18   C20   1.420810 A    
C42   C44   1.534852 S    
C52   N4    1.488228 S    
C51   C52   1.575041 S    
C49   N3    1.488483 S    
N6    C56   1.447081 S    
C5    C13   1.399960 A    
C22   H5    1.083806 S    
C28   H4    1.082911 S    
C51   H30   1.112817 S    
N9    C59   1.446969 S    
C45   C46   1.550747 S    
C58   H47   1.109353 S    
C41   H12   1.106828 S    
C10   C11   1.400511 A    
C56   H39   1.111673 S    
H21   C48   1.103310 S    
C28   C32   1.399373 A    
C53   H49   1.110448 S    
C55   H35   1.109391 S    
