data_mof_unit_38588.cif
_audit_creation_date              2013-03-05T15:50:35-0500
_audit_creation_method            fapswitch 2.2
_symmetry_space_group_name_H-M    P1
_symmetry_Int_Tables_number       1
_space_group_crystal_system       triclinic
_cell_length_a                    12.097232
_cell_length_b                    12.751837
_cell_length_c                    13.633616
_cell_angle_alpha                 91.975797
_cell_angle_beta                  80.216287
_cell_angle_gamma                 95.129053
_cell_volume                      2063.86290543

loop_
_atom_site_label
_atom_site_type_symbol
_atom_site_description
_atom_site_fract_x
_atom_site_fract_y
_atom_site_fract_z
_atom_type_partial_charge
O1    O     O_R   0.421240 0.658850 0.504760 -0.605313
O2    O     O_R   0.578760 0.341150 0.495240 -0.615657
O3    O     O_R   0.609960 0.646370 0.493320 -0.591228
O4    O     O_R   0.390040 0.353630 0.506680 -0.602669
C1    C     C_R   0.523961 0.699904 0.495638 0.925159
C2    C     C_R   0.475980 0.299548 0.502774 0.979540
O5    O     O_R   0.392060 0.507120 0.646890 -0.590879
O6    O     O_R   0.607940 0.492880 0.353110 -0.642658
O7    O     O_R   0.580780 0.494630 0.635450 -0.609657
O8    O     O_R   0.419220 0.505370 0.364550 -0.562782
C3    C     C_R   0.481065 0.502587 0.686337 0.997810
C4    C     C_R   0.518914 0.497365 0.313662 0.906003
Zn1   Zn    Zn3+2 0.373990 0.508340 0.507630 1.044141
Zn2   Zn    Zn3+2 0.626010 0.491660 0.492370 1.018874
C5    C     C_1   0.530084 0.484611 0.210233 0.028117
C6    C     C_1   0.466855 0.502281 0.790286 -0.001008
C7    C     C_2   0.532745 0.457740 0.019895 -0.131685
C8    C     C_2   0.446728 0.494343 0.982956 -0.125259
C9    C     C_1   0.455183 0.499711 0.878304 0.066125
C10   C     C_1   0.534998 0.471541 0.123122 0.087874
C11   C     C_R   0.457028 0.186490 0.505105 -0.156345
C12   C     C_R   0.541973 0.810448 0.477569 -0.175808
C13   C     C_R   0.552599 0.948396 0.357148 -0.026335
C14   C     C_R   0.391162 0.030168 0.600571 -0.055919
C15   C     C_R   0.565168 0.843170 0.377940 -0.107861
C16   C     C_R   0.386076 0.137931 0.586909 -0.138515
C17   C     C_R   0.501447 0.877807 0.555652 -0.072326
C18   C     C_R   0.515673 0.126972 0.427529 -0.077986
C19   C     C_R   0.467659 0.974676 0.532049 0.050192
C20   C     C_R   0.511420 0.017054 0.437020 0.001202
N1    N     N_R   0.206090 0.519450 0.517820 -0.150928
N2    N     N_R   0.793910 0.480550 0.482180 -0.147632
C21   C     C_R   0.960730 0.405732 0.399402 -0.105212
C22   C     C_R   0.045789 0.615748 0.576798 -0.109931
C23   C     C_R   0.844675 0.415502 0.411578 -0.034429
C24   C     C_R   0.159986 0.600825 0.571024 -0.030169
C25   C     C_R   0.855558 0.542165 0.541909 0.071509
C26   C     C_R   0.142606 0.450125 0.465780 0.064827
C27   C     C_R   0.975573 0.542758 0.527538 -0.007954
C28   C     C_R   0.027333 0.465359 0.462714 -0.004634
H1    H     H_    0.213716 0.656142 0.607586 0.175931
H2    H     H_    0.793989 0.372089 0.363061 0.154615
C29   C     C_2   0.346039 0.537582 0.044947 0.995505
O9    O     O_2   0.292345 0.598028 0.007980 -0.577297
O10   O     O_R   0.310060 0.507393 0.143678 -0.736341
H3    H     H_    0.241546 0.543269 0.176973 0.381003
C30   C     C_2   0.630109 0.408966 0.958321 0.972113
O11   O     O_2   0.718750 0.408644 0.990163 -0.580268
O12   O     O_R   0.620199 0.360436 0.866262 -0.768091
H4    H     H_    0.692303 0.330483 0.832694 0.374464
C31   C     C_2   0.591753 0.181989 0.343900 0.910481
O13   O     O_2   0.555130 0.244628 0.294218 -0.606998
O14   O     O_R   0.705326 0.162331 0.323138 -0.790899
H5    H     H_    0.748208 0.203420 0.264217 0.348088
C32   C     C_2   0.507299 0.852792 0.661111 0.962140
O15   O     O_2   0.484573 0.763200 0.691943 -0.627215
O16   O     O_R   0.540174 0.933405 0.725016 -0.751746
H6    H     H_    0.541022 0.907765 0.794432 0.372618
C33   C     C_2   0.309564 0.198807 0.659941 0.538690
H7    H     H_    0.222181 0.169208 0.681647 0.100577
O17   O     O_2   0.344502 0.279276 0.699744 -0.557273
C34   C     C_2   0.598705 0.764903 0.296839 0.431318
H8    H     H_    0.656382 0.707382 0.307106 0.080939
O18   O     O_2   0.558813 0.761104 0.220161 -0.542905
C35   C     C_2   0.568187 0.981191 0.251718 1.012910
O19   O     O_2   0.656910 0.969612 0.195854 -0.549028
O20   O     O_R   0.480793 0.025209 0.216800 -0.759396
H9    H     H_    0.501304 0.044858 0.144153 0.372318
C36   C     C_2   0.312644 0.973735 0.682064 0.901279
O21   O     O_2   0.296549 0.011763 0.766362 -0.566940
O22   O     O_R   0.259295 0.875412 0.662070 -0.810156
H10   H     H_    0.210882 0.843390 0.723589 0.348373
C37   C     C_2   0.189267 0.350873 0.427632 0.974693
O23   O     O_2   0.264363 0.350546 0.355427 -0.519788
O24   O     O_R   0.144309 0.256432 0.473278 -0.821414
H11   H     H_    0.182702 0.193380 0.441069 0.353129
C38   C     C_2   0.795327 0.593204 0.631539 0.972744
O25   O     O_2   0.742687 0.669109 0.624384 -0.548494
O26   O     O_R   0.802141 0.555775 0.725303 -0.803737
H12   H     H_    0.757847 0.596661 0.781458 0.350642
C39   C     C_2   0.007355 0.341956 0.312013 0.436532
H13   H     H_    0.963554 0.267132 0.295366 0.102348
O27   O     O_2   0.089623 0.376000 0.253701 -0.503626
C40   C     C_2   0.009616 0.715704 0.624521 0.458531
H14   H     H_    0.035607 0.741829 0.694317 0.080887
O28   O     O_2   0.957256 0.773011 0.582937 -0.501852

loop_
_geom_bond_atom_site_label_1
_geom_bond_atom_site_label_2
_geom_bond_distance
_ccdc_geom_bond_type
C32   O15   1.222775 D    
C17   C19   1.399600 A    
C37   O23   1.220999 D    
O7    Zn2   1.934401 S    
C39   H13   1.085448 S    
C30   O12   1.398912 S    
O14   H5    1.013770 S    
O5    C3    1.289166 A    
C19   C20   1.419448 A    
O1    C1    1.292026 A    
C14   C16   1.401250 A    
C18   C31   1.490742 S    
C17   C32   1.498076 S    
C7    C10   1.416854 S    
C8    C9    1.416590 S    
O4    Zn1   1.998955 S    
C36   O22   1.397983 S    
C23   H2    1.082523 S    
C14   C19   1.416877 A    
C34   O18   1.221421 D    
C1    C12   1.430401 S    
C35   O20   1.398221 S    
C12   C15   1.409422 A    
C16   C33   1.487509 S    
C38   O25   1.220550 D    
C33   H7    1.085145 S    
C37   O24   1.397476 S    
C24   H1    1.082782 S    
O2    C2    1.296269 A    
C22   C40   1.478265 S    
O20   H9    1.013806 S    
C39   O27   1.220087 D    
C11   C16   1.411112 A    
C14   C36   1.492896 S    
C38   O26   1.397748 S    
C5    C10   1.185715 T    
C33   O17   1.219867 D    
C21   C28   1.433154 A    
C22   C27   1.431173 A    
N2    C23   1.351608 A    
C40   H14   1.084635 S    
O4    C2    1.290788 A    
Zn2   N2    2.029542 S    
C27   C28   1.417589 A    
O10   H3    1.013861 S    
C2    C11   1.440023 S    
C25   C38   1.474811 S    
C31   O13   1.222977 D    
C31   O14   1.398259 S    
O24   H11   1.013955 S    
C13   C20   1.424210 A    
C34   H8    1.084529 S    
C29   O10   1.398634 S    
C3    C6    1.398383 S    
C30   O11   1.223693 D    
C4    C5    1.398739 S    
O6    C4    1.289325 A    
C7    C8    1.354781 D    
N2    C25   1.376280 A    
O7    C3    1.295893 A    
O3    Zn2   1.998955 S    
O8    C4    1.295764 A    
C11   C18   1.408497 A    
O12   H4    1.013905 S    
C12   C17   1.395092 A    
C32   O16   1.398876 S    
C29   O9    1.223770 D    
O1    Zn1   1.952770 S    
O6    Zn2   1.948454 S    
Zn1   N1    2.029542 S    
C7    C30   1.495922 S    
C40   O28   1.220665 D    
O3    C1    1.289833 A    
O8    Zn1   1.934401 S    
N1    C26   1.376662 A    
C13   C35   1.487202 S    
C18   C20   1.407614 A    
O22   H10   1.013473 S    
C25   C27   1.431006 A    
C8    C29   1.496679 S    
C26   C28   1.432786 A    
O16   H6    1.013864 S    
C6    C9    1.185473 T    
C21   C23   1.401704 A    
C22   C24   1.399963 A    
C15   C34   1.492352 S    
C13   C15   1.407599 A    
C36   O21   1.223257 D    
O2    Zn2   1.952770 S    
O26   H12   1.013938 S    
O5    Zn1   1.948452 S    
C35   O19   1.223359 D    
N1    C24   1.352061 A    
C21   C39   1.478461 S    
C26   C37   1.474302 S    
