data_mof_unit_34699.cif
_audit_creation_date              2012-12-10T16:39:32-0500
_audit_creation_method            fapswitch 2.2
_symmetry_space_group_name_H-M    P1
_symmetry_Int_Tables_number       1
_space_group_crystal_system       triclinic
_cell_length_a                    16.88242
_cell_length_b                    16.758869
_cell_length_c                    17.074544
_cell_angle_alpha                 65.568634
_cell_angle_beta                  65.628077
_cell_angle_gamma                 66.001377
_cell_volume                      3840.68341655

loop_
_atom_site_label
_atom_site_type_symbol
_atom_type_description
_atom_site_fract_x
_atom_site_fract_y
_atom_site_fract_z
_atom_type_partial_charge
C1    C     C_R   0.329523 0.939086 0.459916 0.063267
C2    C     C_R   0.314228 0.434298 0.000241 0.051234
C3    C     C_R   0.551286 0.427900 0.957538 0.029701
C4    C     C_R   0.011445 0.454540 0.587412 0.037849
C5    C     C_R   0.020464 0.534499 0.405414 0.037134
C6    C     C_R   0.061939 0.670081 0.541026 0.059755
C7    C     C_R   0.954206 0.326517 0.455713 0.063546
C8    C     C_R   0.462000 0.965763 0.460900 -0.051346
C9    C     C_R   0.550520 0.996912 0.550932 -0.051337
C10   C     C_R   0.995281 0.452825 0.452639 -0.053108
C11   C     C_R   0.033151 0.538019 0.540967 -0.053194
C12   C     C_R   0.456112 0.453135 0.985905 -0.051007
C13   C     C_R   0.548144 0.548984 0.004849 -0.051189
C14   C     C_R   0.964018 0.179236 0.437481 0.902192
C15   C     C_R   0.674848 0.041017 0.546926 0.064163
C16   C     C_R   0.037153 0.820724 0.562378 0.900860
C17   C     C_R   0.176054 0.430324 0.980575 0.910499
C18   C     C_R   0.825103 0.570418 0.016728 0.934951
C19   C     C_R   0.435498 0.968115 0.178676 0.913724
C20   C     C_R   0.569349 0.018856 0.824530 0.916089
C21   C     C_R   0.561921 0.820513 0.037709 0.895213
C22   C     C_R   0.438868 0.179413 0.960788 0.923853
C23   C     C_R   0.033797 0.563754 0.821162 0.916752
C24   C     C_R   0.977211 0.431997 0.176891 0.920050
C25   C     C_R   0.820932 0.035022 0.563079 0.899150
C26   C     C_R   0.991471 0.444787 0.313949 0.061859
C27   C     C_R   0.179222 0.963445 0.437516 0.897397
C28   C     C_R   0.416257 0.953724 0.414600 0.064914
C29   C     C_R   0.595149 0.012279 0.595774 0.065571
C30   C     C_R   0.978772 0.408914 0.407682 0.064875
C31   C     C_R   0.048175 0.582544 0.586280 0.066262
C32   C     C_R   0.409658 0.405984 0.975862 0.069713
C33   C     C_R   0.594041 0.595798 0.016008 0.069735
C34   C     C_R   0.278457 0.943079 0.407984 -0.114369
C35   C     C_R   0.723329 0.046830 0.595443 -0.115168
C36   C     C_R   0.972494 0.398970 0.271137 -0.104077
C37   C     C_R   0.047431 0.540381 0.677121 0.060537
C38   C     C_R   0.052319 0.592141 0.723887 -0.106818
C39   C     C_R   0.407545 0.277965 0.944059 -0.127063
C40   C     C_R   0.594531 0.722471 0.051447 -0.117658
C41   C     C_R   0.604968 0.019157 0.731614 -0.100364
C42   C     C_R   0.406273 0.951680 0.275921 -0.108559
C43   C     C_R   0.731985 0.607621 0.017339 -0.112456
C44   C     C_R   0.270310 0.393710 0.977356 -0.105401
C45   C     C_R   0.059330 0.720965 0.592087 -0.118113
C46   C     C_R   0.949217 0.277858 0.406531 -0.116949
C47   C     C_R   0.489356 0.954946 0.737889 -0.243762
C48   C     C_R   0.458045 0.328712 0.944066 0.064672
C49   C     C_R   0.546979 0.966570 0.282775 -0.242726
C50   C     C_R   0.076413 0.703813 0.446847 -0.243072
C51   C     C_R   0.939208 0.294182 0.550168 -0.241703
C52   C     C_R   0.737586 0.500594 0.945652 -0.245532
C53   C     C_R   0.266776 0.501712 0.045985 -0.246446
C54   C     C_R   0.298377 0.919903 0.555024 -0.243980
C55   C     C_R   0.704676 0.059640 0.452282 -0.240734
C56   C     C_R   0.553896 0.304985 0.914256 -0.245207
C57   C     C_R   0.449510 0.695729 0.078712 -0.251079
C58   C     C_R   0.023037 0.524212 0.267749 -0.254153
C59   C     C_R   0.545077 0.672193 0.049320 0.063149
C60   C     C_R   0.040025 0.449202 0.716923 -0.256122
C61   C     C_R   0.320013 0.942481 0.319868 -0.315541
C62   C     C_R   0.683148 0.045093 0.683731 -0.315389
C63   C     C_R   0.949406 0.318880 0.318590 -0.313213
C64   C     C_R   0.061576 0.678993 0.679725 -0.311401
C65   C     C_R   0.317567 0.317096 0.948997 -0.300332
C66   C     C_R   0.684331 0.683795 0.046342 -0.300404
C67   C     C_R   0.664456 0.038598 0.408957 0.109793
C68   C     C_R   0.346402 0.926587 0.601730 0.109541
C69   C     C_R   0.013860 0.410616 0.676395 0.103505
C70   C     C_R   0.562343 0.995408 0.689914 0.055046
C71   C     C_R   0.030919 0.571793 0.313192 0.106578
C72   C     C_R   0.403578 0.647248 0.070963 0.109851
C73   C     C_R   0.600450 0.354855 0.919668 0.112255
C74   C     C_R   0.585356 0.991792 0.323955 0.098300
C75   C     C_R   0.441747 0.945242 0.693223 0.101749
C76   C     C_R   0.312213 0.549865 0.054259 0.107919
C77   C     C_R   0.692449 0.453266 0.935168 0.107596
C78   C     C_R   0.962406 0.333297 0.593010 0.113837
C79   C     C_R   0.061253 0.660354 0.402075 0.114608
C80   C     C_R   0.703179 0.044353 0.317388 -0.198331
C81   C     C_R   0.457242 0.957048 0.322923 0.062249
C82   C     C_R   0.316199 0.906034 0.695915 -0.202725
C83   C     C_R   0.989815 0.328527 0.723919 -0.220793
C84   C     C_R   0.051097 0.655836 0.266778 -0.215553
C85   C     C_R   0.308649 0.670735 0.100362 -0.205645
C86   C     C_R   0.695501 0.333046 0.887921 -0.206409
C87   C     C_R   0.665642 0.018178 0.275964 -0.201403
C88   C     C_R   0.364286 0.913762 0.741330 -0.201256
C89   C     C_R   0.263623 0.622368 0.091834 -0.198383
C90   C     C_R   0.741038 0.382323 0.894929 -0.200110
C91   C     C_R   0.961341 0.291824 0.683464 -0.202405
C92   C     C_R   0.689296 0.567539 0.992343 0.047573
C93   C     C_R   0.067455 0.699188 0.310459 -0.199820
C94   C     C_R   0.543828 0.989753 0.414146 0.034959
C95   C     C_R   0.472267 0.966398 0.599223 0.034076
C96   C     C_R   0.989515 0.413650 0.544317 0.030445
C97   C     C_R   0.037275 0.578136 0.449809 0.030290
C98   C     C_R   0.407189 0.526147 0.023712 0.031536
C99   C     C_R   0.597311 0.476354 0.966364 0.032120
C100  C     C_R   0.585957 0.008904 0.458047 0.030245
C101  C     C_R   0.426179 0.954107 0.553744 0.031888
C102  C     C_R   0.453045 0.574368 0.032825 0.029140
H1    H     H_    0.281640 0.942160 0.282398 0.192293
H2    H     H_    0.941333 0.229463 0.722023 0.131860
H3    H     H_    0.814414 0.363847 0.870332 0.144107
H4    H     H_    0.190710 0.642873 0.112339 0.132652
H5    H     H_    0.255617 0.883571 0.734554 0.138627
H6    H     H_    0.764164 0.066106 0.278604 0.136875
H7    H     H_    0.734687 0.277767 0.857846 0.136723
H8    H     H_    0.269213 0.726807 0.129318 0.136179
H9    H     H_    0.052297 0.689038 0.197023 0.124693
H10   H     H_    0.990692 0.294024 0.793158 0.130010
H11   H     H_    0.469335 0.927264 0.810103 0.184044
H12   H     H_    0.716968 0.057824 0.717552 0.190806
H13   H     H_    0.592066 0.952572 0.220830 0.185076
H14   H     H_    0.101407 0.762846 0.406542 0.167609
H15   H     H_    0.909293 0.238626 0.592018 0.167400
H16   H     H_    0.810176 0.485364 0.915209 0.175628
H17   H     H_    0.194603 0.516409 0.078218 0.164540
H18   H     H_    0.238969 0.895903 0.594374 0.168270
H19   H     H_    0.758786 0.091274 0.410644 0.169058
H20   H     H_    0.592656 0.250032 0.883766 0.159569
H21   H     H_    0.410280 0.749447 0.110776 0.162023
H22   H     H_    0.047238 0.550284 0.196003 0.174109
H23   H     H_    0.938776 0.283848 0.284236 0.192766
H24   H     H_    0.056057 0.404011 0.778216 0.185752
H25   H     H_    0.062174 0.717755 0.716908 0.193855
H26   H     H_    0.282106 0.282893 0.938231 0.194355
H27   H     H_    0.719102 0.717566 0.058590 0.195009
H28   H     H_    0.339802 0.896790 0.814075 0.140168
H29   H     H_    0.698190 0.020697 0.205745 0.136137
H30   H     H_    0.083687 0.763597 0.272904 0.130692
O1    O     O_R   0.982940 0.138950 0.510160 -0.632421
O2    O     O_R   0.982940 0.510160 0.138950 -0.654801
O3    O     O_R   0.861050 0.017060 0.489840 -0.632097
O4    O     O_R   0.138950 0.982940 0.510160 -0.629894
O5    O     O_R   0.867700 0.025880 0.612340 -0.627864
O6    O     O_R   0.132300 0.974120 0.387660 -0.629247
O7    O     O_R   0.025880 0.612340 0.867700 -0.626196
O8    O     O_R   0.974120 0.387660 0.132300 -0.623875
O9    O     O_R   0.612340 0.867700 0.025880 -0.629601
O10   O     O_R   0.387660 0.132300 0.974120 -0.618915
O11   O     O_R   0.387660 0.974120 0.132300 -0.630364
O12   O     O_R   0.017060 0.861050 0.489840 -0.630820
O13   O     O_R   0.612340 0.025880 0.867700 -0.636714
O14   O     O_R   0.132300 0.387660 0.974120 -0.634737
O15   O     O_R   0.867700 0.612340 0.025880 -0.626409
O16   O     O_R   0.974120 0.132300 0.387660 -0.626073
O17   O     O_R   0.025880 0.867700 0.612340 -0.628934
O18   O     O_R   0.138950 0.510160 0.982940 -0.647046
O19   O     O_R   0.861050 0.489840 0.017060 -0.637365
O20   O     O_R   0.510160 0.982940 0.138950 -0.646903
O21   O     O_R   0.489840 0.017060 0.861050 -0.646201
O22   O     O_R   0.489840 0.861050 0.017060 -0.643703
O23   O     O_R   0.510160 0.138950 0.982940 -0.627170
O24   O     O_R   0.017060 0.489840 0.861050 -0.661192
Zn1   Zn    Zn3+2 0.004880 0.004880 0.583590 0.933867
Zn2   Zn    Zn3+2 0.995120 0.995120 0.416410 0.933758
Zn3   Zn    Zn3+2 0.004880 0.583590 0.004880 0.925963
Zn4   Zn    Zn3+2 0.995120 0.416410 0.995120 0.924574
Zn5   Zn    Zn3+2 0.583590 0.004880 0.004880 0.928251
Zn6   Zn    Zn3+2 0.416410 0.995120 0.995120 0.929286

loop_
_geom_bond_atom_site_label_1
_geom_bond_atom_site_label_2
_ccdc_geom_bond_type
C55   H19   S    
O9    Zn5   S    
C6    C45   A    
C54   H18   S    
C32   C48   A    
C74   C94   A    
C17   O18   A    
C79   C93   A    
C88   H28   S    
C91   H2    S    
O15   Zn3   S    
C50   C79   A    
C20   C41   S    
C75   C95   A    
C14   C46   S    
O23   Zn5   S    
C21   C40   S    
C24   C36   S    
C72   C102  A    
C27   O4    A    
C23   O7    A    
C61   H1    S    
C62   H12   S    
C80   C87   A    
C47   H11   S    
C58   C71   A    
C57   C59   A    
O14   Zn4   S    
C76   C98   A    
C14   O16   A    
C2    C32   A    
C49   C81   A    
O6    Zn2   S    
C3    C12   A    
C4    C96   A    
C78   C96   A    
C89   H4    S    
C1    C28   A    
C21   O22   A    
C77   C99   A    
C16   O17   A    
C10   C96   A    
C74   C87   A    
C35   C62   A    
C93   H30   S    
C8    C101  A    
C9    C95   A    
O11   Zn6   S    
C12   C98   A    
O20   Zn5   S    
C19   C42   S    
C9    C29   A    
C76   C89   A    
C66   H27   S    
O2    Zn3   S    
C11   C31   A    
C33   C59   A    
C40   C59   A    
C40   C66   A    
C23   O24   A    
C12   C32   A    
C39   C65   A    
C44   C65   A    
C42   C81   A    
C41   C62   A    
C3    C73   A    
C15   C35   A    
C4    C69   A    
C79   C97   A    
C1    C34   A    
C15   C29   A    
C38   C64   A    
C22   O23   A    
C27   C34   S    
C83   H10   S    
C77   C90   A    
C84   H9    S    
O18   Zn3   S    
C27   O6    A    
C7    C46   A    
O24   Zn4   S    
C86   H7    S    
C8    C94   A    
C68   C101  A    
C85   H8    S    
C20   O21   A    
C33   C92   A    
C2    C44   A    
C85   C89   A    
C52   C77   A    
C98   C102  A    
C34   C61   A    
C24   O8    A    
C31   C37   A    
C15   C55   A    
C13   C99   A    
C25   O5    A    
C1    C54   A    
C65   H26   S    
C47   C70   A    
C13   C33   A    
C37   C38   A    
C69   C83   A    
C57   H21   S    
C10   C30   A    
C94   C100  A    
C64   H25   S    
C22   O10   A    
C50   H14   S    
C19   O20   A    
O16   Zn2   S    
C82   H5    S    
C6    C50   A    
C4    C11   A    
C26   C58   A    
C42   C61   A    
C63   H23   S    
C87   H29   S    
C67   C100  A    
C25   C35   S    
O4    Zn1   S    
C26   C36   A    
C49   H13   S    
C5    C97   A    
C18   O15   A    
C9    C100  A    
C86   C90   A    
C8    C28   A    
C52   C92   A    
C53   C76   A    
O12   Zn2   S    
C18   O19   A    
C36   C63   A    
C71   C84   A    
C7    C51   A    
C24   O2    A    
C48   C56   A    
C19   O11   A    
C56   C73   A    
C16   O12   A    
C28   C81   A    
C49   C74   A    
O22   Zn6   S    
C67   C80   A    
C90   H3    S    
C47   C75   A    
C2    C53   A    
C16   C45   S    
O10   Zn6   S    
C55   C67   A    
C53   H17   S    
C26   C30   A    
C14   O1    A    
C78   C91   A    
C23   C38   S    
C83   C91   A    
C80   H6    S    
C45   C64   A    
C58   H22   S    
C43   C92   A    
O5    Zn1   S    
O21   Zn6   S    
C11   C97   A    
C68   C82   A    
O19   Zn4   S    
C60   H24   S    
C17   O14   A    
C17   C44   S    
C21   O9    A    
C5    C10   A    
C5    C71   A    
C18   C43   S    
O8    Zn4   S    
C72   C85   A    
C46   C63   A    
O13   Zn5   S    
C60   C69   A    
C43   C66   A    
C82   C88   A    
C22   C39   S    
C51   H15   S    
C6    C31   A    
C29   C70   A    
O1    Zn1   S    
C84   C93   A    
C57   C72   A    
C25   O3    A    
C73   C86   A    
C51   C78   A    
C37   C60   A    
O7    Zn3   S    
C3    C99   A    
C75   C88   A    
C54   C68   A    
C7    C30   A    
O3    Zn2   S    
C20   O13   A    
C41   C70   A    
C13   C102  A    
O17   Zn1   S    
C95   C101  A    
C56   H20   S    
C39   C48   A    
C52   H16   S    
