data_mof_unit_21856.cif
_audit_creation_date              2012-12-10T20:30:59-0500
_audit_creation_method            fapswitch 2.2
_symmetry_space_group_name_H-M    P1
_symmetry_Int_Tables_number       1
_space_group_crystal_system       triclinic
_cell_length_a                    15.004583
_cell_length_b                    10.666559
_cell_length_c                    9.846867
_cell_angle_alpha                 90.061534
_cell_angle_beta                  89.87291
_cell_angle_gamma                 89.989118
_cell_volume                      1575.95936484

loop_
_atom_site_label
_atom_site_type_symbol
_atom_type_description
_atom_site_fract_x
_atom_site_fract_y
_atom_site_fract_z
_atom_type_partial_charge
C1    C     C_R   0.503083 0.259849 0.499986 0.881048
C2    C     C_R   0.906946 0.483443 0.622390 0.121704
C3    C     C_R   0.953865 0.552063 0.257233 -0.222755
C4    C     C_R   0.046516 0.552241 0.257334 -0.216476
C5    C     C_R   0.092766 0.529231 0.378143 0.119498
C6    C     C_R   0.046142 0.506700 0.500283 0.059229
C7    C     C_R   0.092242 0.483306 0.622328 0.120824
C8    C     C_R   0.045693 0.461469 0.743382 -0.219670
C9    C     C_R   0.953136 0.461658 0.743437 -0.224362
C10   C     C_R   0.185023 0.527795 0.379051 -0.260087
C11   C     C_R   0.230529 0.503137 0.499974 -0.074322
C12   C     C_R   0.326517 0.500644 0.500054 0.891178
C13   C     C_R   0.184336 0.481361 0.621002 -0.264077
C14   C     C_R   0.519308 0.064016 0.623340 0.126639
C15   C     C_R   0.518491 0.128550 0.500521 -0.102527
C16   C     C_R   0.535930 0.064628 0.378755 -0.225603
C17   C     C_R   0.536334 0.934954 0.378879 -0.228999
C18   C     C_R   0.519175 0.871261 0.500758 -0.108628
C19   C     C_R   0.519814 0.936117 0.623549 0.160818
C20   C     C_3   0.457276 0.928914 0.741780 -0.454049
C21   C     C_3   0.456505 0.070963 0.741181 -0.513407
C22   C     C_R   0.459325 0.405498 0.071442 0.200653
C23   C     C_R   0.503435 0.740083 0.500057 0.883955
C24   C     C_R   0.547953 0.585749 0.072362 -0.267878
C25   C     C_R   0.550061 0.584532 0.927004 0.506098
C26   C     C_R   0.458727 0.406075 0.928852 0.122267
C27   C     C_3   0.362104 0.374206 0.924770 -0.503239
C28   C     C_3   0.363207 0.371476 0.078693 -0.480334
C29   C     C_R   0.673396 0.500697 0.499853 0.888341
C30   C     C_R   0.814858 0.481482 0.621102 -0.278895
C31   C     C_R   0.769207 0.502967 0.499733 -0.069243
C32   C     C_R   0.814994 0.527129 0.378656 -0.260049
C33   C     C_R   0.907223 0.528976 0.377975 0.119372
C34   C     C_R   0.953432 0.506691 0.500263 0.062756
H1    H     H_    0.778885 0.462045 0.714404 0.152431
H2    H     H_    0.543294 0.885770 0.283098 0.166160
H3    H     H_    0.391843 0.886731 0.714941 0.199426
H4    H     H_    0.489611 0.888891 0.833464 0.230471
H5    H     H_    0.390687 0.111273 0.713295 0.203068
H6    H     H_    0.488209 0.112847 0.832534 0.207140
H7    H     H_    0.583470 0.656947 0.128510 0.158640
H8    H     H_    0.321340 0.452333 0.884158 0.207981
H9    H     H_    0.349411 0.281015 0.878348 0.200657
H10   H     H_    0.321690 0.446278 0.125277 0.210664
H11   H     H_    0.779033 0.544709 0.285115 0.156098
H12   H     H_    0.352942 0.276155 0.121473 0.200229
H13   H     H_    0.918761 0.569309 0.162986 0.140360
H14   H     H_    0.081939 0.569636 0.163166 0.143839
H15   H     H_    0.221175 0.546355 0.285834 0.152423
H16   H     H_    0.219766 0.461715 0.713985 0.151465
H17   H     H_    0.080824 0.443863 0.837534 0.145022
H18   H     H_    0.917735 0.444257 0.837631 0.142370
H19   H     H_    0.542627 0.113574 0.282916 0.170587
N1    N     N_R   0.499390 0.499140 0.142800 -0.123036
N2    N     N_R   0.499390 0.499180 0.857150 -0.142100
O1    O     O_R   0.500010 0.316790 0.614690 -0.617963
O2    O     O_R   0.500000 0.316760 0.385350 -0.622112
O3    O     O_R   0.367850 0.499990 0.614680 -0.628470
O4    O     O_R   0.367840 0.499950 0.385340 -0.623114
O5    O     O_R   0.500000 0.683240 0.614650 -0.568061
O6    O     O_R   0.499990 0.683210 0.385310 -0.630284
O7    O     O_R   0.632160 0.500050 0.614660 -0.610698
O8    O     O_R   0.632150 0.500010 0.385320 -0.628485
Zn1   Zn    Zn3+2 0.500010 0.500020 0.653130 0.977416
Zn2   Zn    Zn3+2 0.499990 0.499980 0.346870 0.940938
O9    O     O_3   0.595038 0.675835 0.853967 -0.621477
C35   C     C_3   0.685335 0.686213 0.894150 0.068081
H20   H     H_    0.727198 0.675463 0.801711 0.174902
H21   H     H_    0.708068 0.612267 0.966480 0.103785
C36   C     C_3   0.702180 0.816793 0.953230 -0.364556
H22   H     H_    0.687846 0.888643 0.874505 0.230706
H23   H     H_    0.656976 0.833900 0.040746 0.209212
C37   C     C_3   0.798479 0.830854 0.000362 -0.947027
H24   H     H_    0.813256 0.762330 0.082189 0.258847
H25   H     H_    0.808974 0.926935 0.040758 0.268413
H26   H     H_    0.845082 0.815340 0.914134 0.266271

loop_
_geom_bond_atom_site_label_1
_geom_bond_atom_site_label_2
_ccdc_geom_bond_type
O8    Zn2   S    
C32   H11   S    
C19   C20   S    
C26   N2    A    
C29   O8    A    
C7    C8    A    
C22   N1    A    
N1    Zn2   S    
C28   H12   S    
C26   C27   S    
C30   H1    S    
C14   C21   S    
C1    O1    A    
C5    C6    A    
C3    C33   A    
C24   N1    A    
C15   C16   A    
C18   C19   A    
C37   H24   S    
C16   H19   S    
O7    Zn1   S    
C12   O4    A    
C16   C17   A    
O1    Zn1   S    
C36   H22   S    
C1    C15   S    
C17   H2    S    
C12   O3    A    
C2    C34   A    
O9    C35   S    
C22   C28   S    
C24   H7    S    
C37   H25   S    
C9    H18   S    
C17   C18   A    
O3    Zn1   S    
C23   O5    A    
C35   H20   S    
C24   C25   A    
C8    C9    A    
C28   H10   S    
C6    C34   A    
C35   H21   S    
C2    C9    A    
C1    O2    A    
C20   H4    S    
C31   C32   A    
C21   H5    S    
C23   O6    A    
N2    Zn1   S    
C36   C37   S    
C33   C34   A    
C8    H17   S    
C37   H26   S    
C3    C4    A    
C4    H14   S    
C27   H9    S    
C29   O7    A    
C14   C19   A    
C25   O9    S    
C25   N2    A    
O2    Zn2   S    
C4    C5    A    
C11   C12   S    
C6    C7    A    
C2    C30   A    
O5    Zn1   S    
C35   C36   S    
C32   C33   A    
C5    C10   A    
C29   C31   S    
O4    Zn2   S    
C20   H3    S    
C11   C13   A    
C27   H8    S    
C30   C31   A    
C21   H6    S    
C18   C23   S    
C3    H13   S    
C10   C11   A    
C13   H16   S    
O6    Zn2   S    
C7    C13   A    
C20   C21   S    
C22   C26   A    
C27   C28   S    
C14   C15   A    
C36   H23   S    
C10   H15   S    
