data_mof_unit_17910.cif
_audit_creation_date              2013-03-05T16:03:02-0500
_audit_creation_method            fapswitch 2.2
_symmetry_space_group_name_H-M    P1
_symmetry_Int_Tables_number       1
_space_group_crystal_system       triclinic
_cell_length_a                    6.943398
_cell_length_b                    18.28752
_cell_length_c                    20.170125
_cell_angle_alpha                 68.330978
_cell_angle_beta                  90.601725
_cell_angle_gamma                 90.758672
_cell_volume                      2379.90992812

loop_
_atom_site_label
_atom_site_type_symbol
_atom_site_description
_atom_site_fract_x
_atom_site_fract_y
_atom_site_fract_z
_atom_type_partial_charge
O1    O     O_R   0.488990 0.443920 0.942160 -0.598068
O2    O     O_R   0.823840 0.406530 0.087600 -0.587754
O3    O     O_R   0.999650 0.556080 0.057840 -0.598931
C1    C     C_R   0.655105 0.383482 0.115036 0.943145
O4    O     O_R   0.818390 0.434590 0.944530 -0.582770
O5    O     O_R   0.994160 0.584350 0.913750 -0.591770
C2    C     C_R   0.648798 0.420441 0.924111 0.972324
O6    O     O_R   0.494480 0.415650 0.086250 -0.591706
O7    O     O_3   0.662600 0.549100 0.990070 -0.275141
V1    V     V_3+5 0.935320 0.490890 0.001840 1.173304
O8    O     O_R   0.324240 0.593470 0.912400 -0.593082
C3    C     C_R   0.155292 0.616500 0.884945 0.939636
O9    O     O_R   0.329690 0.565410 0.055470 -0.589997
C4    C     C_R   0.162026 0.579648 0.075853 0.973872
V2    V     V_3+5 0.435990 0.509110 0.998160 1.164076
O10   O     O_3   0.158840 0.450900 0.009930 -0.266989
C5    C     C_3   0.970993 0.681153 0.259559 -0.384388
C6    C     C_3   0.330140 0.702100 0.249846 -0.383923
C7    C     C_3   0.320524 0.749563 0.299902 -0.463764
H1    H     H_    0.986159 0.685774 0.366394 0.146621
H2    H     H_    0.986526 0.617252 0.291564 0.145701
H3    H     H_    0.454063 0.723750 0.212913 0.179832
H4    H     H_    0.356359 0.639013 0.282345 0.158074
H5    H     H_    0.340978 0.708946 0.356231 0.171618
H6    H     H_    0.441006 0.793193 0.287322 0.201164
C8    C     C_1   0.110778 0.874954 0.378214 -0.260887
C9    C     C_3   0.140417 0.710237 0.206278 0.355802
C10   C     C_3   0.964799 0.727485 0.310508 -0.354844
C11   C     C_3   0.124454 0.792218 0.291343 0.226477
C12   C     C_3   0.105574 0.847582 0.211120 0.260914
C13   C     C_3   0.109426 0.798826 0.161713 -0.489087
C14   C     C_1   0.116850 0.837550 0.339429 -0.031924
C15   C     C_1   0.149117 0.663883 0.159131 -0.063211
C16   C     C_1   0.155477 0.625743 0.120964 -0.288157
H7    H     H_    0.973623 0.806153 0.130246 0.200115
H8    H     H_    0.228000 0.821272 0.122413 0.162265
H9    H     H_    0.832195 0.688570 0.229804 0.169187
H10   H     H_    0.820033 0.753193 0.308722 0.193686
H11   H     H_    0.234423 0.887312 0.197979 0.081741
H12   H     H_    0.434970 0.547335 0.693733 0.108733
C17   C     C_R   0.988923 0.764724 0.875417 -0.159604
C18   C     C_R   0.905943 0.834796 0.872525 -0.098768
C19   C     C_R   0.892815 0.898066 0.807990 -0.106829
C20   C     C_R   0.962770 0.891771 0.745858 -0.174101
C21   C     C_R   0.045982 0.821056 0.746865 0.119899
C22   C     C_R   0.059154 0.756119 0.813058 0.118478
C23   C     C_R   0.119331 0.814983 0.683695 -0.316360
C24   C     C_R   0.205500 0.743836 0.686796 0.118156
C25   C     C_R   0.218586 0.678886 0.752980 0.119057
C26   C     C_R   0.145303 0.684964 0.816155 -0.316647
C27   C     C_R   0.275847 0.735254 0.624443 -0.153225
C28   C     C_R   0.358785 0.665180 0.627331 -0.115833
C29   C     C_R   0.371699 0.601878 0.691849 -0.123051
C30   C     C_R   0.301667 0.608155 0.753974 -0.167784
H13   H     H_    0.998855 0.717890 0.927225 0.110258
H14   H     H_    0.852868 0.840200 0.920772 0.126973
H15   H     H_    0.829442 0.952595 0.806102 0.122131
H16   H     H_    0.952024 0.943257 0.697366 0.123006
H17   H     H_    0.266042 0.782107 0.572642 0.105870
H18   H     H_    0.411964 0.659795 0.579089 0.109303
H19   H     H_    0.312247 0.556637 0.802446 0.120320
H20   H     H_    0.916150 0.458060 0.308314 0.107547
C31   C     C_R   0.499767 0.232385 0.123385 -0.153772
C32   C     C_R   0.423499 0.160638 0.125636 -0.040541
C33   C     C_R   0.411259 0.097222 0.190152 -0.040209
C34   C     C_R   0.475369 0.105041 0.252919 -0.168167
C35   C     C_R   0.552614 0.177292 0.252465 0.113531
C36   C     C_R   0.564914 0.242345 0.186301 0.110230
C37   C     C_R   0.620691 0.184883 0.316239 -0.307024
C38   C     C_R   0.701345 0.257540 0.313745 0.117570
C39   C     C_R   0.713622 0.322591 0.247585 0.117609
C40   C     C_R   0.645031 0.315078 0.183850 -0.305960
C41   C     C_R   0.767369 0.267393 0.376604 -0.153716
C42   C     C_R   0.844731 0.338990 0.374282 -0.114961
C43   C     C_R   0.856920 0.402406 0.309770 -0.119750
C44   C     C_R   0.791694 0.394733 0.247077 -0.168656
H21   H     H_    0.508576 0.279522 0.071695 0.114508
H22   H     H_    0.374719 0.154094 0.076937 0.153770
H23   H     H_    0.352908 0.041457 0.191555 0.150058
H24   H     H_    0.464965 0.053583 0.301508 0.124572
H25   H     H_    0.758637 0.220270 0.428301 0.102518
H26   H     H_    0.894417 0.345419 0.422926 0.108751
H27   H     H_    0.802127 0.446197 0.198494 0.117130
O11   O     O_R   0.770890 0.084490 0.414040 -0.585500
O12   O     O_R   0.445980 0.065450 0.555510 -0.590368
O13   O     O_R   0.270670 0.915620 0.586180 -0.589729
C45   C     C_R   0.615361 0.079535 0.576172 0.975335
O14   O     O_R   0.441480 0.093500 0.412450 -0.593307
O15   O     O_R   0.266140 0.943870 0.442100 -0.598924
C46   C     C_R   0.610317 0.116536 0.385090 0.944352
O16   O     O_R   0.775410 0.056240 0.558120 -0.599163
O17   O     O_3   0.602660 0.950990 0.510100 -0.273065
V3    V     V_3+5 0.329740 0.009100 0.498130 1.163196
O18   O     O_R   0.936120 0.934420 0.444240 -0.585939
C47   C     C_R   0.103958 0.920395 0.423858 0.974635
O19   O     O_R   0.940610 0.906370 0.587310 -0.594022
C48   C     C_R   0.109476 0.883449 0.614906 0.939062
V4    V     V_3+5 0.829110 0.990690 0.501470 1.167402
O20   O     O_3   0.106080 0.049010 0.489880 -0.272381
C49   C     C_3   0.800222 0.268229 0.689744 -0.384788
C50   C     C_3   0.439922 0.253368 0.701533 -0.384710
C51   C     C_3   0.441617 0.301712 0.750959 -0.468222
H28   H     H_    0.777802 0.380769 0.704004 0.146502
H29   H     H_    0.789402 0.308182 0.632800 0.148008
H30   H     H_    0.316165 0.211239 0.715771 0.171845
H31   H     H_    0.418247 0.293794 0.645223 0.158168
H32   H     H_    0.421875 0.365180 0.718121 0.170660
H33   H     H_    0.317694 0.283146 0.788230 0.201767
C52   C     C_1   0.638757 0.374542 0.878921 -0.252406
C53   C     C_3   0.631188 0.207833 0.708555 0.367878
C54   C     C_3   0.798462 0.317714 0.738034 -0.354959
C55   C     C_3   0.633681 0.289863 0.793680 0.227116
C56   C     C_3   0.651782 0.199688 0.838031 0.260980
C57   C     C_3   0.655850 0.152166 0.787611 -0.508508
C58   C     C_1   0.634749 0.336434 0.840714 -0.025311
C59   C     C_1   0.629126 0.162313 0.660672 -0.068088
C60   C     C_1   0.624961 0.124869 0.621881 -0.290987
H34   H     H_    0.792615 0.119145 0.794010 0.196592
H35   H     H_    0.537536 0.107470 0.802499 0.157635
H36   H     H_    0.939789 0.236974 0.696578 0.169347
H37   H     H_    0.940577 0.314512 0.764621 0.194167
H38   H     H_    0.519881 0.180919 0.871420 0.094062
N1    N     N_R   0.819158 0.181622 0.886346 0.241956
O21   O     O_R   0.993717 0.186958 0.861993 -0.439555
O22   O     O_R   0.792950 0.155772 0.954985 -0.377542
N2    N     N_R   0.933805 0.897189 0.197421 0.243171
O23   O     O_R   0.761969 0.867537 0.198337 -0.442686
O24   O     O_R   0.953428 0.972803 0.180255 -0.391860

loop_
_geom_bond_atom_site_label_1
_geom_bond_atom_site_label_2
_geom_bond_distance
_ccdc_geom_bond_type
C12   N2    1.469141 S    
C49   C53   1.551423 S    
N2    O23   1.301490 A    
C33   H23   1.083027 S    
C45   O16   1.297928 A    
C54   H37   1.109922 S    
C17   C18   1.393234 A    
C51   C55   1.553543 S    
C54   C55   1.554865 S    
C1    O6    1.295599 A    
O17   V4    1.706406 S    
N1    O21   1.301464 A    
C21   C22   1.424993 A    
C9    C15   1.491461 S    
C8    C14   1.215877 T    
C50   C51   1.557575 S    
C10   C11   1.554344 S    
C45   C60   1.450327 S    
C11   C14   1.492235 S    
O5    C3    1.295738 A    
C12   C13   1.564025 S    
N1    O22   1.301161 A    
O18   V4    1.964426 S    
V2    O10   2.159038 S    
V4    O20   2.159049 S    
C49   H29   1.112925 S    
C59   C60   1.215142 T    
H28   C54   1.113193 S    
C6    C7    1.557998 S    
C41   C42   1.393454 A    
O13   C48   1.295752 A    
C17   H13   1.081384 S    
C28   H18   1.082632 S    
C18   H14   1.082648 S    
C31   C36   1.415849 A    
O12   V3    1.972803 S    
C24   C27   1.416201 A    
C56   H38   1.115361 S    
C20   H16   1.081202 S    
O19   V4    2.001681 S    
C17   C22   1.416215 A    
C51   H33   1.112710 S    
C38   C39   1.424980 A    
C49   H36   1.112866 S    
O7    V1    2.152347 S    
V3    O20   1.704982 S    
C57   H35   1.113232 S    
C21   C23   1.419429 A    
C34   C35   1.416326 A    
C6    H3    1.112968 S    
O9    C4    1.299702 A    
O18   C47   1.299501 A    
O11   C46   1.295527 A    
C42   H26   1.082829 S    
C44   H27   1.081589 S    
C41   H25   1.081655 S    
C55   C56   1.564999 S    
O12   C45   1.297757 A    
C50   H30   1.112967 S    
C42   C43   1.389452 A    
C6    C9    1.553709 S    
C9    C13   1.551994 S    
C35   C36   1.425060 A    
C5    C9    1.552274 S    
C50   H31   1.112852 S    
O4    C2    1.297548 A    
C19   H15   1.082912 S    
H1    C10   1.113095 S    
C50   C53   1.554154 S    
C29   C30   1.392938 A    
C5    H2    1.112979 S    
C2    C52   1.449941 S    
C35   C37   1.419410 A    
O15   C47   1.297265 A    
O2    C1    1.298001 A    
C43   C44   1.393256 A    
O5    V1    1.999799 S    
C11   C12   1.565169 S    
O13   V3    1.999850 S    
C23   C24   1.419338 A    
C56   N1    1.469032 S    
C10   H10   1.109924 S    
C36   C40   1.418983 A    
O19   C48   1.298963 A    
C38   C41   1.415778 A    
C15   C16   1.216211 T    
C51   H32   1.113201 S    
C5    H9    1.112908 S    
C57   H34   1.112717 S    
O3    C4    1.297329 A    
O1    V2    1.961453 S    
C24   C25   1.424952 A    
O14   C46   1.298127 A    
H12   C29   1.082881 S    
O6    V2    2.000922 S    
O8    V2    2.001759 S    
O9    V2    1.964178 S    
C19   C20   1.393012 A    
C13   H7    1.112605 S    
H20   C43   1.083019 S    
C27   H17   1.081382 S    
C18   C19   1.389064 A    
C37   C46   1.487900 S    
O2    V1    1.999281 S    
C53   C59   1.489655 S    
C1    C40   1.487862 S    
C28   C29   1.389039 A    
C56   C57   1.563421 S    
C31   H21   1.081701 S    
C8    C47   1.451665 S    
C53   C57   1.551901 S    
O14   V3    1.999364 S    
N2    O24   1.301157 A    
O1    C2    1.297951 A    
C5    C10   1.555888 S    
C32   H22   1.082879 S    
C20   C21   1.416597 A    
C4    C16   1.452191 S    
C3    C26   1.488261 S    
O8    C3    1.298983 A    
C30   H19   1.081196 S    
C34   H24   1.081606 S    
C22   C26   1.419412 A    
C23   C48   1.488226 S    
O11   V4    1.996297 S    
C32   C33   1.389530 A    
C7    H5    1.113060 S    
O7    V2    1.709963 S    
C27   C28   1.393174 A    
O3    V1    1.966301 S    
V1    O10   1.704913 S    
C39   C44   1.416239 A    
C6    H4    1.112855 S    
O17   V3    2.152402 S    
C12   H11   1.115389 S    
C33   C34   1.393394 A    
O16   V4    1.978369 S    
O15   V3    1.966305 S    
C37   C38   1.418863 A    
C7    H6    1.112707 S    
C52   C58   1.214887 T    
C31   C32   1.393603 A    
O4    V1    1.972943 S    
C39   C40   1.419213 A    
C49   C54   1.555399 S    
C25   C26   1.419403 A    
C13   H8    1.113172 S    
C55   C58   1.490564 S    
C25   C30   1.416579 A    
C7    C11   1.554166 S    
