data_mof_unit_27335.cif
_audit_creation_date              2012-12-10T17:31:09-0500
_audit_creation_method            fapswitch 2.2
_symmetry_space_group_name_H-M    P1
_symmetry_Int_Tables_number       1
_space_group_crystal_system       triclinic
_cell_length_a                    12.017561
_cell_length_b                    12.882208
_cell_length_c                    15.628963
_cell_angle_alpha                 87.047238
_cell_angle_beta                  116.250434
_cell_angle_gamma                 93.483234
_cell_volume                      2165.20183196

loop_
_atom_site_label
_atom_site_type_symbol
_atom_type_description
_atom_site_fract_x
_atom_site_fract_y
_atom_site_fract_z
_atom_type_partial_charge
C1    C     C_R   0.477047 0.299493 0.498151 0.889209
C2    C     C_R   0.522953 0.700507 0.501849 0.889209
C3    C     C_R   0.557646 0.632701 0.044668 -0.208127
C4    C     C_R   0.442353 0.367299 0.955331 -0.208127
C5    C     C_R   0.647556 0.653707 0.013067 -0.227123
C6    C     C_R   0.352444 0.346293 0.986933 -0.227122
C7    C     C_R   0.536333 0.811857 0.502167 -0.054551
C8    C     C_R   0.463667 0.188143 0.497833 -0.054551
C9    C     C_R   0.363169 0.028903 0.519685 -0.220157
C10   C     C_R   0.636831 0.971097 0.480314 -0.220157
C11   C     C_R   0.368650 0.136517 0.514141 -0.195695
C12   C     C_R   0.631350 0.863483 0.485859 -0.195695
C13   C     C_R   0.551425 0.133048 0.484956 -0.281716
C14   C     C_R   0.448575 0.866952 0.515044 -0.281716
C15   C     C_R   0.547321 0.026201 0.491111 0.185060
C16   C     C_R   0.452679 0.973799 0.508889 0.185060
C17   C     C_R   0.012001 0.613455 0.426860 -0.321817
C18   C     C_R   0.987999 0.386545 0.573139 -0.321818
C19   C     C_R   0.130671 0.600981 0.432214 0.015952
C20   C     C_R   0.869329 0.399018 0.567786 0.015952
C21   C     C_R   0.155178 0.448470 0.528917 -0.039361
C22   C     C_R   0.844822 0.551530 0.471083 -0.039361
C23   C     C_R   0.576875 0.493335 0.679930 0.883784
C24   C     C_R   0.423125 0.506665 0.320070 0.883784
C25   C     C_R   0.036219 0.458108 0.525833 0.088949
C26   C     C_R   0.963781 0.541891 0.474167 0.088949
C27   C     C_R   0.627660 0.500068 0.783097 -0.099856
C28   C     C_R   0.372340 0.499932 0.216903 -0.099856
C29   C     C_R   0.740707 0.616409 0.911342 -0.203210
C30   C     C_R   0.259293 0.383591 0.088658 -0.203211
C31   C     C_R   0.725848 0.572138 0.827997 -0.213527
C32   C     C_R   0.274151 0.427862 0.172003 -0.213527
C33   C     C_R   0.560028 0.455192 0.830660 -0.061801
C34   C     C_R   0.439972 0.544808 0.169340 -0.061801
C35   C     C_R   0.576801 0.497894 0.918058 0.044043
C36   C     C_R   0.423199 0.502106 0.081942 0.044043
C37   C     C_R   0.658905 0.586964 0.950633 0.159580
C38   C     C_R   0.341094 0.413036 0.049367 0.159580
C39   C     C_R   0.504626 0.465636 0.967559 0.066808
C40   C     C_R   0.495373 0.534364 0.032441 0.066808
H1    H     H_    0.700074 0.727444 0.030138 0.147141
H2    H     H_    0.299926 0.272556 0.969862 0.147141
H3    H     H_    0.833074 0.343001 0.604050 0.133136
H4    H     H_    0.166926 0.656999 0.395950 0.133136
H5    H     H_    0.958623 0.678791 0.386226 0.151544
H6    H     H_    0.041377 0.321209 0.613773 0.151544
H7    H     H_    0.220271 0.395236 0.207900 0.161914
H8    H     H_    0.779729 0.604764 0.792100 0.161914
H9    H     H_    0.807197 0.681323 0.939080 0.141936
H10   H     H_    0.192802 0.318677 0.060920 0.141936
H11   H     H_    0.536170 0.696141 0.076257 0.164378
H12   H     H_    0.463830 0.303859 0.923743 0.164378
H13   H     H_    0.375833 0.826844 0.528825 0.161506
H14   H     H_    0.624167 0.173156 0.471175 0.161506
H15   H     H_    0.699364 0.820897 0.475624 0.162672
H16   H     H_    0.300636 0.179102 0.524376 0.162672
H17   H     H_    0.290145 0.988980 0.533083 0.140264
H18   H     H_    0.709855 0.011020 0.466917 0.140264
H19   H     H_    0.788577 0.615783 0.431694 0.143201
H20   H     H_    0.211423 0.384217 0.568306 0.143200
N1    N     N_R   0.799120 0.480200 0.517090 -0.100236
N2    N     N_R   0.200880 0.519800 0.482910 -0.100236
O1    O     O_R   0.580150 0.341050 0.504560 -0.630012
O2    O     O_R   0.419850 0.658950 0.495440 -0.630011
O3    O     O_R   0.388090 0.353760 0.493600 -0.626478
O4    O     O_R   0.611910 0.646240 0.506400 -0.626478
O5    O     O_R   0.650890 0.490020 0.640860 -0.621114
O6    O     O_R   0.349110 0.509980 0.359140 -0.621114
O7    O     O_R   0.458830 0.502730 0.629890 -0.597596
O8    O     O_R   0.541170 0.497270 0.370110 -0.597596
Zn1   Zn    Zn3+2 0.628240 0.491510 0.507320 0.950639
Zn2   Zn    Zn3+2 0.371760 0.508490 0.492680 0.950639
C41   C     C_1   0.537432 0.622216 0.220159 0.150023
N3    N     N_1   0.614589 0.683912 0.261330 -0.239363
C42   C     C_1   0.462568 0.377784 0.779841 0.150022
N4    N     N_1   0.385411 0.316088 0.738670 -0.239363

loop_
_geom_bond_atom_site_label_1
_geom_bond_atom_site_label_2
_ccdc_geom_bond_type
C8    C13   A    
C5    C37   A    
C1    C8    S    
C41   N3    T    
C23   O7    A    
C2    C7    S    
C24   O8    A    
C29   H9    S    
C27   C33   A    
C4    H12   S    
C17   C26   A    
C35   C37   A    
C9    C16   A    
C17   H5    S    
C10   C15   A    
O5    Zn1   S    
C19   N2    A    
C15   C16   A    
C18   H6    S    
C30   C38   A    
C18   C20   A    
C23   O5    A    
C20   N1    A    
C21   C25   A    
C33   C35   A    
C33   C42   S    
C7    C14   A    
C1    O3    A    
C6    C38   A    
O8    Zn1   S    
C23   C27   S    
C34   C36   A    
N1    Zn1   S    
C30   H10   S    
C28   C34   A    
C18   C25   A    
C1    O1    A    
C2    O2    A    
C7    C12   A    
C27   C31   A    
C36   C40   A    
C21   H20   S    
C4    C6    A    
C22   H19   S    
C3    H11   S    
C3    C5    A    
C25   C26   A    
O7    Zn2   S    
C35   C39   A    
C42   N4    T    
O4    Zn1   S    
C4    C39   A    
C28   C32   A    
O6    Zn2   S    
N2    Zn2   S    
C9    C11   A    
C21   N2    A    
C10   C12   A    
O1    Zn1   S    
C3    C40   A    
C31   H8    S    
C13   C15   A    
C6    H2    S    
C32   H7    S    
C14   C16   A    
C39   C40   A    
C20   H3    S    
C19   H4    S    
C13   H14   S    
C5    H1    S    
C10   H18   S    
C24   C28   S    
C2    O4    A    
O3    Zn2   S    
C36   C38   A    
C29   C31   A    
C22   N1    A    
C30   C32   A    
C8    C11   A    
C17   C19   A    
C9    H17   S    
O2    Zn2   S    
C12   H15   S    
C24   O6    A    
C34   C41   S    
C14   H13   S    
C22   C26   A    
C29   C37   A    
C11   H16   S    
