data_mof_unit_47935.cif
_audit_creation_date              2013-03-05T16:04:00-0500
_audit_creation_method            fapswitch 2.2
_symmetry_space_group_name_H-M    P1
_symmetry_Int_Tables_number       1
_space_group_crystal_system       triclinic
_cell_length_a                    13.116119
_cell_length_b                    10.795696
_cell_length_c                    9.57029
_cell_angle_alpha                 90.729541
_cell_angle_beta                  95.231134
_cell_angle_gamma                 93.491024
_cell_volume                      1346.75421593

loop_
_atom_site_label
_atom_site_type_symbol
_atom_site_description
_atom_site_fract_x
_atom_site_fract_y
_atom_site_fract_z
_atom_type_partial_charge
O1    O     O_R   0.499990 0.319660 0.618740 -0.576129
O2    O     O_R   0.500010 0.680340 0.381260 -0.580978
O3    O     O_R   0.499990 0.319630 0.381170 -0.565157
O4    O     O_R   0.500010 0.680370 0.618830 -0.555526
C1    C     C_R   0.501830 0.262651 0.499074 0.924683
C2    C     C_R   0.500883 0.737456 0.501385 0.912018
O5    O     O_R   0.349000 0.499990 0.599490 -0.533821
O6    O     O_R   0.651000 0.500010 0.400510 -0.560122
O7    O     O_R   0.348990 0.499960 0.361920 -0.538533
O8    O     O_R   0.651010 0.500040 0.638080 -0.561786
C3    C     C_R   0.300977 0.501984 0.475259 0.838921
C4    C     C_R   0.699482 0.498458 0.525258 0.866893
Cu1   Cu    Cu3+1 0.500000 0.500020 0.640660 1.086804
Cu2   Cu    Cu3+1 0.500000 0.499980 0.359340 1.080087
C5    C     C_R   0.813026 0.498862 0.541431 -0.156902
C6    C     C_R   0.190288 0.520273 0.466201 -0.158804
C7    C     C_R   0.041980 0.625513 0.365831 -0.086899
C8    C     C_R   0.970686 0.463623 0.687741 -0.086995
C9    C     C_R   0.147209 0.604945 0.369106 -0.077518
C10   C     C_R   0.863175 0.457286 0.668221 -0.082292
C11   C     C_R   0.129853 0.466473 0.567939 -0.048689
C12   C     C_R   0.872232 0.546835 0.435049 -0.017654
C13   C     C_R   0.028176 0.500053 0.574696 0.046379
C14   C     C_R   0.980264 0.560656 0.459300 0.024793
C15   C     C_R   0.582391 0.069598 0.441876 0.250434
C16   C     C_R   0.424731 0.930969 0.563907 0.245684
C17   C     C_R   0.583589 0.940148 0.446259 0.226752
C18   C     C_R   0.422644 0.059676 0.555611 0.251433
C19   C     C_R   0.504005 0.871526 0.505807 -0.345576
C20   C     C_R   0.501494 0.128438 0.496192 -0.329664
C21   C     C_R   0.453252 0.402881 0.064739 0.092217
C22   C     C_R   0.546041 0.597704 0.935343 0.076543
C23   C     C_R   0.454815 0.403184 0.917056 0.012692
C24   C     C_R   0.543697 0.597607 0.082902 -0.039340
H1    H     H_    0.418429 0.326048 0.854221 0.201216
H2    H     H_    0.578080 0.675769 0.145801 0.191203
N1    N     N_R   0.500030 0.500030 0.852080 -0.214159
N2    N     N_R   0.499970 0.499970 0.147920 -0.208047
C25   C     C_2   0.826396 0.551830 0.288215 0.892927
O9    O     O_2   0.839020 0.467397 0.206600 -0.522367
O10   O     O_R   0.773490 0.654007 0.241814 -0.683238
H3    H     H_    0.756348 0.651585 0.136382 0.337771
C26   C     C_2   0.161196 0.354123 0.644871 0.919782
O11   O     O_2   0.232385 0.360221 0.736766 -0.538811
O12   O     O_R   0.100200 0.243604 0.621415 -0.668450
H4    H     H_    0.121719 0.175737 0.687956 0.402003
C27   C     C_2   0.803960 0.396350 0.775977 0.978061
O13   O     O_2   0.762386 0.292779 0.752320 -0.528817
O14   O     O_R   0.793379 0.458933 0.901853 -0.688751
H5    H     H_    0.745902 0.410646 0.962266 0.363312
C28   C     C_2   0.211649 0.676194 0.273909 0.915114
O15   O     O_2   0.241935 0.624539 0.172560 -0.528493
O16   O     O_R   0.233276 0.803486 0.296732 -0.703170
H6    H     H_    0.277287 0.841815 0.224874 0.360052
C29   C     C_2   0.999509 0.725399 0.276467 0.906990
O17   O     O_2   0.011531 0.727558 0.151240 -0.521636
O18   O     O_R   0.945710 0.816992 0.336869 -0.638320
H7    H     H_    0.920551 0.880086 0.266273 0.394099
C30   C     C_2   0.023356 0.441896 0.829398 0.893696
O19   O     O_2   0.998845 0.350838 0.896447 -0.513201
O20   O     O_R   0.103283 0.525097 0.883899 -0.670009
H8    H     H_    0.135139 0.498354 0.978227 0.388650
N3    N     N_R   0.666970 0.141400 0.392035 0.153634
O21   O     O_R   0.758426 0.137271 0.456435 -0.254657
O22   O     O_R   0.655067 0.199207 0.273764 -0.275151
N4    N     N_R   0.343649 0.860808 0.624802 0.153242
O23   O     O_R   0.248584 0.871968 0.577345 -0.248511
O24   O     O_R   0.362830 0.806587 0.744056 -0.264844
N5    N     N_R   0.666996 0.878935 0.393971 0.172898
O25   O     O_R   0.697545 0.907020 0.272062 -0.254340
O26   O     O_R   0.717301 0.801497 0.472543 -0.327293
N6    N     N_R   0.337297 0.120610 0.600338 0.156351
O27   O     O_R   0.310574 0.106584 0.727077 -0.280740
O28   O     O_R   0.281405 0.182002 0.509573 -0.366787
C31   C     C_2   0.397415 0.296119 0.122962 0.918762
O29   O     O_2   0.427857 0.192135 0.109831 -0.535916
O30   O     O_R   0.306370 0.312142 0.184022 -0.700859
H9    H     H_    0.274126 0.231249 0.217020 0.365358
C32   C     C_2   0.600526 0.706173 0.877768 0.899409
O31   O     O_2   0.573104 0.810208 0.900575 -0.519301
O32   O     O_R   0.687284 0.691643 0.806485 -0.708541
H10   H     H_    0.718740 0.773516 0.774929 0.365932

loop_
_geom_bond_atom_site_label_1
_geom_bond_atom_site_label_2
_geom_bond_distance
_ccdc_geom_bond_type
N4    O24   1.300424 A    
C29   O17   1.223281 D    
N3    O22   1.301006 A    
C6    C11   1.418724 A    
C17   C19   1.410047 A    
O10   H3    1.013201 S    
C26   O11   1.221033 D    
O32   H10   1.013784 S    
C27   O14   1.395756 S    
O2    C2    1.296411 A    
O30   H9    1.013726 S    
O5    C3    1.294800 A    
O1    C1    1.296085 A    
N5    O25   1.301207 A    
C8    C10   1.402830 A    
N5    O26   1.300910 A    
C15   N3    1.435343 S    
O4    Cu1   1.960818 S    
C31   O30   1.395426 S    
C23   H1    1.081364 S    
C11   C26   1.486766 S    
C5    C12   1.420010 A    
C13   C14   1.408732 A    
C21   C23   1.415431 A    
C7    C29   1.488058 S    
Cu1   N1    2.023313 S    
C17   N5    1.436440 S    
N4    O23   1.300740 A    
C30   O19   1.223379 D    
Cu1   Cu2   2.692309 S    
C18   N6    1.427924 S    
C11   C13   1.409999 A    
C5    C10   1.418021 A    
C30   O20   1.396974 S    
C7    C14   1.422898 A    
C8    C13   1.420286 A    
C16   N4    1.438916 S    
N6    O28   1.299594 A    
C25   O9    1.221556 D    
C32   O32   1.394792 S    
O7    Cu2   1.983056 S    
O16   H6    1.013861 S    
C23   N1    1.356388 A    
C32   O31   1.222987 D    
C28   O16   1.396496 S    
C22   C24   1.415337 A    
C31   O29   1.222927 D    
Cu2   N2    2.023313 S    
O7    C3    1.303543 A    
C3    C6    1.471949 S    
C21   C31   1.470795 S    
C27   O13   1.222943 D    
C4    C5    1.482898 S    
O6    C4    1.301296 A    
C22   N1    1.387251 A    
C26   O12   1.399351 S    
O3    Cu2   1.960817 S    
O8    C4    1.302439 A    
O4    C2    1.289339 A    
C29   O18   1.398079 S    
C12   C14   1.413266 A    
O12   H4    1.013064 S    
O1    Cu1   1.955712 S    
C1    C20   1.448560 S    
C15   C20   1.404913 A    
O6    Cu2   1.983780 S    
C24   N2    1.354741 A    
N6    O27   1.301037 A    
O3    C1    1.291014 A    
O8    Cu1   1.983056 S    
C15   C17   1.399668 A    
C16   C18   1.394547 A    
C21   N2    1.385415 A    
C18   C20   1.403038 A    
C28   O15   1.221892 D    
C22   C32   1.473724 S    
O18   H7    1.013778 S    
C6    C9    1.416714 A    
C12   C25   1.480153 S    
C7    C9    1.408838 A    
C24   H2    1.081184 S    
O20   H8    1.012641 S    
O2    Cu2   1.955713 S    
C10   C27   1.483431 S    
N3    O21   1.301223 A    
C9    C28   1.488337 S    
C8    C30   1.492390 S    
O5    Cu1   1.983781 S    
C2    C19   1.445431 S    
C25   O10   1.394629 S    
C16   C19   1.407032 A    
O14   H5    1.013708 S    
