data_mof_unit_27947.cif
_audit_creation_date              2012-10-26T20:32:02-0400
_audit_creation_method            fapswitch 2.2
_symmetry_space_group_name_H-M    P1
_symmetry_Int_Tables_number       1
_space_group_crystal_system       triclinic
_cell_length_a                    10.623236
_cell_length_b                    10.812878
_cell_length_c                    9.545452
_cell_angle_alpha                 89.903998
_cell_angle_beta                  89.616037
_cell_angle_gamma                 90.050405
_cell_volume                      1096.43804531

loop_
_atom_site_label
_atom_site_type_symbol
_atom_type_description
_atom_site_fract_x
_atom_site_fract_y
_atom_site_fract_z
_atom_type_partial_charge
C1    C     C_R   0.502478 0.262287 0.500040 0.542843
C2    C     C_R   0.517396 0.936024 0.625462 0.025981
C3    C     C_3   0.430250 0.928768 0.748676 -0.268284
C4    C     C_R   0.259332 0.500311 0.500514 0.546870
C5    C     C_3   0.430053 0.069211 0.748932 -0.276114
C6    C     C_R   0.550912 0.596880 0.072981 0.154517
C7    C     C_R   0.438092 0.411231 0.075053 -0.014715
C8    C     C_R   0.437966 0.411307 0.926167 -0.017681
C9    C     C_R   0.550951 0.596798 0.925722 0.149838
C10   C     C_3   0.683565 0.641589 0.918363 -0.263460
C11   C     C_3   0.683695 0.641502 0.077522 -0.286715
C12   C     C_3   0.960783 0.494868 0.366417 -0.144162
C13   C     C_R   0.502750 0.737654 0.499851 0.556153
C14   C     C_R   0.740654 0.499709 0.499533 0.581207
C15   C     C_3   0.039485 0.504406 0.634707 -0.117150
C16   C     C_3   0.957679 0.400256 0.571125 -0.163637
C17   C     C_3   0.877460 0.499065 0.498509 0.063067
C18   C     C_3   0.958465 0.601486 0.559950 0.276277
C19   C     C_3   0.042552 0.599790 0.428303 -0.121311
C20   C     C_3   0.998879 0.787904 0.666993 -0.012720
C21   C     C_3   0.938616 0.900800 0.734475 -0.372829
C22   C     C_3   0.043228 0.396085 0.439128 -0.139866
C23   C     C_3   0.122557 0.500653 0.501718 0.005051
C24   C     C_R   0.517219 0.063267 0.625627 0.020643
C25   C     C_R   0.515695 0.129176 0.499806 0.005621
C26   C     C_R   0.532949 0.064650 0.373303 -0.168105
C27   C     C_R   0.533186 0.935729 0.373180 -0.163853
C28   C     C_R   0.516115 0.870681 0.499554 0.014015
Cu1   Cu    Cu3+1 0.499990 0.499980 0.640670 0.940686
Cu2   Cu    Cu3+1 0.500010 0.500020 0.359330 0.930700
H1    H     H_    0.919714 0.318637 0.628148 0.110117
H2    H     H_    0.691071 0.735697 0.123195 0.120059
H3    H     H_    0.074016 0.509088 0.744088 0.108733
H4    H     H_    0.080199 0.681205 0.370675 0.099566
H5    H     H_    0.926608 0.489540 0.257034 0.112987
H6    H     H_    0.081869 0.311354 0.389418 0.114185
H7    H     H_    0.539917 0.113022 0.274089 0.130676
H8    H     H_    0.540244 0.887763 0.273917 0.128799
H9    H     H_    0.337343 0.887778 0.722126 0.127615
H10   H     H_    0.057452 0.819972 0.576840 0.123035
H11   H     H_    0.060184 0.742592 0.746076 0.125042
H12   H     H_    0.476627 0.888099 0.842092 0.133709
H13   H     H_    0.882547 0.872587 0.827806 0.147641
H14   H     H_    0.012924 0.966601 0.767774 0.088005
H15   H     H_    0.875899 0.947789 0.658447 0.163468
H16   H     H_    0.337035 0.109967 0.722645 0.128339
H17   H     H_    0.476336 0.109359 0.842564 0.129218
H18   H     H_    0.389866 0.338094 0.131228 0.112488
H19   H     H_    0.389432 0.338425 0.870957 0.110183
H20   H     H_    0.749225 0.572500 0.872327 0.173097
H21   H     H_    0.690157 0.735819 0.872213 0.141285
H22   H     H_    0.748983 0.572049 0.122467 0.148485
N1    N     N_R   0.500800 0.500930 0.147930 -0.228969
N2    N     N_R   0.500800 0.500890 0.852020 -0.232021
O1    O     O_R   0.500000 0.319640 0.618810 -0.507593
O2    O     O_R   0.500010 0.319680 0.381230 -0.516750
O3    O     O_R   0.316850 0.499950 0.618770 -0.511817
O4    O     O_R   0.316860 0.499990 0.381190 -0.499679
O5    O     O_R   0.499990 0.680320 0.618770 -0.494196
O6    O     O_R   0.500000 0.680360 0.381190 -0.507365
O7    O     O_R   0.683140 0.500010 0.618810 -0.488924
O8    O     O_R   0.683150 0.500050 0.381230 -0.513057
O9    O     O_3   0.903358 0.706817 0.622087 -0.559227

loop_
_geom_bond_atom_site_label_1
_geom_bond_atom_site_label_2
_ccdc_geom_bond_type
C4    O3    A    
C12   C17   S    
C15   C18   S    
C19   C23   S    
C13   C28   S    
Cu1   Cu2   S    
C13   O5    A    
C21   H14   S    
C22   H6    S    
C9    C10   S    
C11   H22   S    
Cu1   N2    S    
C7    H18   S    
C6    C9    A    
C15   C23   S    
C2    C3    S    
C1    O1    A    
C3    H9    S    
C7    C8    A    
C26   H7    S    
C13   O6    A    
C24   C25   A    
C12   H5    S    
C1    C25   S    
C14   O7    A    
C5    H17   S    
C14   C17   S    
C26   C27   A    
C5    C24   S    
C10   H20   S    
C20   O9    S    
C10   H21   S    
Cu2   O4    S    
C12   C19   S    
C1    O2    A    
Cu1   O3    S    
C11   H2    S    
C20   H11   S    
C21   H15   S    
Cu2   O8    S    
C2    C24   A    
C20   H10   S    
Cu2   N1    S    
Cu1   O7    S    
C18   O9    S    
C10   C11   S    
C7    N1    A    
C6    N1    A    
C4    O4    A    
C15   C16   S    
C14   O8    A    
C12   C22   S    
C6    C11   S    
C3    H12   S    
C20   C21   S    
C17   C18   S    
C18   C19   S    
C5    H16   S    
C8    N2    A    
C27   C28   A    
C4    C23   S    
C22   C23   S    
C2    C28   A    
C9    N2    A    
C27   H8    S    
C3    C5    S    
C25   C26   A    
C21   H13   S    
Cu1   O1    S    
Cu2   O2    S    
C8    H19   S    
C15   H3    S    
Cu1   O5    S    
C16   C22   S    
C16   C17   S    
C16   H1    S    
C19   H4    S    
Cu2   O6    S    
