data_mof_unit_46519.cif
_audit_creation_date              2012-12-11T16:41:43-0500
_audit_creation_method            fapswitch 2.2
_symmetry_space_group_name_H-M    P1
_symmetry_Int_Tables_number       1
_space_group_crystal_system       triclinic
_cell_length_a                    8.26583
_cell_length_b                    17.517557
_cell_length_c                    19.100066
_cell_angle_alpha                 100.439521
_cell_angle_beta                  92.056504
_cell_angle_gamma                 96.024236
_cell_volume                      2700.56948332

loop_
_atom_site_label
_atom_site_type_symbol
_atom_type_description
_atom_site_fract_x
_atom_site_fract_y
_atom_site_fract_z
_atom_type_partial_charge
Ba1   Ba    Ba6+2 0.849550 0.533890 0.465080 1.669825
Ba2   Ba    Ba6+2 0.340280 0.466170 0.534930 1.673811
C1    C     C_3   0.679714 0.806012 0.279969 -0.225656
C2    C     C_R   0.916469 0.410482 0.084147 -0.077804
C3    C     C_R   0.768933 0.456444 0.954654 -0.041943
C4    C     C_3   0.153267 0.719904 0.274249 0.201055
C5    C     C_R   0.934825 0.475177 0.977082 0.057769
C6    C     C_R   0.714851 0.454918 0.884677 -0.048215
C7    C     C_R   0.822129 0.477532 0.835080 -0.031762
C8    C     C_R   0.982039 0.512104 0.859745 0.047430
C9    C     C_R   0.038697 0.510509 0.931438 0.088155
C10   C     C_R   0.773259 0.467729 0.762039 -0.014400
C11   C     C_R   0.882127 0.492285 0.714818 -0.294691
C12   C     C_3   0.655329 0.728897 0.307008 0.272640
C13   C     C_R   0.030456 0.537272 0.738073 -0.019432
C14   C     C_R   0.082935 0.548835 0.813275 -0.061098
C15   C     C_R   0.151869 0.499988 0.072245 0.070082
C16   C     C_3   0.121509 0.750776 0.205519 -0.203336
C17   C     C_R   0.206481 0.499407 0.144442 -0.003217
C18   C     C_R   0.105685 0.461945 0.190448 -0.057379
C19   C     C_R   0.968577 0.410888 0.156117 -0.028812
C20   C     C_R   0.224252 0.597398 0.846216 -0.005996
C21   C     C_R   0.282510 0.594436 0.916685 -0.051028
C22   C     C_R   0.197530 0.544065 0.957256 0.012311
C23   C     C_3   0.469132 0.329350 0.315307 0.285226
C24   C     C_R   0.257845 0.532808 0.025864 0.059785
C25   C     C_R   0.424082 0.548396 0.048257 -0.129192
C26   C     C_R   0.367701 0.531515 0.168619 -0.009140
C27   C     C_R   0.476577 0.551466 0.118562 -0.050142
C28   C     C_3   0.106481 0.723389 0.656140 0.119535
C29   C     C_R   0.419332 0.537685 0.240814 0.024896
C30   C     C_R   0.312287 0.511230 0.288336 -0.286546
C31   C     C_R   0.159562 0.470524 0.265448 0.042690
C32   C     C_R   0.408706 0.720555 0.469281 -0.230828
C33   C     C_R   0.550866 0.748651 0.512350 -0.008576
C34   C     C_3   0.393753 0.287831 0.241783 -0.238036
C35   C     C_R   0.597819 0.830598 0.528949 -0.166268
C36   C     C_R   0.506978 0.881844 0.497683 -0.002937
C37   C     C_R   0.358795 0.852634 0.457484 -0.100835
C38   C     C_R   0.308595 0.771659 0.445238 -0.034147
C39   C     C_R   0.589630 0.163119 0.484969 -0.113590
C40   C     C_3   0.046543 0.776345 0.721662 -0.267517
C41   C     C_R   0.641297 0.243149 0.494385 0.005711
C42   C     C_R   0.889450 0.223594 0.558513 -0.019514
C43   C     C_R   0.843348 0.141842 0.545327 -0.111404
C44   C     C_R   0.686737 0.112595 0.512144 -0.025580
C45   C     C_3   0.048677 0.283635 0.733334 0.241250
C46   C     C_1   0.622431 0.031372 0.506487 0.182775
C47   C     C_1   0.570251 0.963571 0.503101 0.202641
C48   C     C_R   0.784274 0.273267 0.535594 -0.273856
C49   C     C_3   0.929027 0.282614 0.354014 0.196052
C50   C     C_3   0.879968 0.196915 0.313813 -0.196373
C51   C     C_3   0.694307 0.638617 0.680086 0.187510
C52   C     C_3   0.708377 0.659482 0.762380 -0.316805
C53   C     C_2   0.168260 0.845160 0.754328 0.651099
C54   C     C_2   0.026691 0.279466 0.420078 0.479739
C55   C     C_2   0.736393 0.184866 0.261615 0.555396
C56   C     C_3   0.018011 0.229137 0.787795 -0.224851
C57   C     C_2   0.685191 0.874856 0.339626 0.440401
C58   C     C_2   0.673682 0.741370 0.792554 0.664205
C59   C     C_2   0.395849 0.339445 0.187379 0.355082
C60   C     C_2   0.223448 0.715633 0.147713 0.436965
C61   C     C_2   0.135045 0.361370 0.768786 0.568195
C62   C     C_2   0.961801 0.146435 0.752674 0.546168
C63   C     C_2   0.474039 0.127917 0.665280 0.479166
C64   C     C_2   0.906859 0.342761 0.185356 0.481850
C65   C     C_2   0.291162 0.664665 0.816578 0.521779
C66   C     C_2   0.802659 0.342316 0.046189 0.535076
C67   C     C_3   0.532541 0.273407 0.698297 0.267524
C68   C     C_2   0.416632 0.654577 0.951523 0.539665
C69   C     C_2   0.253766 0.905767 0.429330 0.604378
C70   C     C_2   0.961579 0.088449 0.562931 0.632067
C71   C     C_2   0.735845 0.862502 0.581709 0.584950
C72   C     C_2   0.158510 0.838144 0.217810 0.541206
C73   C     C_2   0.197102 0.772716 0.610434 0.504215
C74   C     C_3   0.486656 0.197236 0.724889 -0.223463
C75   C     C_R   0.995910 0.464145 0.045409 0.012439
H1    H     H_    0.739577 0.731622 0.354148 0.100269
H2    H     H_    0.577534 0.191372 0.767238 0.169012
H3    H     H_    0.133824 0.654892 0.262997 0.050709
H4    H     H_    0.366962 0.198668 0.749051 0.118722
H5    H     H_    0.844860 0.480614 0.658638 0.063744
H6    H     H_    0.353764 0.517455 0.343670 0.062249
H7    H     H_    0.517244 0.557394 0.011570 0.079882
H8    H     H_    0.821637 0.335467 0.543903 0.049115
H9    H     H_    0.288948 0.836598 0.773471 0.051719
H10   H     H_    0.931976 0.798339 0.705643 0.126017
H11   H     H_    0.045629 0.330423 0.462065 0.032517
H12   H     H_    0.017563 0.741608 0.763230 0.106092
H13   H     H_    0.734247 0.215847 0.217924 0.033774
H14   H     H_    0.849475 0.158194 0.352925 0.116293
H15   H     H_    0.985483 0.175096 0.285071 0.143876
H16   H     H_    0.588359 0.594151 0.664046 0.119893
H17   H     H_    0.757184 0.876183 0.388602 0.023485
H18   H     H_    0.576136 0.767171 0.769102 0.018381
H19   H     H_    0.528668 0.719517 0.323414 -0.085476
H20   H     H_    0.580474 0.807696 0.239598 0.105747
H21   H     H_    0.578258 0.369868 0.309459 0.054911
H22   H     H_    0.286926 0.339676 0.154315 0.092183
H23   H     H_    0.819963 0.312313 0.367479 -0.048653
H24   H     H_    0.459883 0.237949 0.220264 0.142916
H25   H     H_    0.797246 0.810099 0.253972 0.148951
H26   H     H_    0.353652 0.715710 0.157532 -0.016719
H27   H     H_    0.159686 0.405566 0.736759 0.025551
H28   H     H_    0.928489 0.293144 0.710828 -0.127999
H29   H     H_    0.131931 0.228042 0.820138 0.121566
H30   H     H_    0.925884 0.251932 0.824791 0.136589
H31   H     H_    0.041958 0.113062 0.718843 0.039330
H32   H     H_    0.455673 0.273952 0.649657 0.093092
H33   H     H_    0.410093 0.129479 0.615025 0.013777
H34   H     H_    0.803455 0.611942 0.660919 -0.019311
H35   H     H_    0.587644 0.435609 0.870311 0.139971
H36   H     H_    0.802044 0.344859 0.217599 0.049125
H37   H     H_    0.374907 0.656987 0.775076 0.028862
H38   H     H_    0.604905 0.567963 0.132307 0.118297
H39   H     H_    0.678474 0.441895 0.990995 0.063980
H40   H     H_    0.697866 0.320260 0.072126 0.050147
H41   H     H_    0.406138 0.686368 0.005090 0.071711
H42   H     H_    0.281018 0.739967 0.294084 -0.102057
H43   H     H_    0.475549 0.139957 0.455220 0.147929
H44   H     H_    0.172505 0.884362 0.382647 -0.006561
H45   H     H_    0.830671 0.650435 0.782674 0.078625
H46   H     H_    0.068172 0.110707 0.597987 -0.009512
H47   H     H_    0.835111 0.828744 0.588192 0.078937
H48   H     H_    0.368345 0.658591 0.459478 0.067671
H49   H     H_    0.990696 0.734299 0.187712 0.161725
H50   H     H_    0.265153 0.867246 0.250900 0.012315
H51   H     H_    0.326981 0.770969 0.606154 -0.029277
H52   H     H_    0.001933 0.688709 0.625858 0.095121
H53   H     H_    0.623543 0.617773 0.784317 0.087684
H54   H     H_    0.377025 0.363325 0.343631 0.007021
H55   H     H_    0.266743 0.263267 0.247269 0.135471
H56   H     H_    0.662004 0.276726 0.684782 -0.053397
O1    O     O_2   0.878040 0.448040 0.325130 -0.475883
O2    O     O_2   0.227500 0.233195 0.550993 -0.445042
O3    O     O_3   0.148713 0.250247 0.680948 -0.664469
O4    O     O_3   0.126800 0.453980 0.414370 -0.499446
O5    O     O_3   0.569440 0.593820 0.536390 -0.480389
O6    O     O_2   0.359400 0.311980 0.465480 -0.408324
O7    O     O_3   0.516761 0.271873 0.351892 -0.619563
O8    O     O_2   0.442134 0.478157 0.756848 -0.487703
O9    O     O_3   0.505754 0.336133 0.752129 -0.573721
O10   O     O_3   0.651020 0.589120 0.368830 -0.487524
O11   O     O_2   0.754272 0.525490 0.243617 -0.452388
O12   O     O_3   0.678580 0.704671 0.649370 -0.671348
O13   O     O_3   0.030450 0.322934 0.312385 -0.649942
O14   O     O_3   0.689249 0.668471 0.252313 -0.598171
O15   O     O_2   0.830300 0.688050 0.534560 -0.473743
O16   O     O_3   0.068750 0.630380 0.404830 -0.468851
O17   O     O_2   0.972200 0.767280 0.455315 -0.454342
O18   O     O_2   0.132457 0.911683 0.758773 -0.499193
O19   O     O_2   0.089651 0.220755 0.426115 -0.558814
O20   O     O_2   0.621374 0.136585 0.266335 -0.513372
O21   O     O_2   0.614757 0.931093 0.332558 -0.542341
O22   O     O_2   0.752788 0.779089 0.844967 -0.488561
O23   O     O_3   0.043930 0.748974 0.324036 -0.614227
O24   O     O_2   0.521671 0.377172 0.176270 -0.631008
O25   O     O_2   0.160221 0.687804 0.088668 -0.566735
O26   O     O_2   0.182942 0.374876 0.831543 -0.589852
O27   O     O_2   0.829277 0.115034 0.764254 -0.493435
O28   O     O_2   0.530703 0.068406 0.673488 -0.469522
O29   O     O_2   0.968890 0.282118 0.169526 -0.596435
O30   O     O_2   0.266680 0.730318 0.844592 -0.586213
O31   O     O_2   0.830389 0.307961 0.987033 -0.542854
O32   O     O_2   0.541943 0.667028 0.921507 -0.566154
O33   O     O_2   0.253547 0.973686 0.458794 -0.543458
O34   O     O_2   0.311660 0.551990 0.674910 -0.460139
O35   O     O_2   0.945822 0.019145 0.536209 -0.529114
O36   O     O_2   0.736664 0.925898 0.620894 -0.495153
O37   O     O_2   0.071004 0.877047 0.189251 -0.505860
O38   O     O_2   0.130300 0.819988 0.583513 -0.568181
O39   O     O_3   0.062910 0.546080 0.585630 -0.482555
O40   O     O_3   0.538690 0.410940 0.631180 -0.492984
O41   O     O_3   0.214361 0.674551 0.677388 -0.667596
O42   O     O_3   0.620260 0.406250 0.463620 -0.494664
O43   O     O_3   0.120960 0.369680 0.595180 -0.494787
P1    P     P_3+3 0.048060 0.426210 0.336320 0.963997
P2    P     P_3+3 0.655920 0.678120 0.556130 0.970414
P3    P     P_3+3 0.101344 0.730488 0.407699 0.976554
P4    P     P_3+3 0.141640 0.573850 0.663690 0.955291
P5    P     P_3+3 0.094292 0.269262 0.596675 0.935753
P6    P     P_3+3 0.627931 0.578585 0.276390 0.986615
P7    P     P_3+3 0.539447 0.307270 0.443770 0.985446
P8    P     P_3+3 0.567076 0.424148 0.724446 0.945653

loop_
_geom_bond_atom_site_label_1
_geom_bond_atom_site_label_2
_ccdc_geom_bond_type
O9    P8    S    
C20   C65   S    
C2    C19   A    
C64   H36   S    
C19   C64   S    
C25   C27   A    
C39   C41   A    
C17   C18   A    
C74   H2    S    
C61   O26   D    
C70   H46   S    
Ba1   O4    S    
C36   C47   S    
C52   C58   S    
C51   C52   S    
C5    C9    A    
C26   C27   A    
C24   C25   A    
C63   C74   S    
C32   C38   A    
Ba2   O6    S    
C25   H7    S    
C33   C35   A    
C65   H37   S    
C22   C24   A    
C73   H51   S    
C15   C75   A    
C6    H35   S    
Ba2   O40   S    
C45   C61   S    
C36   C37   A    
C40   C53   S    
O23   P3    S    
C54   H11   S    
C13   C14   A    
C9    C22   A    
O16   P3    S    
C64   O29   D    
C67   C74   S    
C32   C33   A    
C66   H40   S    
O15   P2    D    
C48   H8    S    
Ba2   O43   S    
C67   H32   S    
C29   C30   A    
O40   P8    S    
C6    C7    A    
C45   H28   S    
C69   O33   D    
O3    P5    S    
C14   C20   A    
C21   C22   A    
C60   O25   D    
Ba1   O16   S    
C57   H17   S    
C54   O19   D    
C7    C8    A    
C5    C75   A    
C51   H34   S    
C33   P2    S    
O34   P4    D    
C52   H45   S    
C16   C72   S    
C37   C69   S    
C13   P4    S    
C43   C70   S    
C70   O35   D    
C21   C68   S    
C59   H22   S    
Ba2   P4    S    
C52   H53   S    
C12   H19   S    
C57   O21   D    
C62   H31   S    
C44   C46   S    
C66   O31   D    
C56   C62   S    
O43   P5    S    
C4    C16   S    
O11   P6    D    
O7    P7    S    
C55   H13   S    
C51   H16   S    
C49   C50   S    
Ba2   O5    S    
O10   P6    S    
C23   O7    S    
C50   C55   S    
C68   O32   D    
C37   C38   A    
C3    C5    A    
C16   C60   S    
C49   O13   S    
C67   O9    S    
C43   C44   A    
C55   O20   D    
C11   H5    S    
O13   P1    S    
C34   H24   S    
C56   H29   S    
O12   P2    S    
C35   C36   A    
Ba1   O10   S    
C59   O24   D    
Ba2   O42   S    
C38   P3    S    
Ba1   P2    S    
C1    H20   S    
C4    H3    S    
C72   H50   S    
C39   C44   A    
C71   H47   S    
C62   O27   D    
C51   O12   S    
C2    C66   S    
C10   C11   A    
C17   C26   A    
Ba2   O34   S    
C1    C12   S    
O1    P1    D    
C18   C31   A    
C1    H25   S    
C46   C47   T    
C11   C13   A    
C29   P6    S    
C73   O38   D    
C50   H15   S    
C15   C24   A    
C71   O36   D    
C34   C59   S    
O5    P2    S    
C31   P1    S    
O41   P4    S    
C4    H42   S    
C56   H30   S    
O6    P7    D    
C42   C43   A    
O14   P6    S    
O42   P7    S    
C60   H26   S    
C42   C48   A    
C49   H23   S    
C30   H6    S    
C35   C71   S    
Ba1   O42   S    
C67   H56   S    
Ba2   O4    S    
C69   H44   S    
C26   C29   A    
C49   C54   S    
C61   H27   S    
Ba1   O15   S    
C74   H4    S    
C3    C6    A    
C41   C48   A    
C53   O18   D    
C28   H52   S    
Ba1   O39   S    
C1    C57   S    
C40   H12   S    
C30   C31   A    
O8    P8    D    
C53   H9    S    
C34   H55   S    
C12   O14   S    
C58   O22   D    
C2    C75   A    
C3    H39   S    
C8    C14   A    
C16   H49   S    
C45   C56   S    
C28   C73   S    
C45   O3    S    
O39   P4    S    
C10   P8    S    
C68   H41   S    
C32   H48   S    
Ba1   Ba2   S    
C41   P7    S    
C15   C17   A    
C12   H1    S    
C39   H43   S    
C27   H38   S    
C7    C10   A    
C63   H33   S    
C72   O37   D    
C8    C9    A    
C23   C34   S    
C58   H18   S    
C65   O30   D    
C23   H21   S    
O4    P1    S    
C18   C19   A    
C63   O28   D    
O2    P5    D    
C20   C21   A    
C28   C40   S    
C50   H14   S    
C40   H10   S    
Ba1   P1    S    
C42   P5    S    
C28   O41   S    
C4    O23   S    
Ba1   O5    S    
Ba1   O1    S    
Ba2   O39   S    
O17   P3    D    
C23   H54   S    
