data_mof_unit_5340.cif
_audit_creation_date              2012-10-26T20:14:28-0400
_audit_creation_method            fapswitch 2.2
_symmetry_space_group_name_H-M    P1
_symmetry_Int_Tables_number       1
_space_group_crystal_system       triclinic
_cell_length_a                    7.781371
_cell_length_b                    9.107789
_cell_length_c                    17.283966
_cell_angle_alpha                 89.988126
_cell_angle_beta                  86.954477
_cell_angle_gamma                 89.919765
_cell_volume                      1223.20216645

loop_
_atom_site_label
_atom_site_type_symbol
_atom_type_description
_atom_site_fract_x
_atom_site_fract_y
_atom_site_fract_z
_atom_type_partial_charge
C1    C     C_R   0.499928 0.780006 0.499992 0.553161
C2    C     C_R   0.372000 0.453992 0.228504 -0.121431
C3    C     C_R   0.628863 0.562488 0.851771 0.019696
C4    C     C_R   0.371144 0.437499 0.148229 0.019695
C5    C     C_R   0.471083 0.549225 0.895741 0.045339
C6    C     C_R   0.528923 0.450765 0.104259 0.045333
C7    C     C_R   0.317445 0.525009 0.859134 -0.137253
C8    C     C_R   0.682559 0.474986 0.140867 -0.137253
C9    C     C_R   0.318654 0.509980 0.779059 -0.139610
C10   C     C_R   0.681349 0.490019 0.220942 -0.139609
C11   C     C_2   0.462822 0.552917 0.980122 -0.144510
C12   C     C_R   0.500072 0.219994 0.500008 0.553161
C13   C     C_2   0.537186 0.447072 0.019879 -0.144509
C14   C     C_3   0.200909 0.408182 0.111976 -0.249594
C15   C     C_3   0.194285 0.254424 0.076093 -0.285756
C16   C     C_3   0.024258 0.230341 0.037905 -0.460440
C17   C     C_3   0.799101 0.591795 0.888022 -0.249595
C18   C     C_3   0.805733 0.745547 0.923913 -0.285766
C19   C     C_3   0.975783 0.769635 0.962079 -0.460457
C20   C     C_1   0.499900 0.934659 0.499998 -0.049530
C21   C     C_1   0.500100 0.065341 0.500002 -0.049530
C22   C     C_R   0.479562 0.503768 0.650481 0.539711
C23   C     C_R   0.520438 0.496231 0.349519 0.539710
C24   C     C_R   0.474333 0.518605 0.734907 0.003117
C25   C     C_R   0.525669 0.481393 0.265093 0.003117
C26   C     C_R   0.628003 0.546000 0.771496 -0.121431
Cu1   Cu    Cu3+1 0.330920 0.500000 0.500000 1.016214
Cu2   Cu    Cu3+1 0.669080 0.500000 0.500000 1.016214
H1    H     H_    0.197092 0.513478 0.893036 0.105002
H2    H     H_    0.003027 0.317944 0.994727 0.140444
H3    H     H_    0.027815 0.123440 0.007381 0.138720
H4    H     H_    0.300489 0.239364 0.031408 0.171577
H5    H     H_    0.208448 0.170116 0.121850 0.163075
H6    H     H_    0.092645 0.417706 0.156358 0.126292
H7    H     H_    0.176975 0.492856 0.067815 0.133346
H8    H     H_    0.997059 0.682021 0.005243 0.140443
H9    H     H_    0.084355 0.770455 0.917725 0.155614
H10   H     H_    0.972234 0.876522 0.992616 0.138718
H11   H     H_    0.699557 0.760590 0.968613 0.171581
H12   H     H_    0.802912 0.486519 0.106965 0.105004
H13   H     H_    0.791533 0.829862 0.878165 0.163082
H14   H     H_    0.823039 0.507113 0.932179 0.133342
H15   H     H_    0.907361 0.582276 0.843638 0.126296
H16   H     H_    0.748269 0.555470 0.737289 0.128541
H17   H     H_    0.251734 0.444521 0.262710 0.128540
H18   H     H_    0.801381 0.510152 0.248085 0.127130
H19   H     H_    0.198620 0.489850 0.751916 0.127129
H20   H     H_    0.610907 0.360349 0.990358 0.115350
H21   H     H_    0.389100 0.639638 0.009643 0.115350
H22   H     H_    0.915654 0.229549 0.082247 0.155604
N1    N     N_1   0.923170 0.500000 0.500010 -0.085764
N2    N     N_1   0.076830 0.500000 0.499990 -0.085764
O1    O     O_R   0.357240 0.711600 0.500000 -0.494752
O2    O     O_R   0.642760 0.288400 0.500000 -0.494752
O3    O     O_R   0.642760 0.711600 0.500000 -0.495785
O4    O     O_R   0.357240 0.288400 0.500000 -0.495785
O5    O     O_R   0.340660 0.500000 0.613590 -0.505999
O6    O     O_R   0.659340 0.500000 0.386410 -0.505999
O7    O     O_R   0.626230 0.500000 0.613600 -0.511887
O8    O     O_R   0.373770 0.500000 0.386400 -0.511886

loop_
_geom_bond_atom_site_label_1
_geom_bond_atom_site_label_2
_ccdc_geom_bond_type
C14   H6    S    
C13   H20   S    
C2    C4    A    
C18   H11   S    
Cu1   O1    S    
C9    C24   A    
C10   H18   S    
C7    H1    S    
C19   H10   S    
Cu2   O6    S    
C23   O6    A    
C8    H12   S    
Cu1   O8    S    
C22   O5    A    
C17   H15   S    
C17   C18   S    
C1    O3    A    
C26   H16   S    
C15   H4    S    
Cu1   N2    S    
C6    C13   S    
C11   C13   D    
C17   H14   S    
C12   O4    A    
C3    C17   S    
C11   H21   S    
C6    C8    A    
C10   C25   A    
C4    C6    A    
Cu2   O3    S    
C24   C26   A    
C5    C11   S    
C2    C25   A    
C5    C7    A    
C19   H8    S    
C23   C25   S    
C2    H17   S    
C4    C14   S    
C23   O8    A    
C16   H22   S    
Cu2   N1    S    
C22   C24   S    
Cu2   O7    S    
C9    H19   S    
C16   H2    S    
N1    N2    T    
C22   O7    A    
C20   C21   T    
C8    C10   A    
C18   C19   S    
Cu1   O5    S    
C18   H13   S    
Cu1   Cu2   S    
C7    C9    A    
Cu2   O2    S    
Cu1   O4    S    
C1    C20   S    
C1    O1    A    
C19   H9    S    
C3    C5    A    
C14   C15   S    
C12   C21   S    
C14   H7    S    
C3    C26   A    
C12   O2    A    
C15   C16   S    
C15   H5    S    
C16   H3    S    
