data_mof_unit_37655.cif
_audit_creation_date              2012-12-10T17:42:39-0500
_audit_creation_method            fapswitch 2.2
_symmetry_space_group_name_H-M    P1
_symmetry_Int_Tables_number       1
_space_group_crystal_system       triclinic
_cell_length_a                    10.017205
_cell_length_b                    10.686859
_cell_length_c                    13.089049
_cell_angle_alpha                 92.521498
_cell_angle_beta                  71.58972
_cell_angle_gamma                 89.332439
_cell_volume                      1327.73015045

loop_
_atom_site_label
_atom_site_type_symbol
_atom_type_description
_atom_site_fract_x
_atom_site_fract_y
_atom_site_fract_z
_atom_type_partial_charge
C1    C     C_R   0.501129 0.738790 0.494855 1.054323
C2    C     C_R   0.449295 0.407339 0.971360 0.060221
C3    C     C_R   0.490466 0.403819 0.858019 -0.015225
C4    C     C_R   0.553858 0.428749 0.021329 -0.020719
C5    C     C_R   0.697589 0.430426 0.958110 -0.055803
C6    C     C_R   0.736669 0.394990 0.848976 -0.295461
C7    C     C_R   0.634089 0.376427 0.799937 0.665162
C8    C     C_R   0.518477 0.458341 0.131195 -0.083682
C9    C     C_R   0.762582 0.490702 0.116152 -0.278766
C10   C     C_R   0.386620 0.431441 0.808714 -0.134655
C11   C     C_R   0.472734 0.863018 0.304304 0.502305
C12   C     C_R   0.425182 0.479948 0.700041 0.968276
C13   C     C_R   0.465068 0.925312 0.215008 0.585118
C14   C     C_R   0.474030 0.054370 0.213832 -0.388017
C15   C     C_R   0.489014 0.122494 0.302320 0.539305
C16   C     C_R   0.494094 0.061782 0.395556 -0.158436
C17   C     C_R   0.488546 0.930001 0.395887 -0.197837
C18   C     C_R   0.501815 0.870992 0.487398 -0.134031
C19   C     C_R   0.517188 0.938742 0.575854 -0.203568
C20   C     C_R   0.517783 0.066658 0.577072 0.615638
C21   C     C_R   0.506481 0.127771 0.488298 -0.180041
C22   C     C_R   0.794176 0.643020 0.664768 0.559441
C23   C     C_R   0.501774 0.260686 0.497253 1.016305
C24   C     C_R   0.825780 0.691119 0.754028 -0.444678
C25   C     C_R   0.962124 0.689609 0.754543 0.583278
C26   C     C_R   0.068015 0.640274 0.665356 0.522295
C27   C     C_R   0.038160 0.568248 0.581063 -0.137099
C28   C     C_R   0.893957 0.568896 0.580837 -0.001506
C29   C     C_R   0.961309 0.434977 0.423574 -0.063419
C30   C     C_R   0.103546 0.435139 0.423507 -0.052791
C31   C     C_R   0.577488 0.499021 0.296404 1.056014
C32   C     C_R   0.799738 0.466150 0.005344 0.673402
C33   C     C_R   0.621685 0.484607 0.179361 -0.075888
C34   C     C_R   0.244475 0.419235 0.867339 -0.066812
C35   C     C_R   0.204972 0.393947 0.976113 -0.048550
C36   C     C_R   0.305225 0.393334 0.029191 -0.154279
H1    H     H_    0.267627 0.378658 0.114484 0.123654
N1    N     N_R   0.856860 0.501200 0.500990 -0.063594
N2    N     N_R   0.142450 0.501280 0.501020 -0.072315
O1    O     O_R   0.385310 0.683220 0.500000 -0.503329
O2    O     O_R   0.614640 0.683250 0.500010 -0.567371
O3    O     O_R   0.328400 0.499950 0.653610 -0.583717
O4    O     O_R   0.557730 0.499970 0.653620 -0.522822
O5    O     O_R   0.385360 0.316750 0.499990 -0.615278
O6    O     O_R   0.614690 0.316780 0.500000 -0.565971
O7    O     O_R   0.442270 0.500030 0.346380 -0.565792
O8    O     O_R   0.671600 0.500050 0.346390 -0.662038
Zn1   Zn    Zn3+2 0.346880 0.499980 0.499990 1.074841
Zn2   Zn    Zn3+2 0.653120 0.500020 0.500010 1.073938
H2    H     H_    0.843126 0.514976 0.152084 0.177119
F1    F     F_    0.464054 0.737515 0.298944 -0.669110
F2    F     F_    0.450443 0.859566 0.128286 -0.594598
H3    H     H_    0.470157 0.102257 0.143542 0.220363
F3    F     F_    0.502284 0.247234 0.293560 -0.707482
F4    F     F_    0.524472 0.131390 0.666832 -0.621914
H4    H     H_    0.935197 0.381350 0.360775 0.128982
F5    F     F_    0.671936 0.688079 0.659352 -0.631188
H5    H     H_    0.745816 0.742127 0.818560 0.256244
F6    F     F_    0.994520 0.751633 0.835990 -0.558492
F7    F     F_    0.194983 0.682349 0.659389 -0.591412
H6    H     H_    0.846504 0.382315 0.801109 0.201446
H7    H     H_    0.182816 0.381557 0.360645 0.142964
F8    F     F_    0.933691 0.482881 0.943389 -0.707731
H8    H     H_    0.409846 0.462767 0.180696 0.173689
H9    H     H_    0.164869 0.429309 0.828390 0.214718
H10   H     H_    0.095820 0.380394 0.021180 0.183597
F9    F     F_    0.676016 0.323692 0.698328 -0.603552
H11   H     H_    0.525208 0.892134 0.645709 0.226336

loop_
_geom_bond_atom_site_label_1
_geom_bond_atom_site_label_2
_ccdc_geom_bond_type
C29   N1    A    
C1    O2    A    
C2    C4    A    
C31   C33   S    
C16   C21   A    
C23   O6    A    
C29   H4    S    
C28   N1    A    
C12   O4    A    
C13   F2    S    
C19   C20   A    
C1    O1    A    
O6    Zn2   S    
C4    C8    A    
C5    C32   A    
C22   F5    S    
C21   C23   S    
C2    C3    A    
C1    C18   S    
O4    Zn2   S    
C19   H11   S    
O8    Zn2   S    
C3    C10   A    
O3    Zn1   S    
C13   C14   A    
C24   C25   A    
C9    C33   A    
C11   C13   A    
C26   C27   A    
C29   C30   A    
C10   C12   S    
C8    H8    S    
C20   F4    S    
C24   H5    S    
C34   H9    S    
O2    Zn2   S    
C36   H1    S    
C31   O8    A    
C30   N2    A    
C17   C18   A    
C6    C7    A    
C3    C7    A    
C8    C33   A    
C30   H7    S    
C5    C6    A    
C16   C17   A    
O7    Zn1   S    
C9    C32   A    
C22   C28   A    
C11   F1    S    
C9    H2    S    
C7    F9    S    
C15   C16   A    
C15   F3    S    
C14   H3    S    
C20   C21   A    
C6    H6    S    
C10   C34   A    
C34   C35   A    
C22   C24   A    
C2    C36   A    
C27   C28   A    
N1    Zn2   S    
O1    Zn1   S    
C14   C15   A    
C18   C19   A    
C12   O3    A    
C25   F6    S    
C35   H10   S    
C25   C26   A    
C26   F7    S    
C31   O7    A    
C11   C17   A    
C23   O5    A    
O5    Zn1   S    
C32   F8    S    
C27   N2    A    
C4    C5    A    
N2    Zn1   S    
C35   C36   A    
