data_mof_unit_24694.cif
_audit_creation_date              2012-12-10T17:22:08-0500
_audit_creation_method            fapswitch 2.2
_symmetry_space_group_name_H-M    P1
_symmetry_Int_Tables_number       1
_space_group_crystal_system       triclinic
_cell_length_a                    10.125081
_cell_length_b                    10.684962
_cell_length_c                    15.745778
_cell_angle_alpha                 90.117667
_cell_angle_beta                  81.849551
_cell_angle_gamma                 95.809937
_cell_volume                      1677.47508512

loop_
_atom_site_label
_atom_site_type_symbol
_atom_type_description
_atom_site_fract_x
_atom_site_fract_y
_atom_site_fract_z
_atom_type_partial_charge
C1    C     C_R   0.556675 0.733666 0.497341 0.780118
C2    C     C_3   0.371549 0.558613 0.059765 0.161517
C3    C     C_3   0.495154 0.496177 0.083098 0.023592
C4    C     C_3   0.487453 0.357334 0.051058 0.077327
C5    C     C_3   0.495781 0.360094 0.951320 0.291990
C6    C     C_1   0.495318 0.497415 0.174728 0.044514
C7    C     C_1   0.502086 0.498863 0.825267 0.060784
C8    C     C_1   0.502496 0.499425 0.750041 -0.183152
C9    C     C_2   0.589567 0.868013 0.507798 0.290456
C10   C     C_2   0.491946 0.932664 0.546664 -0.201238
C11   C     C_2   0.409872 0.133805 0.529629 0.268392
C12   C     C_R   0.500819 0.499999 0.661504 0.875981
C13   C     C_2   0.508753 0.067889 0.547173 -0.256773
C14   C     C_2   0.925107 0.494588 0.515891 -0.265325
C15   C     C_2   0.071450 0.474828 0.501676 0.478050
C16   C     C_R   0.443400 0.266713 0.510037 0.833676
C17   C     C_R   0.499139 0.499869 0.338447 0.907661
C18   C     C_3   0.378641 0.567444 0.960187 0.367914
C19   C     C_3   0.629970 0.571937 0.939215 -0.553478
C20   C     C_3   0.626021 0.573632 0.038133 0.240692
C21   C     C_1   0.496763 0.498674 0.249854 -0.177411
C22   C     C_3   0.499045 0.498480 0.916873 -0.023859
H1    H     H_    0.285004 0.519472 0.941076 -0.008081
H2    H     H_    0.277537 0.498702 0.085324 0.106523
H3    H     H_    0.575775 0.312486 0.067354 0.111694
H4    H     H_    0.608293 0.113527 0.552252 0.203087
H5    H     H_    0.392122 0.886957 0.568701 0.180817
H6    H     H_    0.887634 0.551817 0.569229 0.161380
H7    H     H_    0.121186 0.625032 0.569602 0.103866
H8    H     H_    0.881057 0.402792 0.411546 0.181415
H9    H     H_    0.719402 0.528529 0.907546 0.179322
H10   H     H_    0.641575 0.670200 0.913856 0.238181
H11   H     H_    0.623858 0.673218 0.058739 0.218916
H12   H     H_    0.598475 0.333676 0.928575 0.097526
N1    N     N_2   0.842720 0.448890 0.465540 -0.186835
N2    N     N_2   0.157250 0.551040 0.534500 -0.194143
O1    O     O_R   0.431050 0.692470 0.506940 -0.632844
O2    O     O_R   0.651130 0.659650 0.484820 -0.581856
O3    O     O_R   0.389910 0.516410 0.633920 -0.622001
O4    O     O_R   0.609990 0.483590 0.611800 -0.607914
O5    O     O_R   0.348870 0.340350 0.515180 -0.540208
O6    O     O_R   0.568950 0.307530 0.493060 -0.635166
O7    O     O_R   0.390010 0.516410 0.388200 -0.558472
O8    O     O_R   0.610090 0.483590 0.366080 -0.601644
Zn1   Zn    Zn3+2 0.353060 0.521920 0.514770 0.991500
Zn2   Zn    Zn3+2 0.646940 0.478080 0.485230 0.956587
O9    O     O_3   0.366944 0.679200 0.095928 -0.733782
H13   H     H_    0.315526 0.668454 0.154453 0.336258
O10   O     O_3   0.284102 0.076028 0.519882 -0.587258
C23   C     C_3   0.198452 0.082619 0.598411 0.086196
H14   H     H_    0.189640 0.181968 0.618082 0.159179
H15   H     H_    0.235625 0.031028 0.650210 0.126965
C24   C     C_3   0.059155 0.022144 0.588010 -0.756913
H16   H     H_    0.064007 0.922587 0.568452 0.250572
H17   H     H_    0.991303 0.024983 0.649765 0.202518
H18   H     H_    0.017836 0.073998 0.538406 0.266231
O11   O     O_3   0.718728 0.925509 0.484398 -0.605725
C25   C     C_3   0.748621 0.929001 0.394091 0.097491
H19   H     H_    0.671116 0.974333 0.364756 0.143298
H20   H     H_    0.755996 0.832616 0.368092 0.155981
C26   C     C_3   0.883068 0.006114 0.368416 -0.782425
H21   H     H_    0.963328 0.961944 0.395052 0.265504
H22   H     H_    0.907377 0.010642 0.297406 0.212577
H23   H     H_    0.878886 0.103259 0.393282 0.244322
O12   O     O_3   0.118000 0.375424 0.454332 -0.704040
H24   H     H_    0.042307 0.309594 0.452632 0.308754
O13   O     O_3   0.397281 0.695574 0.932082 -0.558682
C27   C     C_3   0.274209 0.739800 0.920150 0.153249
H25   H     H_    0.198977 0.724031 0.978966 0.164065
H26   H     H_    0.234253 0.691474 0.865011 0.115028
C28   C     C_3   0.297133 0.880301 0.900436 -0.772845
H27   H     H_    0.370338 0.898687 0.841172 0.250267
H28   H     H_    0.201083 0.916126 0.890741 0.189466
H29   H     H_    0.336600 0.931147 0.954627 0.280051
O14   O     O_3   0.742903 0.532265 0.063013 -0.766278
H30   H     H_    0.757939 0.450464 0.035431 0.325740
O15   O     O_3   0.414722 0.265104 0.912733 -0.592658
C29   C     C_3   0.274253 0.262217 0.935864 0.252380
H31   H     H_    0.240615 0.331847 0.983808 0.145091
H32   H     H_    0.236887 0.168430 0.964973 0.179942
C30   C     C_3   0.208073 0.276221 0.855839 -0.958463
H33   H     H_    0.237363 0.203104 0.808567 0.262142
H34   H     H_    0.097316 0.265049 0.873264 0.219251
H35   H     H_    0.238759 0.370509 0.825989 0.257115
O16   O     O_3   0.370985 0.286002 0.091166 -0.784598
H36   H     H_    0.389572 0.257755 0.147937 0.350959

loop_
_geom_bond_atom_site_label_1
_geom_bond_atom_site_label_2
_ccdc_geom_bond_type
C10   H5    S    
C2    C18   S    
C19   C20   S    
C3    C6    S    
C19   H9    S    
C4    H3    S    
C7    C8    T    
C24   H16   S    
O4    Zn2   S    
H7    N2    S    
H8    N1    S    
O16   H36   S    
C29   H32   S    
C25   H20   S    
C15   O12   S    
O6    Zn2   S    
C26   H22   S    
C5    C22   S    
C27   H25   S    
C23   H15   S    
C9    C10   D    
C1    O1    A    
O3    Zn1   S    
C25   C26   S    
C19   H10   S    
C30   H34   S    
O8    Zn2   S    
C30   H33   S    
C24   H17   S    
C23   C24   S    
O13   C27   S    
N2    Zn1   S    
C19   C22   S    
C1    C9    S    
C14   N1    D    
C28   H28   S    
C29   H31   S    
C4    O16   S    
C25   H19   S    
O15   C29   S    
C6    C21   T    
C17   C21   S    
C18   H1    S    
C20   O14   S    
C12   O4    A    
C26   H23   S    
O14   H30   S    
C17   O7    A    
C11   O10   S    
C11   C16   S    
O9    H13   S    
C8    C12   S    
C5    H12   S    
C23   H14   S    
C3    C20   S    
O7    Zn1   S    
C1    O2    A    
C20   H11   S    
O10   C23   S    
C2    H2    S    
C13   H4    S    
C5    O15   S    
C3    C4    S    
C16   O6    A    
C15   N2    D    
C30   H35   S    
C24   H18   S    
C18   C22   S    
C4    C5    S    
C10   C13   S    
C28   H29   S    
C2    O9    S    
C7    C22   S    
C12   O3    A    
C2    C3    S    
C18   O13   S    
C17   O8    A    
C28   H27   S    
C11   C13   D    
C29   C30   S    
O11   C25   S    
C27   C28   S    
C9    O11   S    
C26   H21   S    
O2    Zn2   S    
C27   H26   S    
O12   H24   S    
O5    Zn1   S    
C14   C15   S    
C14   H6    S    
N1    Zn2   S    
O1    Zn1   S    
C16   O5    A    
