data_mof_unit_41480.cif
_audit_creation_date              2012-12-11T16:24:00-0500
_audit_creation_method            fapswitch 2.2
_symmetry_space_group_name_H-M    P1
_symmetry_Int_Tables_number       1
_space_group_crystal_system       triclinic
_cell_length_a                    14.751676
_cell_length_b                    14.755164
_cell_length_c                    33.26907
_cell_angle_alpha                 96.107018
_cell_angle_beta                  96.049446
_cell_angle_gamma                 61.160907
_cell_volume                      6295.19252019

loop_
_atom_site_label
_atom_site_type_symbol
_atom_type_description
_atom_site_fract_x
_atom_site_fract_y
_atom_site_fract_z
_atom_type_partial_charge
C1    C     C_R   0.391266 0.699826 0.446187 0.584813
C2    C     C_1   0.304314 0.343435 0.230201 0.061953
C3    C     C_3   0.903088 0.519286 0.361695 0.006219
C4    C     C_3   0.798546 0.596827 0.341909 -0.245201
C5    C     C_3   0.777705 0.708172 0.352438 -0.413989
C6    C     C_3   0.812635 0.158974 0.043041 0.022771
C7    C     C_3   0.723683 0.144956 0.055580 -0.272645
C8    C     C_3   0.633152 0.181837 0.023634 -0.467655
C9    C     C_3   0.142295 0.941372 0.435732 0.045761
C10   C     C_3   0.196858 0.938398 0.477868 -0.288670
C11   C     C_3   0.146666 0.044023 0.501135 -0.489671
C12   C     C_3   0.565423 0.753304 0.159493 -0.002639
C13   C     C_1   0.310704 0.346539 0.266515 0.022832
C14   C     C_3   0.558673 0.678258 0.186172 -0.255527
C15   C     C_3   0.651392 0.570250 0.181898 -0.460260
C16   C     C_3   0.429081 0.129907 0.562473 0.006090
C17   C     C_3   0.502221 0.033909 0.537311 -0.242110
C18   C     C_3   0.448209 0.971977 0.518625 -0.467374
C19   C     C_3   0.617241 0.733239 0.617817 0.016489
C20   C     C_3   0.668099 0.800996 0.632282 -0.282751
C21   C     C_3   0.779089 0.736023 0.649383 -0.461653
C22   C     C_3   0.081984 0.901090 0.793902 0.002033
C23   C     C_3   0.017077 0.853314 0.805218 -0.257025
C24   C     C_R   0.405692 0.386054 0.434132 0.541512
C25   C     C_3   0.901892 0.931895 0.804308 -0.486697
C26   C     C_R   0.287305 0.293325 0.102785 -0.021558
C27   C     C_R   0.760191 0.368331 0.411140 -0.073529
C28   C     C_R   0.821438 0.409108 0.399990 -0.132209
C29   C     C_R   0.862689 0.382201 0.361381 0.224963
C30   C     C_R   0.841598 0.312435 0.334466 0.058793
C31   C     C_R   0.788222 0.264827 0.347643 0.349838
C32   C     C_R   0.748253 0.292620 0.385540 -0.106888
C33   C     C_R   0.323520 0.347960 0.309713 0.037062
C34   C     C_R   0.870504 0.295145 0.209819 0.330632
C35   C     C_R   0.861538 0.300912 0.291140 0.404594
C36   C     C_R   0.885849 0.372698 0.150244 -0.153107
C37   C     C_R   0.701077 0.409465 0.447634 0.561094
C38   C     C_R   0.902964 0.367753 0.109853 -0.183018
C39   C     C_R   0.891023 0.208171 0.098031 0.257440
C40   C     C_R   0.875434 0.213014 0.139255 -0.081632
C41   C     C_R   0.876088 0.293578 0.165808 -0.005867
C42   C     C_R   0.913159 0.282232 0.083916 0.014139
C43   C     C_R   0.370819 0.760866 0.410746 -0.090555
C44   C     C_R   0.410474 0.267364 0.328151 -0.077605
C45   C     C_R   0.268753 0.823683 0.394992 0.209748
C46   C     C_R   0.252692 0.861389 0.356442 0.323518
C47   C     C_R   0.337532 0.842624 0.334775 -0.053842
C48   C     C_R   0.438201 0.790955 0.352862 0.339284
C49   C     C_R   0.392749 0.702327 0.561077 0.545561
C50   C     C_R   0.454906 0.749958 0.390305 0.333361
C51   C     C_R   0.316930 0.872215 0.210430 0.326547
C52   C     C_R   0.323326 0.863894 0.291763 0.405762
C53   C     C_R   0.224656 0.884441 0.142971 -0.165427
C54   C     C_R   0.212138 0.901480 0.102096 -0.137377
C55   C     C_R   0.433018 0.275683 0.369691 -0.115142
C56   C     C_R   0.380586 0.892908 0.105112 -0.130918
C57   C     C_R   0.395505 0.871927 0.146228 0.272282
C58   C     C_R   0.313360 0.875548 0.166046 0.040040
C59   C     C_R   0.287135 0.912215 0.083318 -0.023719
C60   C     C_R   0.368655 0.370925 0.584891 0.024998
C61   C     C_R   0.406721 0.388794 0.548856 0.558540
C62   C     C_R   0.294071 0.457145 0.606726 -0.182797
C63   C     C_R   0.273742 0.448242 0.645528 -0.137425
C64   C     C_R   0.328281 0.353183 0.663493 -0.006823
C65   C     C_R   0.395617 0.264761 0.640477 -0.106998
C66   C     C_R   0.390436 0.270703 0.166800 0.397593
C67   C     C_R   0.413991 0.272430 0.600802 0.250192
C68   C     C_R   0.317759 0.345650 0.788072 0.346914
C69   C     C_R   0.321492 0.348442 0.706938 0.351743
C70   C     C_R   0.220151 0.403886 0.850855 -0.117468
C71   C     C_R   0.209176 0.384930 0.889760 -0.131513
C72   C     C_R   0.386267 0.245298 0.892162 -0.131842
C73   C     C_R   0.701481 0.413457 0.562635 0.537942
C74   C     C_R   0.397009 0.263881 0.853276 -0.122348
C75   C     C_R   0.312525 0.340063 0.831585 0.035997
C76   C     C_R   0.290593 0.302133 0.909901 0.021928
C77   C     C_R   0.384505 0.245766 0.124926 0.267853
C78   C     C_R   0.754859 0.379666 0.602690 -0.038305
C79   C     C_R   0.788979 0.441453 0.627884 -0.102242
C80   C     C_R   0.817964 0.421924 0.668730 0.387992
C81   C     C_R   0.813992 0.339778 0.684643 0.049971
C82   C     C_R   0.786860 0.273857 0.659189 -0.178633
C83   C     C_R   0.757779 0.293357 0.618445 -0.145192
C84   C     C_R   0.890937 0.212619 0.822118 -0.122249
C85   C     C_R   0.368904 0.365268 0.393067 0.014345
C86   C     C_R   0.917623 0.200714 0.863520 -0.132651
C87   C     C_R   0.871438 0.382776 0.873698 -0.127700
C88   C     C_R   0.198745 0.364543 0.123324 -0.192969
C89   C     C_R   0.844716 0.394394 0.832353 -0.102055
C90   C     C_R   0.857291 0.308725 0.806385 0.039810
C91   C     C_1   0.842159 0.318220 0.763412 -0.003257
C92   C     C_1   0.830389 0.327171 0.727441 0.040139
C93   C     C_R   0.911445 0.285026 0.889522 0.020990
C94   C     C_R   0.373275 0.756755 0.601804 0.033486
C95   C     C_R   0.291986 0.762051 0.622383 -0.176618
C96   C     C_R   0.283591 0.791467 0.663440 -0.128609
C97   C     C_R   0.277359 0.442305 0.374694 -0.117016
C98   C     C_R   0.355054 0.817729 0.684649 -0.004774
C99   C     C_R   0.204884 0.383534 0.165104 -0.192455
C100  C     C_R   0.431624 0.820812 0.664260 -0.100124
C101  C     C_R   0.442417 0.789088 0.622719 0.255978
C102  C     C_R   0.395889 0.889637 0.832624 -0.165357
C103  C     C_R   0.376111 0.915667 0.873448 -0.144129
C104  C     C_R   0.230181 0.881178 0.862737 -0.117061
C105  C     C_R   0.247913 0.857684 0.821276 0.285723
C106  C     C_R   0.330890 0.862866 0.806442 0.052157
C107  C     C_1   0.344638 0.847871 0.763776 0.026851
C108  C     C_1   0.351563 0.835665 0.727737 -0.004665
C109  C     C_R   0.255039 0.433748 0.333112 -0.103023
C110  C     C_R   0.300106 0.334722 0.186904 0.012285
C111  C     C_R   0.290984 0.914972 0.888625 -0.023317
C112  C     C_R   0.963974 0.264363 0.045834 0.544202
C113  C     C_R   0.272195 0.259178 0.060309 0.566230
C114  C     C_R   0.257909 0.960954 0.044246 0.547338
C115  C     C_R   0.962838 0.267543 0.930675 0.536926
C116  C     C_R   0.271081 0.263986 0.945397 0.546623
C117  C     C_R   0.256379 0.964919 0.928984 0.546172
C118  C     C_3   0.509590 0.076836 0.115527 0.053803
C119  C     C_3   0.618124 0.008686 0.100555 -0.257149
C120  C     C_3   0.663789 0.896988 0.112032 -0.475411
Cr1   Cr    Cr6+3 0.576280 0.580550 0.506370 1.066217
Cr2   Cr    Cr6+3 0.346780 0.572400 0.496520 1.022039
Cr3   Cr    Cr6+3 0.576960 0.347070 0.497150 1.032968
Cr4   Cr    Cr6+3 0.087320 0.083240 0.984860 1.024916
Cr5   Cr    Cr6+3 0.087720 0.316210 0.996740 1.008006
Cr6   Cr    Cr6+3 0.317350 0.090340 0.995890 1.007894
F1    F     F_    0.767132 0.197189 0.322845 -0.587356
F2    F     F_    0.554510 0.692773 0.404840 -0.593540
F3    F     F_    0.483853 0.229868 0.188086 -0.612470
F4    F     F_    0.154383 0.913959 0.339885 -0.573184
F5    F     F_    0.521801 0.770868 0.332615 -0.610485
F6    F     F_    0.845203 0.485894 0.693076 -0.649627
H1    H     H_    0.702301 0.258950 0.393765 0.169018
H2    H     H_    0.220334 0.517498 0.662356 0.149149
H3    H     H_    0.436424 0.189995 0.653510 0.138145
H4    H     H_    0.463633 0.200515 0.310124 0.162819
H5    H     H_    0.154090 0.464022 0.834988 0.138483
H6    H     H_    0.450922 0.181913 0.907207 0.126558
H7    H     H_    0.469927 0.215010 0.839482 0.130995
H8    H     H_    0.948913 0.124268 0.874653 0.120805
H9    H     H_    0.900561 0.146094 0.802124 0.098206
H10   H     H_    0.783976 0.209902 0.671198 0.124106
H11   H     H_    0.732068 0.244119 0.599916 0.159623
H12   H     H_    0.916423 0.427584 0.099910 0.139338
H13   H     H_    0.788688 0.507633 0.616532 0.125480
H14   H     H_    0.818287 0.469228 0.820416 0.129836
H15   H     H_    0.865844 0.449132 0.892881 0.127032
H16   H     H_    0.503919 0.215029 0.382941 0.145717
H17   H     H_    0.424471 0.941354 0.892621 0.140435
H18   H     H_    0.459560 0.894234 0.821169 0.120739
H19   H     H_    0.484203 0.845239 0.680788 0.112293
H20   H     H_    0.237792 0.737692 0.607356 0.136989
H21   H     H_    0.165876 0.877857 0.874178 0.126331
H22   H     H_    0.223358 0.790018 0.678998 0.137029
H23   H     H_    0.886016 0.436311 0.169651 0.139722
H24   H     H_    0.226267 0.512059 0.391920 0.141799
H25   H     H_    0.134745 0.433761 0.180539 0.138555
H26   H     H_    0.122920 0.401127 0.107513 0.154458
H27   H     H_    0.187289 0.496233 0.318976 0.125473
H28   H     H_    0.835199 0.461834 0.421546 0.137880
H29   H     H_    0.456729 0.047829 0.100632 0.146378
H30   H     H_    0.513962 0.069994 0.148766 0.202716
H31   H     H_    0.614837 0.009545 0.067074 0.155903
H32   H     H_    0.669750 0.040429 0.114339 0.191628
H33   H     H_    0.667684 0.894208 0.145425 0.183373
H34   H     H_    0.865259 0.152479 0.150513 0.156827
H35   H     H_    0.743538 0.851047 0.101522 0.144569
H36   H     H_    0.616211 0.861566 0.097435 0.140287
H37   H     H_    0.964044 0.533396 0.351240 0.161665
H38   H     H_    0.907225 0.533369 0.395066 0.119390
H39   H     H_    0.799497 0.581692 0.308478 0.198056
H40   H     H_    0.734407 0.587935 0.352415 0.233033
H41   H     H_    0.772023 0.726481 0.385637 0.172495
H42   H     H_    0.703605 0.762572 0.336848 0.236210
H43   H     H_    0.840822 0.719515 0.342406 0.144042
H44   H     H_    0.842227 0.109992 0.014776 0.153775
H45   H     H_    0.139494 0.914280 0.086095 0.172967
H46   H     H_    0.782782 0.240827 0.035371 0.107585
H47   H     H_    0.752614 0.061496 0.059624 0.161620
H48   H     H_    0.696136 0.189639 0.084836 0.190684
H49   H     H_    0.602893 0.265360 0.019204 0.153309
H50   H     H_    0.569513 0.171433 0.033646 0.197799
H51   H     H_    0.658288 0.136303 0.994361 0.134001
H52   H     H_    0.059180 0.967394 0.439487 0.169979
H53   H     H_    0.144068 0.000419 0.417901 0.156169
H54   H     H_    0.193266 0.880285 0.495413 0.194371
H55   H     H_    0.279576 0.915287 0.474844 0.144804
H56   H     H_    0.161767 0.883934 0.156885 0.159280
H57   H     H_    0.151064 0.102974 0.484439 0.150689
H58   H     H_    0.188290 0.039135 0.531323 0.152462
H59   H     H_    0.064194 0.068514 0.505514 0.155141
H60   H     H_    0.641331 0.751720 0.166912 0.157133
H61   H     H_    0.564699 0.726544 0.126857 0.109026
H62   H     H_    0.556637 0.707523 0.218425 0.222595
H63   H     H_    0.486691 0.672666 0.177387 0.161406
H64   H     H_    0.656450 0.539192 0.149822 0.150549
H65   H     H_    0.642964 0.517227 0.200699 0.188796
H66   H     H_    0.723796 0.573345 0.192523 0.158959
H67   H     H_    0.440356 0.897574 0.090703 0.107327
H68   H     H_    0.360859 0.179437 0.542406 0.127521
H69   H     H_    0.402404 0.104135 0.587005 0.132950
H70   H     H_    0.529875 0.058046 0.512703 0.180316
H71   H     H_    0.570558 0.983688 0.556930 0.173140
H72   H     H_    0.419993 0.946756 0.542664 0.185131
H73   H     H_    0.503624 0.902051 0.501056 0.170803
H74   H     H_    0.381510 0.019836 0.497860 0.138316
H75   H     H_    0.661783 0.678363 0.592932 0.174277
H76   H     H_    0.623033 0.685078 0.642699 0.133183
H77   H     H_    0.669011 0.842438 0.606450 0.169713
H78   H     H_    0.256152 0.533504 0.595021 0.139905
H79   H     H_    0.622608 0.859758 0.656069 0.165611
H80   H     H_    0.779793 0.695960 0.675946 0.208291
H81   H     H_    0.814190 0.787146 0.659225 0.148059
H82   H     H_    0.826550 0.677434 0.625927 0.156365
H83   H     H_    0.058389 0.925231 0.762320 0.148554
H84   H     H_    0.064307 0.973234 0.813526 0.110593
H85   H     H_    0.028869 0.786318 0.783552 0.189267
H86   H     H_    0.042863 0.824609 0.836101 0.164339
H87   H     H_    0.887656 0.996725 0.827399 0.142345
H88   H     H_    0.856919 0.893645 0.811231 0.154518
H89   H     H_    0.134710 0.430464 0.902812 0.130618
H90   H     H_    0.874468 0.963102 0.773872 0.149711
N1    N     N_R   0.866638 0.376713 0.234062 -0.255426
N2    N     N_R   0.388468 0.887995 0.275085 -0.154752
N3    N     N_R   0.384711 0.892937 0.235214 -0.161661
N4    N     N_R   0.243422 0.426596 0.767688 -0.219850
N5    N     N_R   0.245712 0.428297 0.727919 -0.214281
N6    N     N_R   0.395511 0.267395 0.727314 -0.236356
N7    N     N_R   0.393494 0.265921 0.767074 -0.236632
N8    N     N_R   0.861600 0.379833 0.273795 -0.201029
N9    N     N_R   0.866818 0.218390 0.266975 -0.095981
N10   N     N_R   0.871681 0.215268 0.227069 -0.198903
N11   N     N_R   0.250200 0.850542 0.227278 -0.236988
N12   N     N_R   0.253589 0.846034 0.267135 -0.139117
O1    O     O_R   0.679450 0.499830 0.463150 -0.467472
O2    O     O_R   0.340240 0.172500 0.045430 -0.490126
O3    O     O_R   0.309670 0.000990 0.032050 -0.509451
O4    O     O_R   0.480650 0.664000 0.464630 -0.439882
O5    O     O_R   0.168330 0.982130 0.939200 -0.522595
O6    O     O_R   0.000140 0.178170 0.944610 -0.509301
O7    O     O_R   0.983010 0.336750 0.948660 -0.519057
O8    O     O_R   0.181800 0.312190 0.959860 -0.499845
O9    O     O_R   0.338500 0.175680 0.956950 -0.523055
O10   O     O_R   0.308050 0.003930 0.950020 -0.500007
O11   O     O_3   0.164130 0.163270 0.992500 -0.240930
O12   O     O_R   0.356040 0.477400 0.534170 -0.519151
O13   O     O_R   0.323930 0.675950 0.455370 -0.474743
O14   O     O_R   0.354700 0.475360 0.451930 -0.499940
O15   O     O_R   0.494470 0.320860 0.448390 -0.520651
O16   O     O_R   0.662580 0.357570 0.460050 -0.510095
O17   O     O_R   0.680900 0.502040 0.551870 -0.536363
O18   O     O_R   0.481990 0.666040 0.546870 -0.466971
O19   O     O_R   0.325370 0.678160 0.544080 -0.542692
O20   O     O_3   0.474067 0.179963 0.105449 -0.551576
O21   O     O_3   0.929755 0.414869 0.349498 -0.548041
O22   O     O_3   0.895200 0.124631 0.073366 -0.563443
O23   O     O_R   0.495910 0.323070 0.537100 -0.461350
O24   O     O_3   0.184537 0.841191 0.415671 -0.503034
O25   O     O_3   0.486994 0.856403 0.167624 -0.555187
O26   O     O_3   0.482201 0.184775 0.578966 -0.554593
O27   O     O_3   0.515018 0.795903 0.601685 -0.579411
O28   O     O_3   0.188023 0.825103 0.795157 -0.562748
O29   O     O_R   0.663920 0.359620 0.542290 -0.498808
O30   O     O_3   0.500010 0.500010 0.500010 -0.256556
O31   O     O_R   0.170070 0.978950 0.027680 -0.501916
O32   O     O_R   0.001760 0.175230 0.026640 -0.461907
O33   O     O_R   0.984760 0.333570 0.037150 -0.534000
O34   O     O_R   0.183410 0.309240 0.041890 -0.508460

loop_
_geom_bond_atom_site_label_1
_geom_bond_atom_site_label_2
_ccdc_geom_bond_type
C8    H49   S    
C44   H4    S    
C113  O2    A    
C14   H63   S    
C23   H85   S    
C118  H29   S    
C7    C8    S    
C71   H89   S    
C4    H39   S    
C22   H84   S    
C5    H43   S    
C12   H61   S    
C6    C7    S    
C105  C106  A    
Cr5   O11   S    
C95   C96   A    
C31   F1    S    
C82   H10   S    
C5    H41   S    
N2    N3    A    
Cr2   O19   S    
C81   C82   A    
C57   C58   A    
C119  H32   S    
C52   N12   A    
C45   O24   S    
C79   H13   S    
C53   C54   A    
Cr3   O23   S    
C68   C75   S    
C29   C30   A    
C87   H15   S    
C30   C35   S    
C18   H73   S    
C80   F6    S    
C103  C111  A    
C28   C29   A    
C53   H56   S    
C84   C86   A    
Cr3   O15   S    
C101  O27   S    
Cr1   O30   S    
C30   C31   A    
C15   H65   S    
C68   N4    A    
C21   H80   S    
Cr1   O17   S    
C106  C107  S    
C73   O29   A    
C37   O16   A    
Cr4   O31   S    
C28   H28   S    
C98   C108  S    
C56   C57   A    
C60   C62   A    
C93   C115  S    
C20   H79   S    
Cr4   O11   S    
C17   H71   S    
C2    C13   T    
C42   C112  S    
C118  C119  S    
N6    N7    A    
C118  O20   S    
C76   C116  S    
C2    C110  S    
C115  O7    A    
C49   O18   A    
C78   C83   A    
C1    C43   S    
C96   H22   S    
C47   C48   A    
C94   C101  A    
Cr3   O29   S    
C16   C17   S    
C65   C67   A    
C11   H59   S    
C96   C98   A    
C51   N3    A    
C73   C78   S    
C48   F5    S    
Cr5   O7    S    
C70   C71   A    
C12   O25   S    
C88   H26   S    
C49   C94   S    
Cr6   O2    S    
C9    C10   S    
C40   H34   S    
C67   O26   S    
C16   H68   S    
N1    N8    A    
C72   C76   A    
Cr2   O12   S    
C66   F3    S    
C48   C50   A    
C14   H62   S    
C23   H86   S    
C5    H42   S    
C9    O24   S    
Cr5   O33   S    
Cr6   O11   S    
C19   H75   S    
C81   C92   S    
C36   C41   A    
C94   C95   A    
C34   C41   S    
C84   C90   A    
C69   N5    A    
C104  C105  A    
C120  H33   S    
C37   O1    A    
C39   C42   A    
C54   C59   A    
C22   C23   S    
C100  H19   S    
C89   H14   S    
C12   H60   S    
C116  O8    A    
C26   C77   A    
C74   C75   A    
C7    H47   S    
C102  C103  A    
C63   H2    S    
Cr5   O8    S    
C115  O6    A    
C60   C67   A    
Cr3   O16   S    
C72   C74   A    
C1    O13   A    
C114  O31   A    
C119  H31   S    
C91   C92   T    
C15   H66   S    
C78   C79   A    
C3    H37   S    
Cr1   O18   S    
C39   O22   S    
Cr1   O1    S    
C61   O12   A    
C64   C69   S    
C99   C110  A    
C57   O25   S    
C56   H67   S    
C3    C4    S    
C79   C80   A    
C60   C61   S    
C11   H57   S    
C99   H25   S    
C55   C85   A    
C117  O10   A    
C13   C33   S    
C62   C63   A    
C86   C93   A    
C19   O27   S    
C97   C109  A    
C31   C32   A    
Cr3   O30   S    
C107  C108  T    
C17   C18   S    
C62   H78   S    
C6    O22   S    
C25   H90   S    
C3    H38   S    
C51   C58   S    
C20   H77   S    
C66   C110  A    
C119  C120  S    
C43   C45   A    
C112  O33   A    
C65   H3    S    
C102  H18   S    
C114  O3    A    
C15   H64   S    
C8    H51   S    
C40   C41   A    
C12   C14   S    
C51   N11   A    
C10   H55   S    
C98   C100  A    
C87   C89   A    
Cr5   O34   S    
Cr6   O10   S    
C19   H76   S    
C104  H21   S    
C21   H81   S    
C24   O14   A    
C33   C109  A    
C90   C91   S    
C16   H69   S    
C109  H27   S    
C69   N6    A    
C112  O32   A    
C71   C76   A    
Cr6   O9    S    
C68   N7    A    
C120  H36   S    
Cr2   O14   S    
N11   N12   A    
C8    H50   S    
Cr4   O5    S    
C66   C77   A    
C46   C47   A    
C118  H30   S    
C4    H40   S    
C73   O17   A    
C27   C32   A    
C21   H82   S    
C33   C44   A    
C38   H12   S    
C25   H87   S    
C34   N10   A    
C77   O20   S    
N4    N5    A    
C80   C81   A    
C25   H88   S    
C49   O19   A    
C46   F4    S    
C104  C111  A    
C53   C58   A    
C56   C59   A    
C43   C50   A    
C52   N2    A    
C47   C52   S    
C22   O28   S    
C86   H8    S    
C1    O4    A    
C105  O28   S    
C35   N9    A    
C24   O15   A    
C74   H7    S    
C9    H53   S    
C54   H45   S    
C18   H74   S    
C61   O23   A    
C111  C117  S    
C35   N8    A    
C64   C65   A    
C11   H58   S    
C19   C20   S    
C36   C38   A    
C36   H23   S    
C113  O34   A    
C9    H52   S    
C83   H11   S    
C44   C55   A    
Cr2   O30   S    
C55   H16   S    
C32   H1    S    
C6    H44   S    
C84   H9    S    
C27   C37   S    
C59   C114  S    
Cr4   O6    S    
C87   C93   A    
Cr4   O32   S    
C100  C101  A    
C10   H54   S    
C7    H48   S    
C102  C106  A    
C34   N1    A    
C23   C25   S    
C17   H70   S    
C72   H6    S    
C3    O21   S    
C116  O9    A    
C88   C99   A    
C85   C97   A    
C10   C11   S    
C103  H17   S    
C97   H24   S    
C24   C85   S    
C63   C64   A    
C39   C40   A    
C38   C42   A    
C45   C46   A    
C4    C5    S    
C50   F2    S    
C20   C21   S    
C117  O5    A    
C70   H5    S    
C26   C88   A    
C82   C83   A    
N9    N10   A    
C70   C75   A    
C14   C15   S    
C29   O21   S    
C18   H72   S    
C95   H20   S    
C26   C113  S    
C89   C90   A    
C22   H83   S    
Cr6   O3    S    
C6    H46   S    
Cr1   O4    S    
C120  H35   S    
Cr2   O13   S    
C27   C28   A    
C16   O26   S    
