data_mof_unit_54381.cif
_audit_creation_date              2012-12-11T14:46:07-0500
_audit_creation_method            fapswitch 2.2
_symmetry_space_group_name_H-M    P1
_symmetry_Int_Tables_number       1
_space_group_crystal_system       triclinic
_cell_length_a                    10.953294
_cell_length_b                    10.976365
_cell_length_c                    18.819803
_cell_angle_alpha                 89.552934
_cell_angle_beta                  90.0925
_cell_angle_gamma                 119.751601
_cell_volume                      1964.33665761

loop_
_atom_site_label
_atom_site_type_symbol
_atom_type_description
_atom_site_fract_x
_atom_site_fract_y
_atom_site_fract_z
_atom_type_partial_charge
Br1   Br    Br    0.198457 0.865055 0.309511 -0.366012
Br2   Br    Br    0.549544 0.012621 0.356247 -0.432829
Br3   Br    Br    0.123103 0.241193 0.154669 -0.324843
Br4   Br    Br    0.144301 0.228315 0.327847 -0.324414
Br5   Br    Br    0.162697 0.246539 0.900146 -0.362875
C1    C     C_R   0.869897 0.635240 0.605566 0.625863
C2    C     C_R   0.930181 0.130938 0.708916 -0.091979
C3    C     C_R   0.955375 0.154197 0.783298 -0.059285
C4    C     C_R   0.271397 0.631853 0.603409 0.566553
C5    C     C_R   0.734180 0.176531 0.719843 -0.022076
C6    C     C_R   0.770579 0.216288 0.790803 -0.053161
C7    C     C_R   0.603625 0.157960 0.695039 0.236080
C8    C     C_R   0.532047 0.210724 0.734737 -0.069069
C9    C     C_R   0.580220 0.270557 0.801010 0.197856
C10   C     C_R   0.705110 0.280039 0.828276 0.253595
C11   C     C_R   0.830680 0.159320 0.676113 -0.014216
C12   C     C_R   0.227070 0.587682 0.799663 0.224851
C13   C     C_R   0.708865 0.592794 0.706971 0.172378
C14   C     C_R   0.691624 0.601785 0.779957 -0.128084
C15   C     C_R   0.808318 0.655156 0.825419 -0.034654
C16   C     C_R   0.859413 0.224935 0.603449 0.568987
C17   C     C_R   0.942103 0.700947 0.798955 -0.131629
C18   C     C_R   0.962899 0.701059 0.726511 0.180792
C19   C     C_R   0.845429 0.645412 0.680357 0.103427
C20   C     C_R   0.396414 0.615643 0.296803 -0.116706
C21   C     C_R   0.419316 0.619667 0.224567 0.241263
C22   C     C_R   0.372637 0.693172 0.180149 0.058062
C23   C     C_R   0.203561 0.565529 0.726703 -0.091821
C24   C     C_R   0.306860 0.761953 0.207918 -0.114116
C25   C     C_R   0.281324 0.755383 0.279902 0.156831
C26   C     C_R   0.322460 0.676800 0.324639 0.029846
C27   C     C_R   0.715026 0.102029 0.296586 0.084835
C28   C     C_R   0.867601 0.637053 0.396762 0.607234
C29   C     C_R   0.702369 0.093003 0.223180 0.211922
C30   C     C_R   0.823494 0.132032 0.180406 0.015082
C31   C     C_R   0.955608 0.179527 0.211999 0.115872
C32   C     C_R   0.967219 0.190107 0.285929 0.141123
C33   C     C_R   0.847870 0.163655 0.327295 -0.029815
C34   C     C_R   0.306443 0.655006 0.677809 0.034704
C35   C     C_R   0.809629 0.748544 0.298705 0.230986
C36   C     C_R   0.796834 0.761030 0.225694 -0.099961
C37   C     C_R   0.806369 0.667452 0.178507 0.032234
C38   C     C_R   0.824120 0.556293 0.203824 0.219571
C39   C     C_R   0.838739 0.546072 0.276595 -0.093904
C40   C     C_R   0.268235 0.633863 0.395822 0.575376
C41   C     C_R   0.834683 0.643458 0.323275 0.044825
C42   C     C_R   0.811351 0.107853 0.895889 0.620161
C43   C     C_R   0.397724 0.702935 0.896136 0.601335
C44   C     C_R   0.795522 0.692617 0.896998 0.535103
C45   C     C_R   0.861748 0.178971 0.825272 0.034400
C46   C     C_R   0.802479 0.099230 0.104802 0.620347
C47   C     C_R   0.405155 0.706696 0.105800 0.589531
C48   C     C_R   0.797483 0.694009 0.104233 0.530725
C49   C     C_R   0.862995 0.227179 0.396743 0.597954
C50   C     C_R   0.434091 0.765232 0.700909 -0.131945
C51   C     C_R   0.459850 0.784734 0.773415 -0.189146
C52   C     C_R   0.357211 0.694877 0.822513 0.061748
C53   C     C_R   0.076290 0.156463 0.812032 0.148938
C54   C     C_R   0.154048 0.114203 0.770855 -0.078981
C55   C     C_R   0.119716 0.074953 0.700272 0.274059
C56   C     C_R   0.004982 0.079060 0.669139 0.258778
Cr1   Cr    Cr6+3 0.791660 0.390250 0.499930 1.115498
Cr2   Cr    Cr6+3 0.098520 0.708290 0.500540 1.149866
Cr3   Cr    Cr6+3 0.109770 0.401430 0.499480 1.117921
Cr4   Cr    Cr6+3 0.874790 0.925890 0.000070 1.113813
Cr5   Cr    Cr6+3 0.574120 0.948670 0.999300 1.090617
Cr6   Cr    Cr6+3 0.551420 0.625320 0.000920 1.125268
H1    H     H_    0.514213 0.832670 0.663190 0.179703
H2    H     H_    0.103424 0.481799 0.707836 0.109264
H3    H     H_    0.244088 0.113537 0.793996 0.181528
H4    H     H_    0.451482 0.074194 0.625828 0.359322
H5    H     H_    0.507912 0.296149 0.890254 0.348900
H6    H     H_    0.508190 0.506890 0.688603 0.338112
H7    H     H_    0.166872 0.802779 0.738335 0.337880
H8    H     H_    0.506553 0.502039 0.234848 0.335649
H9    H     H_    0.512401 0.065538 0.222512 0.380933
H10   H     H_    0.758654 0.888337 0.321343 0.329102
H11   H     H_    0.819438 0.478478 0.110237 0.340382
H12   H     H_    0.436258 0.202865 0.714600 0.179687
H13   H     H_    0.034423 0.454617 0.823890 0.341927
H14   H     H_    0.173667 0.019230 0.612652 0.394043
H15   H     H_    0.860996 0.986627 0.597157 0.330546
H16   H     H_    0.728144 0.410375 0.904103 0.335236
H17   H     H_    0.588371 0.572454 0.800747 0.179284
H18   H     H_    0.031656 0.743825 0.834534 0.152118
H19   H     H_    0.430626 0.558416 0.331034 0.160093
H20   H     H_    0.275728 0.821293 0.173374 0.176176
H21   H     H_    0.561815 0.866539 0.791315 0.123916
H22   H     H_    0.779505 0.843912 0.205352 0.111534
H23   H     H_    0.858261 0.464452 0.296722 0.145756
O1    O     O_R   0.766500 0.250040 0.579790 -0.449284
O2    O     O_R   0.413330 0.603360 0.920440 -0.448990
O3    O     O_R   0.676110 0.626250 0.926750 -0.515794
O4    O     O_R   0.798570 0.516780 0.574780 -0.480927
O5    O     O_R   0.895350 0.809870 0.080950 -0.493975
O6    O     O_R   0.872490 0.049760 0.073800 -0.468640
O7    O     O_R   0.691680 0.088070 0.079070 -0.432428
O8    O     O_R   0.451720 0.825250 0.074050 -0.493612
O9    O     O_R   0.413580 0.606370 0.080960 -0.414202
O10   O     O_R   0.676340 0.629040 0.075550 -0.464757
O11   O     O_3   0.666780 0.833290 0.000090 -0.315425
O12   O     O_R   0.218690 0.701900 0.425960 -0.456397
O13   O     O_R   0.984000 0.732950 0.581090 -0.444692
O14   O     O_R   0.218600 0.700890 0.574760 -0.453694
O15   O     O_R   0.249390 0.515350 0.579940 -0.508012
O16   O     O_R   0.982790 0.280900 0.573700 -0.476118
O17   O     O_R   0.766600 0.251130 0.419260 -0.463939
O18   O     O_R   0.798660 0.517790 0.425980 -0.522534
O19   O     O_R   0.984100 0.734040 0.420570 -0.427794
O20   O     O_3   0.541896 0.077294 0.635558 -0.668150
O21   O     O_3   0.497642 0.309496 0.838961 -0.711114
O22   O     O_3   0.596070 0.539489 0.660855 -0.682083
O23   O     O_R   0.249490 0.516440 0.419420 -0.494676
O24   O     O_3   0.097457 0.755891 0.699799 -0.650639
O25   O     O_3   0.485910 0.551718 0.196530 -0.639420
O26   O     O_3   0.571467 0.041649 0.192409 -0.648018
O27   O     O_3   0.797321 0.835972 0.346714 -0.650740
O28   O     O_3   0.832112 0.459549 0.160397 -0.675997
O29   O     O_3   0.124660 0.509367 0.849167 -0.644175
O30   O     O_3   0.201941 0.034241 0.663210 -0.702694
O31   O     O_3   0.963547 0.023828 0.601900 -0.671145
O32   O     O_3   0.766833 0.349569 0.890638 -0.676595
O33   O     O_R   0.982880 0.281910 0.424890 -0.460457
O34   O     O_3   0.999980 0.499990 0.499980 -0.327043
O35   O     O_R   0.895110 0.806860 0.920430 -0.505588
O36   O     O_R   0.872260 0.046970 0.925000 -0.471064
O37   O     O_R   0.691430 0.085060 0.918550 -0.487271
O38   O     O_R   0.451490 0.822460 0.925250 -0.527691

loop_
_geom_bond_atom_site_label_1
_geom_bond_atom_site_label_2
_ccdc_geom_bond_type
C46   O7    A    
C36   H22   S    
C50   C51   A    
C8    H12   S    
C20   C26   A    
C11   C16   S    
C10   O32   S    
C48   O5    A    
C36   C37   A    
C14   C15   A    
Cr4   O11   S    
C49   O33   A    
Cr1   O34   S    
Cr2   O34   S    
C2    C3    A    
C51   C52   A    
C35   C41   A    
H14   O30   S    
C21   C22   A    
C32   C33   A    
C49   O17   A    
H6    O22   S    
C13   C19   A    
Cr5   O7    S    
C56   O31   S    
C31   C32   A    
H11   O28   S    
C13   O22   S    
C29   C30   A    
H10   O27   S    
C37   C48   S    
C25   C26   A    
C51   H21   S    
C22   C24   A    
C29   O26   S    
H7    O24   S    
H4    O20   S    
C4    C34   S    
Cr5   O37   S    
Br2   C27   S    
C13   C14   A    
C17   H18   S    
C21   O25   S    
Cr6   O2    S    
C3    C53   A    
C6    C10   A    
Cr4   O6    S    
C34   C50   A    
C23   H2    S    
C1    O4    A    
C18   C19   A    
C27   C33   A    
H15   O31   S    
C16   O16   A    
Cr6   O9    S    
C46   O6    A    
C35   O27   S    
H5    O21   S    
C54   C55   A    
C8    C9    A    
C28   C41   S    
Cr5   O11   S    
C28   O18   A    
Cr2   O12   S    
C7    O20   S    
C39   C41   A    
C50   H1    S    
C42   C45   S    
C48   O10   A    
C9    O21   S    
Cr1   O18   S    
C43   C52   S    
Cr2   O13   S    
C40   O12   A    
Cr1   O17   S    
C54   H3    S    
C23   C34   A    
C20   C21   A    
Cr3   O34   S    
C55   C56   A    
C30   C31   A    
Cr4   O35   S    
Cr2   O19   S    
C38   C39   A    
C24   C25   A    
C40   O23   A    
C43   O38   A    
C15   C44   S    
C33   C49   S    
C1    C19   S    
Cr1   O1    S    
C1    O13   A    
C7    C8    A    
C42   O37   A    
C5    C7    A    
Cr6   O10   S    
Br5   C53   S    
C35   C36   A    
C15   C17   A    
Cr1   O4    S    
C30   C46   S    
C20   H19   S    
H8    O25   S    
C37   C38   A    
C26   C40   S    
C14   H17   S    
C3    C45   A    
C39   H23   S    
C22   C47   S    
Cr6   O11   S    
C42   O36   A    
C16   O1    A    
C2    C11   A    
Cr3   O23   S    
Cr3   O15   S    
C9    C10   A    
C12   C23   A    
Cr2   O14   S    
Cr3   O16   S    
Cr3   O33   S    
C44   O35   A    
C47   O9    A    
Cr4   O36   S    
Cr5   O8    S    
C53   C54   A    
C6    C45   A    
C5    C11   A    
C18   O24   S    
Br3   C31   S    
C4    O14   A    
C47   O8    A    
Br1   C25   S    
H9    O26   S    
Cr5   O38   S    
C55   O30   S    
H16   O32   S    
C24   H20   S    
C5    C6    A    
C12   O29   S    
C38   O28   S    
H13   O29   S    
Cr4   O5    S    
C28   O19   A    
Br4   C32   S    
C43   O2    A    
C12   C52   A    
Cr6   O3    S    
C17   C18   A    
C44   O3    A    
C4    O15   A    
C2    C56   A    
C27   C29   A    
