data_mof_unit_19616.cif
_audit_creation_date              2013-03-05T16:12:15-0500
_audit_creation_method            fapswitch 2.2
_symmetry_space_group_name_H-M    P1
_symmetry_Int_Tables_number       1
_space_group_crystal_system       triclinic
_cell_length_a                    10.634561
_cell_length_b                    9.919865
_cell_length_c                    19.012387
_cell_angle_alpha                 90.373367
_cell_angle_beta                  91.870359
_cell_angle_gamma                 89.872023
_cell_volume                      2004.56630811

loop_
_atom_site_label
_atom_site_type_symbol
_atom_site_description
_atom_site_fract_x
_atom_site_fract_y
_atom_site_fract_z
_atom_type_partial_charge
O1    O     O_R   0.316770 0.614620 0.500000 -0.568706
O2    O     O_R   0.683230 0.385380 0.500000 -0.592741
O3    O     O_R   0.683230 0.614620 0.500000 -0.673455
O4    O     O_R   0.316770 0.385380 0.500000 -0.634039
C1    C     C_R   0.260629 0.500358 0.499291 1.045280
C2    C     C_R   0.739315 0.499512 0.499163 1.004870
O5    O     O_R   0.499990 0.614700 0.398140 -0.667569
O6    O     O_R   0.500010 0.385300 0.601860 -0.662074
O7    O     O_R   0.500010 0.614700 0.601860 -0.667369
O8    O     O_R   0.499990 0.385300 0.398140 -0.644712
C3    C     C_R   0.508814 0.499637 0.365370 0.905948
C4    C     C_R   0.496725 0.500304 0.635405 0.925676
Zn1   Zn    Zn3+2 0.500000 0.653120 0.500000 0.975963
Zn2   Zn    Zn3+2 0.500000 0.346880 0.500000 0.987126
C5    C     C_R   0.061678 0.466915 0.435852 0.234245
C6    C     C_R   0.938519 0.533566 0.561313 0.206625
C7    C     C_R   0.931178 0.463923 0.436478 0.220907
C8    C     C_R   0.068533 0.537408 0.560314 0.246706
C9    C     C_R   0.871812 0.497230 0.499230 -0.346478
C10   C     C_R   0.128085 0.502093 0.498223 -0.335894
C11   C     C_R   0.588419 0.072579 0.538991 -0.005555
C12   C     C_R   0.414222 0.926975 0.459278 0.000774
C13   C     C_R   0.409659 0.071157 0.462059 -0.044620
C14   C     C_R   0.582057 0.928826 0.543562 -0.014558
C15   C     C_R   0.608727 0.611055 0.262360 -0.018949
C16   C     C_R   0.535881 0.379326 0.750323 -0.011065
C17   C     C_R   0.508636 0.625020 0.751805 -0.032284
C18   C     C_R   0.509337 0.389161 0.245317 0.023959
C19   C     C_R   0.634725 0.612488 0.190837 -0.062218
C20   C     C_R   0.584499 0.386185 0.819185 -0.074559
C21   C     C_R   0.556887 0.627571 0.821091 -0.062873
C22   C     C_R   0.539574 0.393341 0.174729 -0.101809
H1    H     H_    0.685375 0.696529 0.169162 0.195047
H2    H     H_    0.607195 0.293353 0.846565 0.200041
H3    H     H_    0.557892 0.721763 0.850258 0.202045
H4    H     H_    0.513470 0.309283 0.140555 0.185343
C23   C     C_R   0.601835 0.503881 0.147484 -0.003720
C24   C     C_R   0.595850 0.509266 0.854742 -0.011917
N1    N     N_R   0.500000 0.857200 0.500000 -0.182509
N2    N     N_R   0.500000 0.142800 0.500000 -0.181765
C25   C     C_R   0.541707 0.499759 0.290348 -0.154837
C26   C     C_R   0.507349 0.500908 0.713540 -0.156078
N3    N     N_R   0.634240 0.390728 0.035613 -0.136141
N4    N     N_R   0.624071 0.627552 0.967828 -0.140159
N5    N     N_R   0.634065 0.392277 0.965913 -0.144889
N6    N     N_R   0.624705 0.626131 0.037701 -0.138764
C27   C     C_R   0.625520 0.510383 0.930606 0.321937
C28   C     C_R   0.626240 0.507377 0.072568 0.322334
N7    N     N_R   0.126411 0.434915 0.372489 0.227585
O9    O     O_R   0.094105 0.329911 0.334760 -0.247488
O10   O     O_R   0.212786 0.515127 0.350043 -0.395470
N8    N     N_R   0.874758 0.559520 0.625667 0.213963
O11   O     O_R   0.900629 0.666591 0.663202 -0.277990
O12   O     O_R   0.794989 0.472446 0.648783 -0.413689
N9    N     N_R   0.859128 0.433983 0.373022 0.208495
O13   O     O_R   0.879290 0.500456 0.315724 -0.347219
O14   O     O_R   0.784647 0.330130 0.370164 -0.347963
N10   N     N_R   0.140587 0.570018 0.623072 0.227273
O15   O     O_R   0.198228 0.475345 0.658547 -0.407588
O16   O     O_R   0.155914 0.695355 0.641789 -0.326868
C29   C     C_2   0.662425 0.722469 0.306565 0.489979
H5    H     H_    0.693272 0.705000 0.360627 0.105684
O17   O     O_2   0.676020 0.834979 0.282261 -0.538258
C30   C     C_2   0.507534 0.242930 0.721228 0.450892
H6    H     H_    0.428715 0.227401 0.684463 0.116328
O18   O     O_2   0.570114 0.145244 0.739668 -0.475769
C31   C     C_2   0.450818 0.751181 0.723592 0.509499
H7    H     H_    0.384514 0.748549 0.679292 0.136119
O19   O     O_2   0.473615 0.860338 0.751153 -0.486411
C32   C     C_2   0.446393 0.265479 0.269019 0.470956
H8    H     H_    0.484662 0.209131 0.313371 0.075000
O20   O     O_2   0.354007 0.221709 0.236684 -0.500216
C33   C     C_2   0.693336 0.146459 0.574402 0.623249
H9    H     H_    0.676403 0.236468 0.604682 0.115094
O21   O     O_2   0.801577 0.107152 0.569264 -0.495314
C34   C     C_2   0.329773 0.851152 0.410532 0.600317
H10   H     H_    0.364540 0.814050 0.361050 0.062193
O22   O     O_2   0.220554 0.830616 0.425084 -0.464055
C35   C     C_2   0.307534 0.144254 0.423737 0.496877
H11   H     H_    0.325898 0.237042 0.397127 0.119871
O23   O     O_2   0.199343 0.103386 0.423284 -0.459037
C36   C     C_2   0.657247 0.857926 0.599391 0.525800
H12   H     H_    0.683724 0.754531 0.594286 0.142715
O24   O     O_2   0.687468 0.914423 0.654609 -0.467072

loop_
_geom_bond_atom_site_label_1
_geom_bond_atom_site_label_2
_geom_bond_distance
_ccdc_geom_bond_type
N9    O13   1.301060 A    
C11   C33   1.477642 S    
C33   H9    1.077237 S    
C12   C34   1.473361 S    
O3    C2    1.287315 A    
C1    C10   1.409099 S    
O5    C3    1.301485 A    
C2    C9    1.409128 S    
O1    C1    1.282063 A    
C22   H4    1.084754 S    
C34   O22   1.220617 D    
N10   O16   1.300158 A    
C13   N2    1.378251 A    
C19   H1    1.084405 S    
C18   C25   1.423146 A    
C14   N1    1.378480 A    
O7    Zn1   1.976179 S    
C20   C24   1.395302 A    
C29   O17   1.221423 D    
C14   C36   1.487441 S    
C4    C26   1.486117 S    
C8    N10   1.432434 S    
N4    N6    1.328423 A    
N7    O10   1.300889 A    
C32   H8    1.082519 S    
N3    C28   1.353779 A    
C7    N9    1.437653 S    
O3    Zn1   1.984807 S    
N4    C27   1.357167 A    
C33   O21   1.221243 D    
O2    C2    1.281281 A    
N8    O12   1.300547 A    
N5    C27   1.355460 A    
C15   C19   1.396632 A    
C5    C10   1.402749 A    
N6    C28   1.355302 A    
C20   H2    1.083661 S    
C17   C21   1.398113 A    
C31   H7    1.080865 S    
C18   C22   1.391113 A    
C34   H10   1.083875 S    
O8    Zn2   1.976179 S    
C15   C25   1.430374 A    
C35   O23   1.220505 D    
N10   O15   1.300518 A    
C31   O19   1.221210 D    
C30   O18   1.221128 D    
O6    C4    1.304314 A    
C15   C29   1.487728 S    
C22   C23   1.393612 A    
C23   C28   1.456740 S    
N3    N5    1.325307 A    
C24   C27   1.466350 S    
C16   C20   1.393128 A    
C36   O24   1.220925 D    
N9    O14   1.300678 A    
N7    O9    1.301282 A    
C21   H3    1.083306 S    
O1    Zn1   1.986482 S    
N8    O11   1.300658 A    
C16   C26   1.425228 A    
C5    C7    1.388640 A    
O6    Zn2   1.971306 S    
C18   C32   1.478853 S    
C6    N8    1.439565 S    
O4    C1    1.286137 A    
C16   C30   1.486188 S    
C21   C24   1.395919 A    
C30   H6    1.084366 S    
C17   C26   1.425829 A    
C11   N2    1.370125 A    
C6    C9    1.402620 A    
C12   N1    1.367003 A    
C7    C9    1.405076 A    
C3    C25   1.479679 S    
C8    C10   1.399919 A    
C5    N7    1.440178 S    
O4    Zn2   1.984808 S    
C29   H5    1.083585 S    
O2    Zn2   1.986481 S    
O7    C4    1.306443 A    
Zn1   N1    2.024446 S    
C17   C31   1.488561 S    
O8    C3    1.302652 A    
Zn2   N2    2.024446 S    
C35   H11   1.074534 S    
O5    Zn1   1.971306 S    
C6    C8    1.384003 A    
C36   H12   1.067654 S    
C11   C14   1.431109 A    
C19   C23   1.390584 A    
C12   C13   1.431669 A    
C32   O20   1.220965 D    
C13   C35   1.479143 S    
