data_mof_unit_14693.cif
_audit_creation_date              2013-03-05T15:47:56-0500
_audit_creation_method            fapswitch 2.2
_symmetry_space_group_name_H-M    P1
_symmetry_Int_Tables_number       1
_space_group_crystal_system       triclinic
_cell_length_a                    11.743746
_cell_length_b                    12.978796
_cell_length_c                    13.365818
_cell_angle_alpha                 92.809911
_cell_angle_beta                  75.885566
_cell_angle_gamma                 99.738177
_cell_volume                      1947.1790398

loop_
_atom_site_label
_atom_site_type_symbol
_atom_site_description
_atom_site_fract_x
_atom_site_fract_y
_atom_site_fract_z
_atom_type_partial_charge
O1    O     O_R   0.419710 0.645650 0.494620 -0.600573
O2    O     O_R   0.611450 0.658430 0.507430 -0.543475
C1    C     C_R   0.520767 0.700568 0.501148 0.828916
O3    O     O_R   0.357340 0.490460 0.641450 -0.559941
O4    O     O_R   0.549080 0.503250 0.654260 -0.592456
C2    C     C_R   0.434611 0.486089 0.696026 0.791352
Cu1   Cu    Cu3+1 0.386470 0.492430 0.492410 0.982608
Cu2   Cu    Cu3+1 0.613530 0.507570 0.507590 0.958803
O5    O     O_R   0.388550 0.341570 0.492570 -0.544241
O6    O     O_R   0.580290 0.354350 0.505380 -0.594268
O7    O     O_R   0.450920 0.496750 0.345740 -0.617380
O8    O     O_R   0.642660 0.509540 0.358550 -0.587313
C3    C     C_R   0.480210 0.299981 0.496639 0.800738
C4    C     C_R   0.564021 0.503328 0.303751 0.803001
C5    C     C_R   0.720981 0.408295 0.044189 -0.008311
H1    H     H_    0.751445 0.419615 0.197328 0.197215
H2    H     H_    0.733321 0.357626 0.839989 0.142271
C6    C     C_R   0.600459 0.489690 0.191445 -0.078659
C7    C     C_R   0.272896 0.473471 0.863615 0.008323
C8    C     C_R   0.244309 0.479314 0.971034 -0.185503
C9    C     C_R   0.330222 0.478448 0.025817 -0.211340
C10   C     C_R   0.448244 0.469562 0.975127 0.088432
C11   C     C_R   0.474232 0.449905 0.867680 0.072223
C12   C     C_R   0.537795 0.469638 0.030273 0.039754
C13   C     C_R   0.639966 0.422883 0.984312 0.039104
C14   C     C_R   0.657439 0.392190 0.880113 -0.232004
C15   C     C_R   0.577372 0.406633 0.822957 -0.160949
C16   C     C_R   0.528974 0.515350 0.129780 0.083335
C17   C     C_R   0.696605 0.438379 0.148417 -0.215582
C18   C     C_R   0.392333 0.467144 0.809475 -0.140523
H3    H     H_    0.300120 0.475800 0.108606 0.136076
H4    H     H_    0.153491 0.482014 0.013435 0.176980
H5    H     H_    0.593672 0.375844 0.745098 0.173410
C19   C     C_R   0.475637 0.188573 0.482880 -0.039126
C20   C     C_R   0.530972 0.814491 0.505236 -0.142692
C21   C     C_R   0.572241 0.976000 0.599124 0.122737
C22   C     C_R   0.577039 0.868995 0.584047 0.112774
C23   C     C_R   0.485958 0.867137 0.436790 -0.107974
C24   C     C_R   0.493953 0.977231 0.444155 0.087149
C25   C     C_R   0.527687 0.029061 0.531478 0.107338
C26   C     C_R   0.517257 0.134308 0.549684 -0.178159
C27   C     C_R   0.452630 0.141761 0.392512 -0.210147
C28   C     C_R   0.468020 0.038470 0.369009 0.042507
H6    H     H_    0.541575 0.175471 0.615924 0.171149
H7    H     H_    0.434097 0.189165 0.335605 0.143337
N1    N     N_R   0.215880 0.481050 0.481000 -0.236984
N2    N     N_R   0.784100 0.518950 0.519000 -0.200295
C29   C     C_R   0.942157 0.598693 0.595025 -0.259372
C30   C     C_R   0.824464 0.588202 0.586859 0.089149
C31   C     C_R   0.856565 0.456795 0.459258 0.081329
C32   C     C_R   0.975892 0.461322 0.467002 -0.002904
C33   C     C_R   0.020992 0.536644 0.533237 0.034115
C34   C     C_R   0.142800 0.547345 0.537035 0.159499
C35   C     C_R   0.171004 0.405536 0.417973 0.124633
C36   C     C_R   0.051232 0.394403 0.409532 -0.153978
H8    H     H_    0.969488 0.654638 0.650705 0.170327
H9    H     H_    0.765168 0.636131 0.634610 0.150006
H10   H     H_    0.819978 0.404809 0.405386 0.165410
N3    N     N_3   0.612573 0.031540 0.683043 -0.602974
H11   H     H_    0.701936 0.025568 0.675399 0.241142
H12   H     H_    0.562263 0.997514 0.752581 0.226684
C37   C     C_2   0.474028 0.005813 0.260199 0.414213
H13   H     H_    0.418236 0.035101 0.217929 0.087229
O9    O     O_2   0.546753 0.952102 0.214755 -0.546986
N4    N     N_3   0.621026 0.813177 0.653010 -0.585190
H14   H     H_    0.709202 0.846393 0.650393 0.229761
H15   H     H_    0.569597 0.819743 0.728071 0.215224
C38   C     C_2   0.421464 0.804611 0.365360 0.518376
H16   H     H_    0.458453 0.740586 0.321372 0.081529
O10   O     O_2   0.324406 0.821531 0.358686 -0.509401
C39   C     C_2   0.191435 0.633220 0.599199 0.404429
H17   H     H_    0.232204 0.617850 0.659773 0.079072
O11   O     O_2   0.186848 0.723820 0.582097 -0.526643
C40   C     C_2   0.245168 0.330865 0.359974 0.391605
H18   H     H_    0.321492 0.356515 0.297868 0.055156
O12   O     O_2   0.216963 0.237564 0.378510 -0.529257
C41   C     C_2   0.007520 0.312069 0.339890 0.419963
H19   H     H_    0.062035 0.301088 0.263160 0.082535
O13   O     O_2   0.914182 0.252324 0.369615 -0.514195
C42   C     C_2   0.827507 0.356778 0.003228 0.367949
H20   H     H_    0.838005 0.311372 0.932556 0.086197
O14   O     O_2   0.906128 0.363643 0.049695 -0.554825
N5    N     N_3   0.466183 0.602145 0.162239 -0.592052
H21   H     H_    0.382708 0.576855 0.210561 0.226079
H22   H     H_    0.457475 0.641690 0.098929 0.245032
C43   C     C_2   0.171745 0.466063 0.814386 0.369760
H23   H     H_    0.105587 0.516870 0.840489 0.048306
O15   O     O_2   0.155870 0.397789 0.750753 -0.508566

loop_
_geom_bond_atom_site_label_1
_geom_bond_atom_site_label_2
_geom_bond_distance
_ccdc_geom_bond_type
C4    C6    1.467623 S    
C7    C8    1.393798 A    
C19   C27   1.390217 A    
C21   N3    1.437487 S    
Cu1   Cu2   2.696829 S    
N2    C30   1.356767 A    
C41   H19   1.085484 S    
C15   H5    1.080381 S    
Cu1   O7    1.921407 S    
C9    H3    1.076756 S    
C14   C15   1.388116 A    
C40   O12   1.221132 D    
H2    C14   1.077745 S    
C21   C22   1.402164 A    
C20   C22   1.406445 A    
C29   C33   1.414862 A    
O4    C2    1.308917 A    
C36   C41   1.490560 S    
O7    C4    1.299702 A    
C43   O15   1.221015 D    
C5    C13   1.424323 A    
C30   H9    1.081695 S    
C29   H8    1.081088 S    
O5    C3    1.296534 A    
C37   O9    1.221147 D    
C35   C40   1.476939 S    
C5    C42   1.491604 S    
C38   H16   1.083749 S    
N4    H15   1.045018 S    
C22   N4    1.437213 S    
C11   C15   1.408528 A    
C7    C43   1.479741 S    
N3    H11   1.045103 S    
C9    C10   1.407767 A    
C16   N5    1.441544 S    
C19   C26   1.386780 A    
O3    Cu1   1.937933 S    
C5    C17   1.401819 A    
N2    C31   1.360237 A    
C41   O13   1.221029 D    
N3    H12   1.045036 S    
C40   H18   1.080080 S    
C32   C33   1.410187 A    
C31   H10   1.078655 S    
C11   C18   1.426578 A    
C21   C25   1.406828 A    
C20   C23   1.415141 A    
C6    C16   1.397844 A    
C12   C13   1.426728 A    
O3    C2    1.305036 A    
C24   C25   1.424796 A    
C39   O11   1.221331 D    
C43   H23   1.085708 S    
C24   C28   1.429202 A    
C13   C14   1.405104 A    
O1    C1    1.297060 A    
C27   H7    1.084597 S    
Cu1   N1    2.026142 S    
C37   H13   1.085743 S    
N5    H21   1.043568 S    
C1    C20   1.462492 S    
Cu2   O8    1.937933 S    
N1    C35   1.381585 A    
C31   C32   1.421349 A    
C6    C17   1.396160 A    
C42   O14   1.221703 D    
C25   C26   1.396279 A    
N5    H22   1.045211 S    
O8    C4    1.301826 A    
C26   H6    1.084506 S    
C10   C12   1.423701 A    
C27   C28   1.393387 A    
C34   C39   1.477881 S    
C33   C34   1.426770 A    
C8    H4    1.084353 S    
Cu1   O5    1.962374 S    
C35   C36   1.420955 A    
C29   C30   1.396157 A    
C2    C18   1.494766 S    
O1    Cu1   1.960889 S    
Cu2   O6    1.960890 S    
O2    Cu2   1.962372 S    
C12   C16   1.416973 A    
C23   C38   1.487449 S    
C42   H20   1.080724 S    
O6    C3    1.292776 A    
O4    Cu2   1.921407 S    
O2    C1    1.298242 A    
H1    C17   1.084190 S    
Cu2   N2    2.025908 S    
C3    C19   1.442198 S    
C23   C24   1.416170 A    
N1    C34   1.382372 A    
C32   C36   1.410767 A    
C39   H17   1.077813 S    
C8    C9    1.385343 A    
C38   O10   1.221291 D    
N4    H14   1.045065 S    
C10   C11   1.413263 A    
C7    C18   1.426842 A    
C28   C37   1.483027 S    
