data_mof_unit_54730.cif
_audit_creation_date              2012-10-26T20:25:28-0400
_audit_creation_method            fapswitch 2.2
_symmetry_space_group_name_H-M    P1
_symmetry_Int_Tables_number       1
_space_group_crystal_system       triclinic
_cell_length_a                    23.275729
_cell_length_b                    10.906125
_cell_length_c                    9.654702
_cell_angle_alpha                 92.29014
_cell_angle_beta                  90.27867
_cell_angle_gamma                 91.978343
_cell_volume                      2447.36189499

loop_
_atom_site_label
_atom_site_type_symbol
_atom_type_description
_atom_site_fract_x
_atom_site_fract_y
_atom_site_fract_z
_atom_type_partial_charge
Br1   Br    Br    0.926658 0.086926 0.455900 -0.218750
Br2   Br    Br    0.673480 0.745730 0.594777 -0.195105
Br3   Br    Br    0.192786 0.314036 0.302759 -0.176168
Br4   Br    Br    0.811148 0.734015 0.504805 -0.180679
Br5   Br    Br    0.615031 0.901229 0.341431 -0.168169
Br6   Br    Br    0.383860 0.104224 0.648486 -0.174669
Br7   Br    Br    0.070941 0.803347 0.807238 -0.226831
Br8   Br    Br    0.497191 0.778972 0.113882 -0.357088
Br9   Br    Br    0.506595 0.221758 0.886263 -0.233885
Br10  Br    Br    0.609043 0.658499 0.893428 -0.194236
Br11  Br    Br    0.386756 0.351935 0.097090 -0.215685
Br12  Br    Br    0.340679 0.758706 0.593293 -0.284831
Br13  Br    Br    0.651878 0.248969 0.369619 -0.336094
Br14  Br    Br    0.328585 0.255775 0.383936 -0.241982
C1    C     C_R   0.500282 0.260168 0.497788 0.598021
C2    C     C_R   0.706678 0.592855 0.541773 0.144299
C3    C     C_R   0.233806 0.402456 0.452484 0.232054
C4    C     C_R   0.766591 0.585829 0.541574 0.227330
C5    C     C_R   0.206099 0.490837 0.537010 0.118666
C6    C     C_R   0.792070 0.469752 0.532027 0.112846
C7    C     C_3   0.546068 0.046657 0.565247 -0.007755
C8    C     C_3   0.452619 0.953971 0.427531 -0.090794
C9    C     C_3   0.546944 0.957626 0.436782 0.160399
C10   C     C_3   0.452053 0.043180 0.556966 0.145432
C11   C     C_3   0.498254 0.877069 0.500471 -0.062654
C12   C     C_R   0.499528 0.739985 0.501527 0.562820
C13   C     C_3   0.500627 0.123157 0.494636 -0.073859
C14   C     C_3   0.497680 0.966749 0.628188 -0.001314
C15   C     C_3   0.501569 0.034910 0.366176 -0.073701
C16   C     C_R   0.390927 0.501668 0.500340 0.573347
C17   C     C_R   0.608769 0.497414 0.500295 0.615406
C18   C     C_3   0.497081 0.609404 0.053730 0.194813
C19   C     C_3   0.502846 0.390437 0.945746 0.249212
C20   C     C_3   0.454183 0.545597 0.951682 0.001248
C21   C     C_3   0.545896 0.453991 0.047579 0.091429
C22   C     C_3   0.542952 0.563097 0.953212 0.210822
C23   C     C_R   0.237000 0.605376 0.557664 0.078969
C24   C     C_3   0.456842 0.436694 0.046126 0.231411
C25   C     C_R   0.877870 0.541107 0.671568 0.459071
C26   C     C_R   0.119999 0.354409 0.576386 0.465647
C27   C     C_R   0.876559 0.341644 0.580178 0.461064
C28   C     C_R   0.121214 0.550152 0.678364 0.460053
C29   C     C_R   0.937209 0.338302 0.579131 0.033894
C30   C     C_R   0.060583 0.552371 0.682291 0.032136
C31   C     C_R   0.968570 0.446133 0.624336 -0.070481
C32   C     C_R   0.029256 0.448900 0.624686 -0.069478
C33   C     C_R   0.938717 0.547775 0.679102 -0.013502
C34   C     C_R   0.759268 0.375524 0.457194 0.064028
C35   C     C_R   0.059117 0.344596 0.577387 -0.014355
C36   C     C_R   0.966958 0.232462 0.535084 0.169788
C37   C     C_R   0.030803 0.653098 0.740644 0.164360
C38   C     C_R   0.027617 0.235486 0.534309 0.050581
C39   C     C_R   0.970184 0.650882 0.738972 0.051855
C40   C     C_2   0.400242 0.601349 0.900843 0.678585
C41   C     C_2   0.602906 0.406510 0.089706 0.648179
C42   C     C_2   0.056772 0.125388 0.479282 0.687671
C43   C     C_2   0.941051 0.761302 0.792958 0.693548
C44   C     C_2   0.206032 0.722489 0.555472 0.686683
C45   C     C_R   0.297891 0.608633 0.549676 0.126040
C46   C     C_2   0.787956 0.287985 0.360316 0.679086
C47   C     C_2   0.599027 0.092421 0.644102 0.694933
C48   C     C_2   0.398074 0.919182 0.344775 0.682360
C49   C     C_2   0.496369 0.938934 0.778069 0.640383
C50   C     C_2   0.504947 0.076481 0.219965 0.666023
C51   C     C_R   0.698619 0.382707 0.450757 0.100906
C52   C     C_R   0.326957 0.503304 0.502622 -0.013002
C53   C     C_R   0.672033 0.489553 0.501676 -0.011375
C54   C     C_R   0.293852 0.401904 0.449618 0.157132
Cu1   Cu    Cu3+1 0.500010 0.499990 0.643150 1.134146
Cu2   Cu    Cu3+1 0.499990 0.500010 0.356850 1.135348
H1    H     H_    0.443701 0.744658 0.834131 0.334111
H2    H     H_    0.429558 0.157401 0.234242 0.363921
H3    H     H_    0.658452 0.268861 0.071088 0.380682
H4    H     H_    0.075641 0.948673 0.505061 0.379476
H5    H     H_    0.920254 0.867313 0.959788 0.378438
H6    H     H_    0.195603 0.893354 0.637384 0.386282
H7    H     H_    0.794370 0.114081 0.283890 0.383067
H8    H     H_    0.646112 0.236747 0.725448 0.366311
H9    H     H_    0.406950 0.735224 0.337165 0.335324
H10   H     H_    0.453669 0.957913 0.959368 0.405189
N1    N     N_R   0.850286 0.452235 0.588481 -0.380953
N2    N     N_R   0.147607 0.467496 0.591367 -0.379661
N3    N     N_3   0.500040 0.499970 0.858290 -0.335937
N4    N     N_3   0.499960 0.500030 0.141710 -0.305863
O1    O     O_R   0.500030 0.316850 0.620870 -0.430340
O2    O     O_2   0.151054 0.252353 0.573317 -0.384852
O3    O     O_2   0.844728 0.237023 0.589440 -0.378922
O4    O     O_2   0.153096 0.619737 0.769991 -0.368542
O5    O     O_2   0.353864 0.546350 0.906604 -0.360062
O6    O     O_R   0.402636 0.717809 0.849448 -0.559142
O7    O     O_2   0.639076 0.476431 0.144867 -0.438020
O8    O     O_R   0.616688 0.286110 0.052245 -0.597907
O9    O     O_2   0.081791 0.128311 0.368381 -0.389014
O10   O     O_R   0.054470 0.017817 0.553281 -0.596756
O11   O     O_2   0.918040 0.828554 0.712678 -0.376188
O12   O     O_R   0.499970 0.683150 0.379130 -0.480538
O13   O     O_R   0.941097 0.789309 0.935469 -0.597809
O14   O     O_2   0.166849 0.732574 0.472237 -0.467168
O15   O     O_R   0.220290 0.819698 0.649595 -0.529576
O16   O     O_2   0.827508 0.324982 0.288328 -0.462476
O17   O     O_R   0.771015 0.163604 0.353034 -0.549659
O18   O     O_2   0.632745 0.018867 0.686209 -0.353692
O19   O     O_R   0.609329 0.218057 0.670805 -0.642537
O20   O     O_2   0.365388 0.999418 0.317202 -0.350375
O21   O     O_R   0.383092 0.799864 0.297129 -0.580638
O22   O     O_2   0.537840 0.893953 0.831669 -0.389783
O23   O     O_R   0.500000 0.316860 0.379090 -0.491204
O24   O     O_R   0.448278 0.968881 0.856928 -0.557825
O25   O     O_2   0.547486 0.057835 0.150076 -0.306342
O26   O     O_R   0.459765 0.137548 0.163084 -0.596153
O27   O     O_R   0.500000 0.683140 0.620910 -0.493159
O28   O     O_R   0.417890 0.499960 0.620920 -0.476063
O29   O     O_R   0.582110 0.500040 0.379080 -0.444748
O30   O     O_R   0.417870 0.499970 0.379140 -0.480147
O31   O     O_R   0.582130 0.500030 0.620860 -0.455185
O32   O     O_2   0.846677 0.615577 0.754109 -0.391142

loop_
_geom_bond_atom_site_label_1
_geom_bond_atom_site_label_2
_ccdc_geom_bond_type
C52   C54   A    
C8    C15   S    
C13   C15   S    
H4    O10   S    
H7    O17   S    
C21   C22   S    
C44   O14   D    
C10   C13   S    
C48   O21   S    
Br13  C51   S    
C31   C32   A    
Cu2   O30   S    
H6    O15   S    
C42   O10   S    
C32   C35   A    
C18   C22   S    
C47   O19   S    
C40   O6    S    
Cu2   O23   S    
C45   C52   A    
Cu1   O28   S    
Cu2   N4    S    
C22   N3    S    
C26   O2    S    
C26   C35   A    
H5    O13   S    
H9    O21   S    
C1    O23   A    
C41   O7    D    
C5    C23   A    
C3    C5    A    
Br12  C45   S    
C1    C13   S    
C43   O13   S    
C51   C53   A    
C8    C11   S    
C28   N2    A    
C36   C38   A    
C34   C51   A    
C5    N2    S    
Br2   C2    S    
Br1   C36   S    
C7    C47   S    
C23   C44   S    
C1    O1    A    
Br4   C4    S    
C23   C45   A    
C7    C13   S    
C15   C50   S    
C27   N1    A    
C6    N1    S    
Br9   C19   S    
C27   C29   A    
C28   C30   A    
C27   O3    S    
C17   O31   A    
C30   C32   A    
C34   C46   S    
C48   O20   D    
C31   C33   A    
Cu2   O29   S    
C12   O12   A    
C42   O9    D    
C18   N4    S    
H2    O26   S    
C21   C41   S    
Br8   C18   S    
C26   N2    A    
C25   N1    A    
C40   O5    D    
C39   C43   S    
C11   C12   S    
C16   O28   A    
C37   C39   A    
C18   C20   S    
Br11  C24   S    
Cu2   O12   S    
C41   O8    S    
Cu1   N3    S    
C8    C48   S    
C19   N3    S    
C50   O26   S    
Br5   C9    S    
C35   C38   A    
Br6   C10   S    
C2    C53   A    
C6    C34   A    
C49   O22   D    
C29   C31   A    
C16   C52   S    
C30   C37   A    
C7    C14   S    
C20   C40   S    
C7    C9    S    
C8    C10   S    
C28   O4    S    
C20   N3    S    
C46   O17   S    
C9    C15   S    
Cu1   O1    S    
C25   C33   A    
C16   O30   A    
Cu1   O31   S    
C3    C54   A    
C24   N4    S    
H8    O19   S    
C20   C24   S    
C44   O15   S    
C10   C14   S    
H3    O8    S    
C46   O16   D    
C21   N4    S    
C29   C36   A    
H10   O24   S    
C19   C24   S    
C33   C39   A    
C47   O18   D    
Br7   C37   S    
Cu1   O27   S    
C50   O25   D    
H1    O6    S    
C19   C21   S    
Br3   C3    S    
C4    C6    A    
C9    C11   S    
Cu1   Cu2   S    
C17   C53   S    
C11   C14   S    
C14   C49   S    
C2    C4    A    
C25   O32   S    
C43   O11   D    
Br14  C54   S    
Br10  C22   S    
C49   O24   S    
C12   O27   A    
C17   O29   A    
C38   C42   S    
