data_mof_unit_52599.cif
_audit_creation_date              2012-12-10T19:00:00-0500
_audit_creation_method            fapswitch 2.2
_symmetry_space_group_name_H-M    P1
_symmetry_Int_Tables_number       1
_space_group_crystal_system       triclinic
_cell_length_a                    10.820059
_cell_length_b                    10.694097
_cell_length_c                    9.870264
_cell_angle_alpha                 90.063166
_cell_angle_beta                  91.00237
_cell_angle_gamma                 90.025978
_cell_volume                      1141.92015996

loop_
_atom_site_label
_atom_site_type_symbol
_atom_type_description
_atom_site_fract_x
_atom_site_fract_y
_atom_site_fract_z
_atom_type_partial_charge
C1    C     C_R   0.500028 0.260023 0.499904 0.865175
C2    C     C_R   0.536874 0.064238 0.617553 -0.203762
C3    C     C_R   0.499902 0.872452 0.500111 -0.004157
C4    C     C_R   0.500098 0.127548 0.499889 -0.004157
C5    C     C_R   0.512571 0.608991 0.072078 -0.065765
C6    C     C_R   0.487429 0.391008 0.927922 -0.065765
C7    C     C_R   0.513004 0.608922 0.928611 -0.072962
C8    C     C_R   0.486996 0.391077 0.071389 -0.072962
C9    C     C_R   0.259934 0.501537 0.498422 0.874171
C10   C     C_R   0.740066 0.498463 0.501577 0.874170
C11   C     C_R   0.198613 0.653381 0.062479 -0.210322
C12   C     C_R   0.499972 0.739977 0.500096 0.865174
C13   C     C_R   0.801387 0.346618 0.937521 -0.210322
C14   C     C_R   0.150519 0.641610 0.192109 -0.128586
C15   C     C_R   0.849480 0.358389 0.807891 -0.128586
C16   C     C_R   0.111322 0.524474 0.238243 0.117025
C17   C     C_R   0.888678 0.475526 0.761757 0.117025
C18   C     C_R   0.119635 0.419524 0.153706 -0.140796
C19   C     C_R   0.880364 0.580476 0.846294 -0.140796
C20   C     C_R   0.169459 0.430595 0.024278 0.270891
C21   C     C_R   0.830541 0.569405 0.975722 0.270891
C22   C     C_R   0.208497 0.548420 0.978978 -0.107985
C23   C     C_R   0.872668 0.497240 0.504275 -0.090797
C24   C     C_R   0.791503 0.451580 0.021021 -0.107985
C25   C     C_R   0.931495 0.508072 0.380236 -0.256740
C26   C     C_R   0.068505 0.491928 0.619763 -0.256740
C27   C     C_3   0.182222 0.316079 0.937665 -0.982866
C28   C     C_3   0.817778 0.683921 0.062335 -0.982866
C29   C     C_R   0.127332 0.502760 0.495725 -0.090796
C30   C     C_R   0.942080 0.488294 0.626026 0.005724
C31   C     C_R   0.057920 0.511706 0.373974 0.005724
C32   C     C_R   0.463243 0.063880 0.382337 -0.200830
C33   C     C_R   0.536757 0.936120 0.617662 -0.200829
C34   C     C_R   0.463126 0.935762 0.382447 -0.203762
H1    H     H_    0.248424 0.559348 0.880166 0.149434
H2    H     H_    0.911297 0.670877 0.810644 0.128165
H3    H     H_    0.879363 0.515156 0.286633 0.173011
H4    H     H_    0.120637 0.484844 0.713367 0.173011
H5    H     H_    0.433499 0.112756 0.291341 0.142047
H6    H     H_    0.566501 0.887244 0.708659 0.142047
H7    H     H_    0.433330 0.886588 0.291496 0.143964
H8    H     H_    0.566670 0.113412 0.708504 0.143964
H9    H     H_    0.522833 0.696511 0.125900 0.128221
H10   H     H_    0.477167 0.303488 0.874100 0.128221
H11   H     H_    0.229200 0.337037 0.841290 0.251494
H12   H     H_    0.751576 0.440652 0.119834 0.149434
H13   H     H_    0.237948 0.244779 0.993002 0.234512
H14   H     H_    0.089464 0.276673 0.913969 0.252782
H15   H     H_    0.770800 0.662963 0.158710 0.251494
H16   H     H_    0.910536 0.723327 0.086030 0.252782
H17   H     H_    0.762052 0.755221 0.006998 0.234512
H18   H     H_    0.523709 0.696352 0.875374 0.122620
H19   H     H_    0.476291 0.303648 0.124626 0.122620
H20   H     H_    0.229397 0.743736 0.027054 0.133270
H21   H     H_    0.770602 0.256264 0.972946 0.133270
H22   H     H_    0.143612 0.723358 0.256410 0.123057
H23   H     H_    0.856388 0.276642 0.743590 0.123057
H24   H     H_    0.088702 0.329123 0.189356 0.128165
N1    N     N_R   0.499970 0.499970 0.857200 -0.080677
N2    N     N_R   0.500030 0.500030 0.142800 -0.080677
O1    O     O_R   0.499990 0.316750 0.614620 -0.634017
O2    O     O_R   0.500010 0.683250 0.385380 -0.634017
O3    O     O_R   0.499990 0.316780 0.385290 -0.635490
O4    O     O_R   0.500010 0.683220 0.614710 -0.635490
O5    O     O_R   0.316760 0.500000 0.614660 -0.637441
O6    O     O_R   0.683240 0.500000 0.385340 -0.637441
O7    O     O_R   0.316760 0.500020 0.385330 -0.602930
O8    O     O_R   0.683240 0.499980 0.614670 -0.602930
Zn1   Zn    Zn3+2 0.500000 0.499980 0.653120 0.940560
Zn2   Zn    Zn3+2 0.500000 0.500020 0.346880 0.940560

loop_
_geom_bond_atom_site_label_1
_geom_bond_atom_site_label_2
_ccdc_geom_bond_type
C27   H14   S    
C25   C31   A    
C14   H22   S    
C9    O7    A    
C15   C17   A    
C22   H1    S    
C20   C27   S    
C10   O8    A    
C10   C23   S    
C12   O2    A    
C28   H15   S    
C11   C22   A    
C2    C4    A    
C3    C34   A    
O3    Zn2   S    
C9    C29   S    
O7    Zn2   S    
C24   H12   S    
C27   H11   S    
C10   O6    A    
C5    H9    S    
C8    H19   S    
C29   C31   A    
C4    C32   A    
O4    Zn1   S    
C8    N2    A    
C16   C31   S    
C17   C30   S    
C15   H23   S    
C32   C34   A    
N2    Zn2   S    
O6    Zn2   S    
C34   H7    S    
C2    H8    S    
O5    Zn1   S    
C1    O3    A    
C2    C33   A    
C11   H20   S    
C17   C19   A    
C21   C28   S    
N1    Zn1   S    
C7    H18   S    
C26   C30   A    
C18   C20   A    
C19   H2    S    
C23   C25   A    
C13   C15   A    
C12   O4    A    
C28   H17   S    
C9    O5    A    
C21   C24   A    
C1    C4    S    
O1    Zn1   S    
C3    C33   A    
C27   H13   S    
C33   H6    S    
C23   C30   A    
C6    C8    A    
O2    Zn2   S    
C26   C29   A    
C16   C18   A    
C32   H5    S    
C7    N1    A    
C11   C14   A    
C5    C7    A    
C26   H4    S    
C6    H10   S    
C3    C12   S    
C5    N2    A    
C19   C21   A    
C14   C16   A    
C25   H3    S    
C28   H16   S    
C6    N1    A    
C18   H24   S    
C13   C24   A    
C20   C22   A    
O8    Zn1   S    
C13   H21   S    
C1    O1    A    
