data_mof_unit_57926.cif
_audit_creation_date              2012-12-11T16:13:42-0500
_audit_creation_method            fapswitch 2.2
_symmetry_space_group_name_H-M    P1
_symmetry_Int_Tables_number       1
_space_group_crystal_system       triclinic
_cell_length_a                    26.196007
_cell_length_b                    7.254027
_cell_length_c                    23.734104
_cell_angle_alpha                 89.997964
_cell_angle_beta                  101.413559
_cell_angle_gamma                 89.998819
_cell_volume                      4420.91945455

loop_
_atom_site_label
_atom_site_type_symbol
_atom_type_description
_atom_site_fract_x
_atom_site_fract_y
_atom_site_fract_z
_atom_type_partial_charge
O1    O     O_R   0.192370 0.384760 0.193350 -0.531785
O2    O     O_R   0.807630 0.615240 0.806650 -0.531815
O3    O     O_R   0.307630 0.884760 0.306650 -0.531787
O4    O     O_R   0.692370 0.115240 0.693350 -0.531833
O5    O     O_R   0.296630 0.711620 0.196480 -0.542345
O6    O     O_R   0.703370 0.288380 0.803520 -0.541628
O7    O     O_R   0.203370 0.211620 0.303520 -0.542349
O8    O     O_R   0.796630 0.788380 0.696480 -0.541623
C1    C     C_R   0.312627 0.545690 0.184305 0.708640
C2    C     C_R   0.687307 0.454335 0.815635 0.710496
C3    C     C_R   0.187375 0.045687 0.315694 0.708651
C4    C     C_R   0.812693 0.954336 0.684367 0.710507
O9    O     O_R   0.192080 0.714290 0.186600 -0.532790
O10   O     O_R   0.807920 0.285710 0.813400 -0.532538
O11   O     O_R   0.307920 0.214290 0.313400 -0.532784
O12   O     O_R   0.692080 0.785710 0.686600 -0.532530
O13   O     O_R   0.202340 0.887460 0.296690 -0.538059
O14   O     O_R   0.797660 0.112540 0.703310 -0.539344
O15   O     O_R   0.297660 0.387460 0.203310 -0.538058
O16   O     O_R   0.702340 0.612540 0.796690 -0.539335
C5    C     C_R   0.173735 0.545959 0.171344 0.712337
C6    C     C_R   0.826292 0.454033 0.828613 0.713428
C7    C     C_R   0.326265 0.045952 0.328655 0.712339
C8    C     C_R   0.673708 0.954039 0.671387 0.713447
O17   O     O_3   0.253490 0.552180 0.286130 -0.374981
O18   O     O_3   0.746510 0.447820 0.713870 -0.375264
O19   O     O_3   0.246510 0.052180 0.213870 -0.374990
O20   O     O_3   0.753490 0.947820 0.786130 -0.375269
V1    V     V_3+5 0.249350 0.825920 0.243300 1.414390
V2    V     V_3+5 0.750650 0.174080 0.756700 1.415490
V3    V     V_3+5 0.250650 0.325920 0.256700 1.414393
V4    V     V_3+5 0.749350 0.674080 0.743300 1.415531
C9    C     C_3   0.530566 0.870502 0.486627 0.512936
C10   C     C_3   0.469239 0.129476 0.513671 0.512781
C11   C     C_3   0.969446 0.370468 0.013371 0.512942
C12   C     C_3   0.030751 0.629508 0.986326 0.512776
C13   C     C_3   0.514206 0.044467 0.449998 -0.269644
C14   C     C_3   0.485603 0.955500 0.550301 -0.268647
C15   C     C_3   0.985795 0.544429 0.050001 -0.269574
C16   C     C_3   0.014399 0.455536 0.949695 -0.268590
H1    H     H_    0.525855 0.078515 0.408719 0.130682
H2    H     H_    0.473966 0.921451 0.591588 0.132764
H3    H     H_    0.974144 0.578441 0.091282 0.130688
H4    H     H_    0.026037 0.421522 0.908407 0.132749
H5    H     H_    0.546695 0.296618 0.511357 0.146245
H6    H     H_    0.453115 0.703339 0.488943 0.146202
H7    H     H_    0.953281 0.796578 0.988644 0.146238
H8    H     H_    0.046912 0.203377 0.011051 0.146194
C17   C     C_1   0.371961 0.036925 0.374564 -0.177478
C18   C     C_1   0.627942 0.963052 0.625579 -0.175151
C19   C     C_1   0.128040 0.536946 0.125433 -0.177498
C20   C     C_1   0.872059 0.463030 0.874422 -0.175180
C21   C     C_3   0.474182 0.836765 0.494551 -0.293591
C22   C     C_3   0.525624 0.163203 0.505745 -0.293351
C23   C     C_3   0.025832 0.336784 0.005445 -0.293649
C24   C     C_3   0.974365 0.663182 0.994255 -0.293403
C25   C     C_3   0.457696 0.013085 0.458663 0.062405
C26   C     C_3   0.542108 0.986893 0.541630 0.061980
C27   C     C_3   0.042307 0.513101 0.041333 0.062398
C28   C     C_3   0.957892 0.486876 0.958370 0.061978
C29   C     C_1   0.410468 0.027430 0.412615 0.007456
C30   C     C_1   0.589377 0.972545 0.587611 0.009251
C31   C     C_1   0.089534 0.527454 0.087381 0.007433
C32   C     C_1   0.910623 0.472520 0.912389 0.009235
C33   C     C_R   0.874384 0.135048 0.636715 -0.216481
C34   C     C_R   0.123535 0.868054 0.361158 -0.239499
C35   C     C_R   0.625737 0.635135 0.863439 -0.216308
C36   C     C_R   0.376444 0.368040 0.138800 -0.239383
H9    H     H_    0.863071 0.260024 0.656006 0.144954
H10   H     H_    0.131886 0.745206 0.338657 0.137511
H11   H     H_    0.637125 0.760171 0.844242 0.145121
H12   H     H_    0.368071 0.245146 0.161268 0.137537
C37   C     C_R   0.912936 0.147139 0.603341 0.467008
C38   C     C_R   0.086075 0.856822 0.396031 0.437263
C39   C     C_R   0.587198 0.647266 0.896831 0.467540
C40   C     C_R   0.413910 0.356847 0.103934 0.437346
C41   C     C_R   0.927466 0.987877 0.575570 -0.096075
C42   C     C_R   0.074804 0.013464 0.427052 -0.085195
C43   C     C_R   0.572557 0.487909 0.924470 -0.096121
C44   C     C_R   0.425221 0.513558 0.072971 -0.085237
C45   C     C_R   0.904338 0.818289 0.585095 -0.191824
C46   C     C_R   0.100463 0.180133 0.420173 -0.203503
C47   C     C_R   0.595556 0.318224 0.914796 -0.191615
C48   C     C_R   0.399604 0.680266 0.079897 -0.203619
H13   H     H_    0.914625 0.693307 0.565043 0.199833
H14   H     H_    0.092720 0.303018 0.442999 0.195785
H15   H     H_    0.585185 0.193196 0.934759 0.199807
H16   H     H_    0.407384 0.803185 0.057107 0.195742
C49   C     C_R   0.867291 0.806807 0.620171 -0.165934
C50   C     C_R   0.136614 0.191279 0.384023 -0.153883
C51   C     C_R   0.632603 0.306733 0.879717 -0.165820
C52   C     C_R   0.363439 0.691374 0.116034 -0.153759
H17   H     H_    0.850729 0.673389 0.626468 0.152259
H18   H     H_    0.155289 0.322398 0.379870 0.149241
H19   H     H_    0.649077 0.173246 0.873317 0.152121
H20   H     H_    0.344792 0.822523 0.120222 0.149232
C53   C     C_R   0.851638 0.965165 0.646320 -0.119021
C54   C     C_R   0.148895 0.035147 0.354265 -0.109300
C55   C     C_R   0.648366 0.465163 0.853693 -0.119194
C56   C     C_R   0.351113 0.535170 0.145737 -0.109386
N1    N     N_R   0.986858 0.837638 0.520023 -0.292807
N2    N     N_R   0.015548 0.163963 0.482613 -0.300358
N3    N     N_R   0.512798 0.337814 0.979587 -0.293198
N4    N     N_R   0.484866 0.663911 0.017873 -0.300621
N5    N     N_R   0.021190 0.843174 0.485406 -0.224555
N6    N     N_R   0.981148 0.158371 0.517151 -0.244742
N7    N     N_R   0.478461 0.343369 0.014199 -0.224642
N8    N     N_R   0.519273 0.658294 0.983342 -0.244746
C57   C     C_R   0.036325 0.006393 0.465826 0.518248
C58   C     C_R   0.966083 0.995207 0.536856 0.509781
C59   C     C_R   0.463706 0.506477 0.034213 0.518432
C60   C     C_R   0.533956 0.495250 0.963198 0.509625
O21   O     O_3   0.565787 0.735668 0.474695 -0.550218
C61   C     C_3   0.542548 0.634461 0.425524 0.081097
H21   H     H_    0.527046 0.726906 0.388606 0.113621
H22   H     H_    0.510486 0.546722 0.435105 0.126517
C62   C     C_3   0.583172 0.509128 0.407793 -0.691442
H23   H     H_    0.599901 0.415288 0.443661 0.227754
H24   H     H_    0.564914 0.425073 0.370059 0.167596
H25   H     H_    0.614961 0.593190 0.396128 0.226019
O22   O     O_3   0.434042 0.264346 0.525638 -0.550386
C63   C     C_3   0.457309 0.365413 0.574832 0.080539
H26   H     H_    0.489382 0.453122 0.565263 0.126719
H27   H     H_    0.472804 0.272868 0.611728 0.116081
C64   C     C_3   0.416718 0.490787 0.592611 -0.688366
H28   H     H_    0.384918 0.406762 0.604268 0.226289
H29   H     H_    0.435005 0.574720 0.630364 0.170700
H30   H     H_    0.399999 0.584744 0.556771 0.226981
O23   O     O_3   0.934234 0.235611 0.025310 -0.550217
C65   C     C_3   0.957501 0.134308 0.074456 0.081075
H31   H     H_    0.973053 0.226681 0.111376 0.113600
H32   H     H_    0.989531 0.046509 0.064823 0.126533
C66   C     C_3   0.916880 0.009046 0.092224 -0.691346
H33   H     H_    0.900090 0.915313 0.056349 0.227774
H34   H     H_    0.935163 0.924870 0.129927 0.167571
H35   H     H_    0.885129 0.093174 0.103958 0.225980
O24   O     O_3   0.065939 0.764403 0.974352 -0.550392
C67   C     C_3   0.042646 0.865554 0.925181 0.080540
H36   H     H_    0.010602 0.953319 0.934797 0.126737
H37   H     H_    0.027106 0.773073 0.888284 0.116056
C68   C     C_3   0.083234 0.990862 0.907366 -0.688340
H38   H     H_    0.114999 0.906774 0.895647 0.226244
H39   H     H_    0.064924 0.074901 0.869641 0.170664
H40   H     H_    0.100008 0.084726 0.943212 0.226998
O25   O     O_3   0.934212 0.318195 0.596392 -0.556751
C69   C     C_3   0.981571 0.339603 0.636661 0.130793
H41   H     H_    0.006890 0.433523 0.617369 0.176846
H42   H     H_    0.003839 0.208426 0.646649 0.100357
C70   C     C_3   0.972251 0.428279 0.692075 -0.800539
H43   H     H_    0.950869 0.332271 0.715508 0.208904
H44   H     H_    0.010204 0.461691 0.720319 0.194735
H45   H     H_    0.949503 0.557400 0.682266 0.237554
O26   O     O_3   0.061642 0.690085 0.400456 -0.545951
C71   C     C_3   0.018335 0.676565 0.354549 0.087664
H46   H     H_    0.031106 0.672317 0.312493 0.101233
H47   H     H_    0.991135 0.794712 0.354781 0.117917
C72   C     C_3   0.988723 0.499828 0.360833 -0.645867
H48   H     H_    0.976830 0.497174 0.403228 0.260147
H49   H     H_    0.953337 0.492077 0.326318 0.162792
H50   H     H_    0.013602 0.378333 0.357222 0.213133
O27   O     O_3   0.566086 0.818470 0.903962 -0.557003
C73   C     C_3   0.518636 0.840446 0.863887 0.130236
H51   H     H_    0.493691 0.935941 0.883128 0.177020
H52   H     H_    0.496038 0.709813 0.854390 0.101154
C74   C     C_3   0.527841 0.926950 0.808120 -0.801931
H53   H     H_    0.548579 0.828994 0.784626 0.209080
H54   H     H_    0.489872 0.961761 0.780136 0.195184
H55   H     H_    0.551161 0.054961 0.817465 0.237469
O28   O     O_3   0.438348 0.190125 0.099498 -0.546034
C75   C     C_3   0.481726 0.176788 0.145327 0.087164
H56   H     H_    0.469035 0.172571 0.187428 0.101398
H57   H     H_    0.508888 0.295001 0.145012 0.117892
C76   C     C_3   0.511363 0.000123 0.139014 -0.645521
H58   H     H_    0.523184 0.997469 0.096581 0.260236
H59   H     H_    0.546794 0.992503 0.173472 0.162822
H60   H     H_    0.486530 0.878563 0.142697 0.213204

loop_
_geom_bond_atom_site_label_1
_geom_bond_atom_site_label_2
_ccdc_geom_bond_type
O17   V3    S    
H8    C23   S    
C47   H15   S    
C26   C30   S    
C74   H53   S    
C16   C28   S    
C23   C27   S    
O19   V1    S    
O13   V1    S    
O28   C75   S    
O12   C8    A    
O3    C7    A    
C52   H20   S    
C44   C48   A    
C12   C27   S    
O15   V3    S    
C62   H24   S    
O27   C73   S    
O4    V2    S    
C34   H10   S    
C76   H58   S    
O1    C5    A    
C9    C26   S    
C43   C60   S    
C3    C54   S    
O9    V1    S    
C73   H51   S    
C70   H44   S    
C69   H42   S    
O25   C69   S    
C11   C15   S    
O4    C8    A    
C7    C17   S    
C75   H56   S    
C34   C38   A    
O1    V3    S    
C33   C37   A    
C44   C59   S    
O2    V4    S    
O3    V1    S    
C49   C53   A    
O12   V4    S    
C4    C53   S    
C14   C26   S    
C68   H38   S    
C1    O15   A    
C72   H48   S    
C2    O16   A    
O2    C6    A    
C64   H30   S    
O14   V2    S    
C12   O24   S    
C11   O23   S    
C71   H47   S    
C35   C55   A    
C45   C49   A    
C9    O21   S    
N4    N8    A    
O11   C7    A    
C72   H49   S    
C9    C21   S    
C40   O28   S    
O10   V2    S    
O16   V4    S    
C50   H18   S    
C73   H52   S    
C76   H59   S    
N1    N5    A    
O7    V3    S    
C69   H41   S    
C11   C23   S    
O8    V4    S    
C48   H16   S    
C12   C16   S    
C19   C31   T    
C36   H12   S    
C71   C72   S    
O21   C61   S    
C20   C32   T    
C62   H25   S    
C21   C25   S    
O18   V4    S    
C15   H3    S    
N1    C58   A    
C46   H14   S    
C49   H17   S    
C9    C13   S    
N8    C60   A    
C38   O26   S    
C37   O25   S    
N3    C60   A    
C65   H32   S    
C36   C56   A    
O5    C1    A    
C12   C24   S    
C66   H35   S    
C69   C70   S    
C42   C46   A    
O7    C3    A    
C15   C24   S    
C41   C45   A    
O8    C4    A    
C16   C23   S    
C15   C27   S    
C22   C26   S    
C71   H46   S    
O9    C5    A    
O11   V3    S    
C8    C18   S    
O22   C63   S    
C67   H37   S    
C13   C22   S    
C74   H55   S    
O6    V2    S    
H5    C22   S    
C10   C22   S    
C1    C56   S    
C64   H28   S    
C18   C30   T    
C70   H45   S    
C65   C66   S    
C36   C40   A    
C63   H27   S    
O5    V1    S    
C5    C19   S    
C52   C56   A    
C6    C20   S    
O23   C65   S    
N6    C58   A    
C76   H60   S    
N5    C57   A    
C3    O13   A    
C10   C14   S    
C73   C74   S    
N7    C59   A    
C40   C44   A    
C67   C68   S    
O6    C2    A    
N4    C59   A    
C61   H22   S    
C25   C29   S    
C68   H40   S    
C72   H50   S    
C10   O22   S    
C47   C51   A    
O24   C67   S    
C27   C31   S    
C46   C50   A    
C28   C32   S    
C39   O27   S    
C34   C54   A    
C63   C64   S    
C68   H39   S    
C65   H31   S    
O26   C71   S    
C33   C53   A    
C62   H23   S    
C43   C47   A    
C17   C29   T    
O10   C6    A    
C66   H33   S    
C14   C21   S    
C75   H57   S    
C10   C25   S    
C33   H9    S    
H6    C21   S    
O20   V2    S    
N2    N6    A    
C42   C57   S    
C35   H11   S    
C61   H21   S    
C13   H1    S    
C2    C55   S    
C45   H13   S    
C61   C62   S    
C67   H36   S    
C51   H19   S    
C14   H2    S    
C24   C28   S    
C16   H4    S    
C35   C39   A    
C74   H54   S    
C38   C42   A    
C4    O14   A    
C64   H29   S    
C66   H34   S    
C37   C41   A    
C11   C28   S    
N2    C57   A    
N3    N7    A    
C48   C52   A    
C51   C55   A    
C63   H26   S    
C70   H43   S    
C39   C43   A    
C41   C58   S    
C50   C54   A    
C13   C25   S    
H7    C24   S    
C75   C76   S    
