data_mof_unit_30895.cif
_audit_creation_date              2013-03-05T15:45:48-0500
_audit_creation_method            fapswitch 2.2
_symmetry_space_group_name_H-M    P1
_symmetry_Int_Tables_number       1
_space_group_crystal_system       triclinic
_cell_length_a                    9.830143
_cell_length_b                    11.13652
_cell_length_c                    15.823384
_cell_angle_alpha                 94.750014
_cell_angle_beta                  79.061363
_cell_angle_gamma                 111.692556
_cell_volume                      1580.16954538

loop_
_atom_site_label
_atom_site_type_symbol
_atom_site_description
_atom_site_fract_x
_atom_site_fract_y
_atom_site_fract_z
_atom_type_partial_charge
O1    O     O_R   0.426810 0.668300 0.492040 -0.538520
O2    O     O_R   0.573190 0.331700 0.507960 -0.539249
O3    O     O_R   0.658240 0.703130 0.517240 -0.578983
O4    O     O_R   0.341760 0.296870 0.482760 -0.576541
C1    C     C_R   0.556939 0.745000 0.504636 0.876515
C2    C     C_R   0.443020 0.255012 0.495422 0.879148
O5    O     O_R   0.319390 0.472820 0.610170 -0.549472
O6    O     O_R   0.680610 0.527180 0.389830 -0.553970
O7    O     O_R   0.550820 0.507640 0.635370 -0.583167
O8    O     O_R   0.449180 0.492360 0.364630 -0.582191
C3    C     C_R   0.409834 0.483108 0.662838 0.838533
C4    C     C_R   0.589989 0.515399 0.336961 0.841578
Cu1   Cu    Cu3+1 0.362980 0.479380 0.485080 1.049676
Cu2   Cu    Cu3+1 0.637020 0.520620 0.514920 1.045328
C5    C     C_R   0.352000 0.460469 0.755796 -0.179079
C6    C     C_R   0.646015 0.524907 0.242988 -0.215897
C7    C     C_R   0.153530 0.374377 0.877921 0.037059
C8    C     C_R   0.843038 0.565492 0.117353 0.070769
C9    C     C_R   0.199285 0.400824 0.789324 0.302219
C10   C     C_R   0.798379 0.560175 0.207136 0.351187
C11   C     C_R   0.455685 0.493282 0.811214 -0.261743
C12   C     C_R   0.541496 0.495428 0.188213 -0.263142
C13   C     C_R   0.414139 0.460147 0.898484 0.051933
C14   C     C_R   0.582192 0.496129 0.098234 0.072289
C15   C     C_R   0.260503 0.403944 0.932360 0.099240
C16   C     C_R   0.735636 0.535253 0.062690 0.048340
C17   C     C_R   0.521747 0.482455 0.952890 0.087397
C18   C     C_R   0.474033 0.462370 0.042895 0.090676
C19   C     C_R   0.319830 0.405887 0.074274 -0.190904
C20   C     C_R   0.675219 0.519725 0.919726 -0.171317
C21   C     C_R   0.216068 0.376348 0.020059 -0.152847
C22   C     C_R   0.779082 0.544578 0.973304 -0.203217
H1    H     H_    0.099747 0.331786 0.047908 0.190547
H2    H     H_    0.894609 0.572874 0.943309 0.152019
H3    H     H_    0.427627 0.475419 0.217646 0.185204
H4    H     H_    0.569672 0.546943 0.784573 0.167662
H5    H     H_    0.274792 0.377894 0.140258 0.153918
H6    H     H_    0.719331 0.526271 0.851822 0.164513
C23   C     C_2   0.583939 0.882389 0.513163 -0.372355
C24   C     C_2   0.415915 0.117634 0.486992 -0.367952
C25   C     C_2   0.495262 0.933865 0.486333 0.247430
C26   C     C_2   0.504256 0.066068 0.514098 0.247566
H7    H     H_    0.330251 0.061406 0.450265 0.189993
H8    H     H_    0.669860 0.938703 0.549698 0.190583
H9    H     H_    0.123530 0.575768 0.556695 0.154264
H10   H     H_    0.876805 0.424798 0.442956 0.156482
N1    N     N_2   0.842890 0.551600 0.537350 -0.150436
N2    N     N_2   0.157110 0.448400 0.462650 -0.149786
C27   C     C_2   0.923741 0.491451 0.492871 0.224667
C28   C     C_2   0.076382 0.508758 0.506993 0.227234
N3    N     N_R   0.909945 0.596332 0.260833 0.149842
O9    O     O_R   0.999492 0.533231 0.254997 -0.347297
O10   O     O_R   0.936890 0.703748 0.305288 -0.306775
N4    N     N_R   0.090215 0.362566 0.734046 0.126826
O11   O     O_R   0.000704 0.424970 0.736712 -0.376603
O12   O     O_R   0.073703 0.259959 0.685257 -0.315990
N5    N     N_3   0.998647 0.312197 0.912317 -0.593720
H11   H     H_    0.957721 0.224221 0.879620 0.270105
H12   H     H_    0.941960 0.370605 0.901052 0.254417
N6    N     N_3   0.999086 0.605521 0.083324 -0.514268
H13   H     H_    0.018328 0.532267 0.042920 0.226398
H14   H     H_    0.031028 0.689488 0.047760 0.229617
N7    N     N_R   0.606398 0.138016 0.570638 0.131783
O13   O     O_R   0.749059 0.176940 0.543217 -0.348886
O14   O     O_R   0.556479 0.174228 0.646693 -0.323606
N8    N     N_R   0.392690 0.861812 0.430053 0.132303
O15   O     O_R   0.250112 0.823100 0.457724 -0.351263
O16   O     O_R   0.442150 0.825757 0.353843 -0.318299
N9    N     N_3   0.097718 0.361116 0.399307 -0.479886
H15   H     H_    0.169392 0.391955 0.341068 0.253723
H16   H     H_    0.101138 0.272306 0.413163 0.263145
N10   N     N_3   0.901645 0.637790 0.601347 -0.487068
H17   H     H_    0.829862 0.605740 0.659380 0.248674
H18   H     H_    0.897760 0.726764 0.588302 0.263626

loop_
_geom_bond_atom_site_label_1
_geom_bond_atom_site_label_2
_geom_bond_distance
_ccdc_geom_bond_type
C15   C21   1.397256 A    
Cu1   N2    2.019070 S    
N8    O16   1.301319 A    
O7    Cu2   1.927079 S    
N7    O14   1.301343 A    
N4    O12   1.300928 A    
C16   C22   1.398558 A    
C25   N8    1.441508 S    
C13   C17   1.427489 A    
C14   C18   1.428939 A    
C25   C26   1.476425 S    
C8    C10   1.404476 A    
C8    C16   1.418349 A    
C6    C10   1.413836 A    
N2    N9    1.389796 S    
O6    C4    1.299560 A    
C7    C15   1.413163 A    
N2    C28   1.295686 D    
N8    O15   1.301399 A    
N1    C27   1.295721 D    
C11   H4    1.076013 S    
Cu1   Cu2   2.687550 S    
N6    H14   1.045341 S    
C20   C22   1.385102 A    
C12   H3    1.074454 S    
O7    C3    1.302090 A    
H10   C27   1.084298 S    
C20   H6    1.077315 S    
N5    H11   1.045505 S    
O2    C2    1.290929 A    
O3    Cu2   1.962942 S    
O8    C4    1.303658 A    
H9    C28   1.084281 S    
O1    C1    1.290927 A    
C9    N4    1.432706 S    
N10   H18   1.044363 S    
C18   C19   1.414639 A    
C7    C9    1.409093 A    
C14   C16   1.419199 A    
O5    C3    1.299309 A    
C10   N3    1.434351 S    
C12   C14   1.403768 A    
C11   C13   1.403142 A    
N9    H15   1.044366 S    
O2    Cu2   1.960671 S    
C2    C24   1.451814 S    
N1    N10   1.389792 S    
N5    H12   1.044148 S    
O4    C2    1.297094 A    
O1    Cu1   1.960669 S    
C21   H1    1.083257 S    
C23   H8    1.083776 S    
C19   H5    1.076924 S    
N3    O9    1.301116 A    
C4    C6    1.482495 S    
C5    C11   1.397185 A    
C13   C15   1.417571 A    
N3    O10   1.301182 A    
C23   C25   1.348674 D    
N10   H17   1.044384 S    
C19   C21   1.386299 A    
C27   C28   1.498285 S    
C8    N6    1.436140 S    
O4    Cu1   1.962944 S    
N9    H16   1.044357 S    
C1    C23   1.452181 S    
C17   C20   1.412945 A    
N4    O11   1.300813 A    
N6    H13   1.044906 S    
C6    C12   1.398612 A    
O5    Cu1   1.945685 S    
O6    Cu2   1.945684 S    
O3    C1    1.297246 A    
C5    C9    1.412535 A    
Cu2   N1    2.019071 S    
C3    C5    1.479340 S    
C26   N7    1.441538 S    
C24   H7    1.083787 S    
N7    O13   1.301402 A    
C7    N5    1.436092 S    
C24   C26   1.348583 D    
C17   C18   1.421263 A    
O8    Cu1   1.927076 S    
C22   H2    1.081632 S    
