data_mof_unit_20457.cif
_audit_creation_date              2012-12-11T14:30:07-0500
_audit_creation_method            fapswitch 2.2
_symmetry_space_group_name_H-M    P1
_symmetry_Int_Tables_number       1
_space_group_crystal_system       triclinic
_cell_length_a                    12.736733
_cell_length_b                    12.736735
_cell_length_c                    27.306751
_cell_angle_alpha                 89.999974
_cell_angle_beta                  89.999976
_cell_angle_gamma                 120.000193
_cell_volume                      3836.33015059

loop_
_atom_site_label
_atom_site_type_symbol
_atom_type_description
_atom_site_fract_x
_atom_site_fract_y
_atom_site_fract_z
_atom_type_partial_charge
C1    C     C_R   0.561503 0.457397 0.823117 0.527369
C2    C     C_R   0.895894 0.438497 0.676883 0.527369
C3    C     C_R   0.542602 0.104106 0.823117 0.527368
C4    C     C_R   0.561503 0.457397 0.676883 0.527369
C5    C     C_R   0.895894 0.438497 0.823117 0.527368
C6    C     C_R   0.542603 0.104106 0.676883 0.527369
C7    C     C_R   0.455500 0.559181 0.322289 0.527339
C8    C     C_R   0.440819 0.896318 0.177711 0.527338
C9    C     C_R   0.103682 0.544500 0.322289 0.527338
C10   C     C_R   0.455500 0.559181 0.177711 0.527339
C11   C     C_R   0.440819 0.896318 0.322289 0.527338
C12   C     C_R   0.103682 0.544500 0.177711 0.527339
C13   C     C_R   0.014625 0.490011 0.974022 0.013635
C14   C     C_R   0.475385 0.985375 0.525978 0.013636
C15   C     C_R   0.509989 0.524614 0.974022 0.013635
C16   C     C_R   0.014626 0.490011 0.525978 0.013635
C17   C     C_R   0.475384 0.985374 0.974022 0.013635
C18   C     C_R   0.509989 0.524614 0.525978 0.013635
C19   C     C_R   0.475601 0.972360 0.474450 0.029630
C20   C     C_R   0.027639 0.503241 0.025550 0.029630
C21   C     C_R   0.496759 0.524398 0.474450 0.029630
C22   C     C_R   0.475600 0.972360 0.025550 0.029629
C23   C     C_R   0.027640 0.503241 0.474450 0.029629
C24   C     C_R   0.496759 0.524398 0.025550 0.029630
C25   C     C_R   0.117400 0.708314 0.964508 -0.071793
C26   C     C_R   0.590914 0.882600 0.535492 -0.071793
C27   C     C_R   0.291686 0.409084 0.964508 -0.071793
C28   C     C_R   0.117399 0.708315 0.535492 -0.071793
C29   C     C_R   0.590913 0.882599 0.964507 -0.071793
C30   C     C_R   0.291686 0.409085 0.535492 -0.071792
C31   C     C_R   0.583428 0.861662 0.484777 -0.066466
C32   C     C_R   0.138338 0.721766 0.015223 -0.066466
C33   C     C_R   0.278234 0.416570 0.484777 -0.066466
C34   C     C_R   0.583427 0.861661 0.015223 -0.066467
C35   C     C_R   0.138336 0.721766 0.484777 -0.066466
C36   C     C_R   0.278234 0.416570 0.015223 -0.066467
C37   C     C_R   0.021434 0.576134 0.893359 -0.170416
C38   C     C_R   0.554700 0.978566 0.606641 -0.170416
C39   C     C_R   0.423865 0.445299 0.893359 -0.170416
C40   C     C_R   0.021434 0.576135 0.606641 -0.170417
C41   C     C_R   0.554699 0.978565 0.893359 -0.170416
C42   C     C_R   0.423865 0.445299 0.606641 -0.170416
C43   C     C_R   0.526477 0.895315 0.403126 -0.118088
C44   C     C_R   0.104684 0.631161 0.096874 -0.118087
C45   C     C_R   0.368839 0.473522 0.403126 -0.118088
C46   C     C_R   0.526476 0.895315 0.096874 -0.118087
C47   C     C_R   0.104683 0.631161 0.403126 -0.118087
C48   C     C_R   0.368839 0.473522 0.096874 -0.118088
C49   C     C_R   0.054896 0.528082 0.127661 0.010182
C50   C     C_R   0.473187 0.945104 0.372339 0.010181
C51   C     C_R   0.471917 0.526813 0.127661 0.010181
C52   C     C_R   0.054896 0.528082 0.372339 0.010182
C53   C     C_R   0.473187 0.945104 0.127661 0.010183
C54   C     C_R   0.471917 0.526813 0.372338 0.010182
C55   C     C_R   0.512336 0.053281 0.625702 -0.019011
C56   C     C_R   0.946719 0.459056 0.874298 -0.019011
C57   C     C_R   0.540944 0.487664 0.625702 -0.019011
C58   C     C_R   0.512336 0.053280 0.874298 -0.019011
C59   C     C_R   0.946720 0.459056 0.625702 -0.019011
C60   C     C_R   0.540944 0.487663 0.874298 -0.019011
C61   C     C_R   0.053004 0.592265 0.943511 0.023319
C62   C     C_R   0.539260 0.946996 0.556489 0.023319
C63   C     C_R   0.407735 0.460739 0.943511 0.023319
C64   C     C_R   0.053005 0.592266 0.556489 0.023318
C65   C     C_R   0.539259 0.946994 0.943511 0.023319
C66   C     C_R   0.407735 0.460739 0.556489 0.023318
C67   C     C_R   0.528457 0.908951 0.453968 0.047276
C68   C     C_R   0.091048 0.619506 0.046032 0.047275
C69   C     C_R   0.380494 0.471541 0.453968 0.047275
C70   C     C_R   0.528456 0.908951 0.046032 0.047275
C71   C     C_R   0.091048 0.619506 0.453968 0.047276
C72   C     C_R   0.380494 0.471542 0.046032 0.047275
C73   C     C_R   0.917940 0.355775 0.905053 0.012933
C74   C     C_R   0.437835 0.082059 0.594947 0.012934
C75   C     C_R   0.644225 0.562165 0.905053 0.012934
C76   C     C_R   0.917942 0.355775 0.594947 0.012935
C77   C     C_R   0.437834 0.082059 0.905053 0.012934
C78   C     C_R   0.644225 0.562166 0.594947 0.012934
C79   C     C_R   0.430041 0.019825 0.392197 0.028569
C80   C     C_R   0.980174 0.410215 0.107803 0.028569
C81   C     C_R   0.589785 0.569959 0.392197 0.028570
C82   C     C_R   0.430042 0.019826 0.107803 0.028572
C83   C     C_R   0.980175 0.410215 0.392197 0.028570
C84   C     C_R   0.589785 0.569959 0.107803 0.028569
C85   C     C_R   0.959646 0.373105 0.953783 -0.012059
C86   C     C_R   0.413459 0.040353 0.546217 -0.012059
C87   C     C_R   0.626894 0.586541 0.953783 -0.012059
C88   C     C_R   0.959650 0.373106 0.546217 -0.012060
C89   C     C_R   0.413458 0.040352 0.953783 -0.012059
C90   C     C_R   0.626895 0.586541 0.546216 -0.012059
C91   C     C_R   0.432004 0.032605 0.443754 0.027630
C92   C     C_R   0.967395 0.399399 0.056246 0.027630
C93   C     C_R   0.600601 0.567996 0.443754 0.027631
C94   C     C_R   0.432003 0.032604 0.056246 0.027631
C95   C     C_R   0.967397 0.399398 0.443754 0.027630
C96   C     C_R   0.600601 0.567997 0.056246 0.027631
C97   C     C_R   0.901789 0.286270 0.033671 0.256140
C98   C     C_R   0.384480 0.098210 0.466329 0.256139
C99   C     C_R   0.713731 0.615521 0.033671 0.256140
C100  C     C_R   0.901793 0.286269 0.466330 0.256139
C101  C     C_R   0.384479 0.098209 0.033671 0.256139
C102  C     C_R   0.713731 0.615521 0.466329 0.256140
C103  C     C_R   0.346841 0.071947 0.514038 0.227683
C104  C     C_R   0.928051 0.274893 0.985962 0.227683
C105  C     C_R   0.725107 0.653160 0.514038 0.227684
C106  C     C_R   0.346839 0.071945 0.985962 0.227683
C107  C     C_R   0.928057 0.274894 0.514038 0.227682
C108  C     C_R   0.725107 0.653160 0.985962 0.227684
Cr1   Cr    Cr6+3 0.487630 0.241180 0.750000 0.965275
Cr2   Cr    Cr6+3 0.753550 0.512370 0.750000 0.965275
Cr3   Cr    Cr6+3 0.758820 0.246450 0.750000 0.965275
Cr4   Cr    Cr6+3 0.241180 0.487630 0.250000 1.000126
Cr5   Cr    Cr6+3 0.512370 0.753550 0.250000 1.000127
Cr6   Cr    Cr6+3 0.246450 0.758820 0.250000 1.000126
H1    H     H_    0.160275 0.720944 0.112278 0.131088
H2    H     H_    0.560669 0.839725 0.387722 0.131087
H3    H     H_    0.279056 0.439329 0.112278 0.131087
H4    H     H_    0.160273 0.720944 0.387722 0.131088
H5    H     H_    0.560668 0.839724 0.112278 0.131087
H6    H     H_    0.279056 0.439329 0.387722 0.131087
H7    H     H_    0.605344 0.951146 0.630064 0.107907
H8    H     H_    0.048855 0.654198 0.869936 0.107907
H9    H     H_    0.345802 0.394656 0.630064 0.107907
H10   H     H_    0.605342 0.951144 0.869936 0.107907
H11   H     H_    0.048853 0.654199 0.630063 0.107907
H12   H     H_    0.345802 0.394655 0.869936 0.107907
H13   H     H_    0.187531 0.812190 0.030566 0.125782
H14   H     H_    0.624658 0.812468 0.469434 0.125781
H15   H     H_    0.187810 0.375340 0.030566 0.125782
H16   H     H_    0.187529 0.812191 0.469433 0.125783
H17   H     H_    0.624657 0.812468 0.030566 0.125781
H18   H     H_    0.187810 0.375339 0.469434 0.125782
H19   H     H_    0.638759 0.850206 0.558098 0.147622
H20   H     H_    0.149794 0.788554 0.941902 0.147623
H21   H     H_    0.211446 0.361239 0.558098 0.147625
H22   H     H_    0.638757 0.850204 0.941902 0.147623
H23   H     H_    0.149792 0.788555 0.558098 0.147624
H24   H     H_    0.211446 0.361239 0.941902 0.147623
O1    O     O_R   0.460870 0.120930 0.805240 -0.518634
O2    O     O_R   0.660060 0.539130 0.694760 -0.518634
O3    O     O_R   0.879070 0.339940 0.805240 -0.518635
O4    O     O_R   0.460870 0.120930 0.694760 -0.518634
O5    O     O_R   0.660060 0.539130 0.805240 -0.518634
O6    O     O_R   0.879070 0.339940 0.694760 -0.518634
O7    O     O_R   0.120930 0.460870 0.305240 -0.531517
O8    O     O_R   0.539130 0.660060 0.194760 -0.531517
O9    O     O_R   0.339940 0.879070 0.305240 -0.531517
O10   O     O_R   0.120930 0.460870 0.194760 -0.531518
O11   O     O_R   0.539130 0.660060 0.305240 -0.531518
O12   O     O_R   0.339940 0.879070 0.194760 -0.531517
O13   O     O_R   0.498910 0.350470 0.801870 -0.520205
O14   O     O_R   0.851560 0.501090 0.698130 -0.520205
O15   O     O_R   0.649530 0.148440 0.801870 -0.520204
O16   O     O_R   0.498910 0.350470 0.698130 -0.520205
O17   O     O_R   0.851560 0.501090 0.801870 -0.520206
O18   O     O_R   0.649530 0.148440 0.698130 -0.520205
O19   O     O_R   0.350470 0.498910 0.301870 -0.501663
O20   O     O_R   0.501090 0.851560 0.198130 -0.501664
O21   O     O_R   0.148440 0.649530 0.301870 -0.501663
O22   O     O_R   0.350470 0.498910 0.198130 -0.501664
O23   O     O_R   0.501090 0.851560 0.301870 -0.501664
O24   O     O_R   0.148440 0.649530 0.198130 -0.501663
O25   O     O_3   0.666667 0.333333 0.750000 -0.227486
O26   O     O_3   0.333333 0.666667 0.250000 -0.234327
C109  C     C_3   0.922354 0.296727 0.140865 -0.223035
C110  C     C_3   0.823138 0.293137 0.173405 -0.404487
H25   H     H_    0.860321 0.373178 0.197992 0.138646
H26   H     H_    0.750774 0.291610 0.150322 0.197128
H27   H     H_    0.782642 0.209897 0.196279 0.130033
H28   H     H_    0.884548 0.210696 0.120740 0.196919
H29   H     H_    0.988503 0.285667 0.162888 0.163192
C111  C     C_3   0.374374 0.077646 0.359135 -0.223035
C112  C     C_3   0.470003 0.176863 0.326595 -0.404488
H30   H     H_    0.540837 0.249229 0.349679 0.197129
H31   H     H_    0.512864 0.139681 0.302009 0.138646
H32   H     H_    0.427257 0.217356 0.303720 0.130032
H33   H     H_    0.297166 0.011498 0.337112 0.163192
H34   H     H_    0.326150 0.115452 0.379260 0.196918
C113  C     C_3   0.703273 0.625627 0.140865 -0.223035
C114  C     C_3   0.706863 0.530000 0.173405 -0.404487
H35   H     H_    0.626819 0.487138 0.197990 0.138645
H36   H     H_    0.708395 0.459166 0.150321 0.197130
H37   H     H_    0.790101 0.572746 0.196280 0.130033
H38   H     H_    0.789303 0.673853 0.120739 0.196918
H39   H     H_    0.714332 0.702835 0.162888 0.163192
C115  C     C_3   0.922353 0.296727 0.359135 -0.223035
C116  C     C_3   0.823134 0.293137 0.326596 -0.404488
H40   H     H_    0.750770 0.291606 0.349681 0.197133
H41   H     H_    0.860315 0.373180 0.302011 0.138644
H42   H     H_    0.782640 0.209898 0.303721 0.130032
H43   H     H_    0.988500 0.285668 0.337111 0.163192
H44   H     H_    0.884549 0.210696 0.379260 0.196919
C117  C     C_3   0.374378 0.077649 0.140865 -0.223036
C118  C     C_3   0.470009 0.176868 0.173403 -0.404488
H45   H     H_    0.512872 0.139687 0.197989 0.138644
H46   H     H_    0.540841 0.249232 0.150318 0.197134
H47   H     H_    0.427266 0.217363 0.196279 0.130031
H48   H     H_    0.326152 0.115454 0.120740 0.196918
H49   H     H_    0.297172 0.011503 0.162890 0.163192
C119  C     C_3   0.703273 0.625625 0.359135 -0.223035
C120  C     C_3   0.706861 0.529997 0.326595 -0.404487
H50   H     H_    0.708393 0.459163 0.349680 0.197131
H51   H     H_    0.626818 0.487134 0.302010 0.138645
H52   H     H_    0.790100 0.572742 0.303720 0.130032
H53   H     H_    0.714332 0.702832 0.337111 0.163192
H54   H     H_    0.789303 0.673851 0.379260 0.196918
C121  C     C_3   0.412087 0.182901 0.608427 -0.195306
C122  C     C_3   0.291085 0.137656 0.636057 -0.338316
H55   H     H_    0.234159 0.037281 0.634468 0.176989
H56   H     H_    0.304845 0.165722 0.674938 0.164741
H57   H     H_    0.238957 0.177311 0.619687 0.168881
H58   H     H_    0.491413 0.252640 0.627799 0.156852
H59   H     H_    0.413769 0.235681 0.575895 0.189002
C123  C     C_3   0.817098 0.229184 0.891573 -0.195306
C124  C     C_3   0.862343 0.153428 0.863943 -0.338316
H60   H     H_    0.834282 0.139126 0.825062 0.164742
H61   H     H_    0.962717 0.196874 0.865534 0.176992
H62   H     H_    0.822683 0.061644 0.880313 0.168877
H63   H     H_    0.764317 0.178087 0.924105 0.189003
H64   H     H_    0.747360 0.238772 0.872201 0.156853
C125  C     C_3   0.770816 0.587914 0.608427 -0.195306
C126  C     C_3   0.846572 0.708916 0.636057 -0.338317
H65   H     H_    0.803123 0.765841 0.634468 0.176989
H66   H     H_    0.860878 0.695155 0.674938 0.164741
H67   H     H_    0.938354 0.761044 0.619687 0.168880
H68   H     H_    0.761228 0.508588 0.627799 0.156852
H69   H     H_    0.821913 0.586232 0.575895 0.189003
C127  C     C_3   0.412086 0.182901 0.891573 -0.195306
C128  C     C_3   0.291084 0.137655 0.863943 -0.338317
H70   H     H_    0.304845 0.165722 0.825062 0.164741
H71   H     H_    0.234158 0.037280 0.865532 0.176989
H72   H     H_    0.238956 0.177310 0.880313 0.168880
H73   H     H_    0.413768 0.235680 0.924105 0.189003
H74   H     H_    0.491412 0.252639 0.872201 0.156852
C129  C     C_3   0.817100 0.229185 0.608427 -0.195306
C130  C     C_3   0.862345 0.153429 0.636058 -0.338317
H75   H     H_    0.962719 0.196878 0.634469 0.176989
H76   H     H_    0.834277 0.139122 0.674938 0.164741
H77   H     H_    0.822690 0.061646 0.619687 0.168880
H78   H     H_    0.747361 0.238772 0.627799 0.156852
H79   H     H_    0.764321 0.178087 0.575895 0.189003
C131  C     C_3   0.770815 0.587914 0.891573 -0.195306
C132  C     C_3   0.846572 0.708916 0.863943 -0.338317
H80   H     H_    0.860879 0.695154 0.825062 0.164741
H81   H     H_    0.803123 0.765841 0.865531 0.176989
H82   H     H_    0.938354 0.761043 0.880313 0.168881
H83   H     H_    0.821913 0.586232 0.924105 0.189002
H84   H     H_    0.761227 0.508588 0.872201 0.156852
Cl1   Cl    Cl    0.750631 0.185716 0.050531 -0.593579
Cl2   Cl    Cl    0.435086 0.249368 0.449469 -0.593580
Cl3   Cl    Cl    0.814285 0.564918 0.050531 -0.593580
Cl4   Cl    Cl    0.750635 0.185713 0.449470 -0.593581
Cl5   Cl    Cl    0.435084 0.249367 0.050530 -0.593580
Cl6   Cl    Cl    0.814284 0.564917 0.449469 -0.593580
Cl7   Cl    Cl    0.211975 0.071635 0.528889 -0.547641
Cl8   Cl    Cl    0.928362 0.140339 0.971111 -0.547643
Cl9   Cl    Cl    0.859660 0.788026 0.528889 -0.547641
Cl10  Cl    Cl    0.211973 0.071632 0.971111 -0.547642
Cl11  Cl    Cl    0.928371 0.140342 0.528890 -0.547641
Cl12  Cl    Cl    0.859660 0.788026 0.971110 -0.547640

loop_
_geom_bond_atom_site_label_1
_geom_bond_atom_site_label_2
_ccdc_geom_bond_type
C111  H33   S    
C109  H29   S    
C4    O16   A    
C109  C110  S    
C82   C94   A    
C84   C113  S    
C18   C21   A    
C2    O6    A    
C120  H50   S    
C34   C70   A    
C5    C56   S    
C118  H46   S    
C3    O15   A    
C6    C55   S    
C8    O20   A    
C50   C79   A    
C81   C119  S    
C12   C49   S    
C120  H51   S    
C47   H4    S    
C25   H20   S    
C112  H30   S    
C78   C90   A    
C31   C67   A    
C99   C108  A    
C20   C92   A    
C77   C89   A    
C119  H53   S    
C32   H13   S    
C15   C87   A    
Cr1   O13   S    
Cr6   O9    S    
C128  H72   S    
Cr2   O14   S    
C123  H63   S    
C124  H61   S    
C44   C68   A    
C132  H80   S    
C110  H27   S    
Cr6   O24   S    
C118  H47   S    
C9    O21   A    
C98   C103  A    
C14   C62   A    
C96   C99   A    
C41   H10   S    
C11   O23   A    
C103  Cl7   S    
C130  H75   S    
C102  C105  A    
C107  Cl11  S    
C84   C96   A    
C9    O7    A    
C115  H43   S    
C129  H79   S    
C116  H42   S    
Cr2   O17   S    
C58   C77   A    
C7    O11   A    
C55   C74   A    
C5    O3    A    
C48   C51   A    
C38   C55   A    
C94   C101  A    
C130  H76   S    
C119  C120  S    
C132  H81   S    
C89   C106  A    
C42   H9    S    
C105  Cl9   S    
C129  C130  S    
C83   C115  S    
C19   C67   A    
Cr1   O4    S    
Cr5   O20   S    
C6    O4    A    
Cr3   O18   S    
C76   C88   A    
C127  H74   S    
C13   C20   A    
C114  H37   S    
C33   C69   A    
C32   C68   A    
C25   C32   A    
C112  H31   S    
C118  H45   S    
C35   C71   A    
C26   C31   A    
C40   C59   A    
C109  H28   S    
C22   C94   A    
C110  H26   S    
C37   C56   A    
Cr2   O5    S    
C9    C52   S    
C31   H14   S    
C48   C72   A    
C86   C103  A    
C14   C19   A    
C42   C57   A    
C127  C128  S    
C114  H36   S    
C92   C97   A    
C74   C121  S    
C44   H1    S    
C24   C72   A    
C2    O14   A    
Cr4   O26   S    
C16   C88   A    
C37   H8    S    
C27   H24   S    
C116  H41   S    
Cr4   O19   S    
C87   C108  A    
C59   C76   A    
C45   C69   A    
C121  C122  S    
C18   C90   A    
C115  H44   S    
Cr5   O11   S    
C17   C89   A    
C14   C86   A    
C99   Cl3   S    
Cr1   O25   S    
C124  H62   S    
C98   Cl2   S    
C88   C107  A    
C75   C131  S    
C95   C100  A    
C122  H55   S    
C41   C65   A    
C126  H67   S    
C5    O17   A    
C46   H5    S    
C125  H68   S    
C44   C49   A    
C131  H84   S    
Cr4   O10   S    
C21   C69   A    
C53   C82   A    
C102  Cl6   S    
C121  H59   S    
C79   C111  S    
C80   C92   A    
C52   C83   A    
C8    O12   A    
C124  H60   S    
C43   C67   A    
C128  H70   S    
C1    O5    A    
C23   C71   A    
C43   H2    S    
C4    O2    A    
C125  C126  S    
C81   C93   A    
Cr6   O26   S    
C132  H82   S    
C83   C95   A    
C131  C132  S    
Cr3   O25   S    
C117  H48   S    
C25   C61   A    
C74   C86   A    
C126  H66   S    
Cr1   O16   S    
Cr3   O15   S    
C35   H16   S    
C47   C71   A    
C127  H73   S    
C30   C66   A    
C85   C104  A    
C27   C63   A    
Cr3   O6    S    
C10   O8    A    
C29   C65   A    
C39   C60   A    
C28   C64   A    
C45   H6    S    
C75   C87   A    
C15   C24   A    
C2    C59   S    
C34   H17   S    
C117  C118  S    
C16   C23   A    
C82   C117  S    
C110  H25   S    
C120  H52   S    
C73   C123  S    
C1    C60   S    
C3    O1    A    
Cr6   O12   S    
C13   C85   A    
C10   O22   A    
C80   C109  S    
C111  C112  S    
C33   H18   S    
C106  Cl10  S    
C113  H38   S    
C73   C85   A    
C112  H32   S    
C111  H34   S    
C101  C106  A    
C28   C35   A    
C11   C50   S    
C101  Cl5   S    
C100  C107  A    
C119  H54   S    
C56   C73   A    
Cr4   O22   S    
C30   C33   A    
C123  C124  S    
C93   C102  A    
C79   C91   A    
C57   C78   A    
C20   C68   A    
C19   C91   A    
C42   C66   A    
C28   H23   S    
C17   C22   A    
C90   C105  A    
C100  Cl4   S    
C40   C64   A    
C8    C53   S    
C45   C54   A    
C97   Cl1   S    
Cr2   O25   S    
C130  H77   S    
C43   C50   A    
C48   H3    S    
C7    O19   A    
C12   O24   A    
C27   C36   A    
C18   C66   A    
C39   C63   A    
C125  H69   S    
C60   C75   A    
C17   C65   A    
C131  H83   S    
C104  Cl8   S    
C49   C80   A    
C41   C58   A    
C97   C104  A    
Cr1   O1    S    
C10   C51   S    
C12   O10   A    
C24   C96   A    
C37   C61   A    
Cr4   O7    S    
C116  H40   S    
C128  H71   S    
C26   H19   S    
C117  H49   S    
C36   H15   S    
Cr5   O26   S    
C11   O9    A    
C121  H58   S    
C21   C93   A    
C122  H57   S    
C40   H11   S    
C29   C34   A    
C46   C53   A    
Cr2   O2    S    
C23   C95   A    
C113  H39   S    
C1    O13   A    
C76   C129  S    
C54   C81   A    
C91   C98   A    
C26   C62   A    
C126  H65   S    
Cr6   O21   S    
C46   C70   A    
C38   H7    S    
C108  Cl12  S    
Cr3   O3    S    
C78   C125  S    
Cr5   O23   S    
C113  C114  S    
Cr5   O8    S    
C3    C58   S    
C29   H22   S    
C13   C61   A    
C77   C127  S    
C122  H56   S    
C30   H21   S    
C47   C52   A    
C39   H12   S    
C15   C63   A    
C123  H64   S    
C16   C64   A    
C7    C54   S    
C115  C116  S    
C51   C84   A    
C22   C70   A    
C129  H78   S    
C6    O18   A    
C114  H35   S    
C36   C72   A    
C4    C57   S    
C38   C62   A    
