data_mof_unit_47423.cif
_audit_creation_date              2012-12-11T16:21:21-0500
_audit_creation_method            fapswitch 2.2
_symmetry_space_group_name_H-M    P1
_symmetry_Int_Tables_number       1
_space_group_crystal_system       monoclinic
_cell_length_a                    7.224229
_cell_length_b                    36.960251
_cell_length_c                    41.030411
_cell_angle_alpha                 90.0
_cell_angle_beta                  89.999931
_cell_angle_gamma                 90.0
_cell_volume                      10955.5020223

loop_
_atom_site_label
_atom_site_type_symbol
_atom_type_description
_atom_site_fract_x
_atom_site_fract_y
_atom_site_fract_z
_atom_type_partial_charge
O1    O     O_R   0.564240 0.782760 0.216890 -0.534851
O2    O     O_R   0.435760 0.217240 0.783110 -0.535041
O3    O     O_R   0.435760 0.217240 0.716890 -0.534851
O4    O     O_R   0.564240 0.782760 0.283110 -0.535041
O5    O     O_R   0.064240 0.717240 0.283110 -0.534851
O6    O     O_R   0.935760 0.282760 0.716890 -0.535041
O7    O     O_R   0.935760 0.282760 0.783110 -0.534851
O8    O     O_R   0.064240 0.717240 0.216890 -0.535041
O9    O     O_R   0.234510 0.787070 0.282870 -0.539415
O10   O     O_R   0.765490 0.212930 0.717130 -0.539323
O11   O     O_R   0.765490 0.212930 0.782870 -0.539415
O12   O     O_R   0.234510 0.787070 0.217130 -0.539323
O13   O     O_R   0.734510 0.712930 0.217130 -0.539415
O14   O     O_R   0.265490 0.287070 0.782870 -0.539323
O15   O     O_R   0.265490 0.287070 0.717130 -0.539415
O16   O     O_R   0.734510 0.712930 0.282870 -0.539323
C1    C     C_R   0.402769 0.794749 0.294321 0.687822
C2    C     C_R   0.597242 0.205103 0.705776 0.687145
C3    C     C_R   0.597231 0.205251 0.794321 0.687822
C4    C     C_R   0.402758 0.794897 0.205776 0.687144
C5    C     C_R   0.902769 0.705251 0.205679 0.687822
C6    C     C_R   0.097242 0.294897 0.794224 0.687145
C7    C     C_R   0.097231 0.294749 0.705679 0.687823
C8    C     C_R   0.902758 0.705103 0.294224 0.687144
O17   O     O_3   0.397750 0.727090 0.250000 -0.371099
O18   O     O_3   0.602250 0.272910 0.750000 -0.371100
O19   O     O_3   0.897750 0.772910 0.250000 -0.371099
O20   O     O_3   0.102250 0.227090 0.750000 -0.371100
V1    V     V_3+5 0.122890 0.754250 0.250000 1.396445
V2    V     V_3+5 0.877110 0.245750 0.750000 1.396443
V3    V     V_3+5 0.622890 0.745750 0.250000 1.396445
V4    V     V_3+5 0.377110 0.254250 0.750000 1.396443
C9    C     C_R   0.817924 0.601117 0.421908 0.591261
C10   C     C_R   0.109609 0.387978 0.570192 0.580084
C11   C     C_R   0.182080 0.398884 0.921907 0.591263
C12   C     C_R   0.890388 0.612022 0.070193 0.580085
C13   C     C_R   0.317920 0.898884 0.078093 0.591263
C14   C     C_R   0.609612 0.112022 0.929807 0.580084
C15   C     C_R   0.682080 0.101116 0.578093 0.591264
C16   C     C_R   0.390386 0.887978 0.429807 0.580086
O21   O     O_2   0.694892 0.628558 0.423026 -0.528396
O22   O     O_2   0.180632 0.354654 0.565253 -0.533119
O23   O     O_2   0.305115 0.371443 0.923025 -0.528396
O24   O     O_2   0.819362 0.645345 0.065253 -0.533119
O25   O     O_2   0.194885 0.871443 0.076975 -0.528396
O26   O     O_2   0.680637 0.145346 0.934747 -0.533119
O27   O     O_2   0.805117 0.128557 0.576975 -0.528396
O28   O     O_2   0.319359 0.854655 0.434746 -0.533119
N1    N     N_R   0.936743 0.598331 0.395990 -0.553873
N2    N     N_R   0.056371 0.398221 0.600948 -0.550030
N3    N     N_R   0.063256 0.401669 0.895991 -0.553872
N4    N     N_R   0.943630 0.601779 0.100949 -0.550030
N5    N     N_R   0.436744 0.901669 0.104009 -0.553873
N6    N     N_R   0.556370 0.101779 0.899051 -0.550030
N7    N     N_R   0.563256 0.098331 0.604009 -0.553873
N8    N     N_R   0.443629 0.898221 0.399051 -0.550030
C17   C     C_R   0.062833 0.570736 0.394168 0.582038
C18   C     C_R   0.988192 0.432267 0.606637 0.576475
C19   C     C_R   0.937162 0.429263 0.894169 0.582037
C20   C     C_R   0.011812 0.567732 0.106637 0.576476
C21   C     C_R   0.562837 0.929263 0.105831 0.582038
C22   C     C_R   0.488188 0.067733 0.893363 0.576476
C23   C     C_R   0.437162 0.070737 0.605831 0.582038
C24   C     C_R   0.511811 0.932267 0.393363 0.576475
C25   C     C_R   0.811512 0.620852 0.343943 -0.088431
C26   C     C_R   0.184564 0.377649 0.653764 -0.087493
C27   C     C_R   0.188490 0.379147 0.843944 -0.088431
C28   C     C_R   0.815438 0.622350 0.153765 -0.087492
C29   C     C_R   0.311511 0.879148 0.156056 -0.088431
C30   C     C_R   0.684562 0.122350 0.846235 -0.087492
C31   C     C_R   0.688491 0.120853 0.656056 -0.088431
C32   C     C_R   0.315438 0.877650 0.346235 -0.087492
C33   C     C_R   0.802976 0.647266 0.319607 -0.223324
C34   C     C_R   0.194779 0.352028 0.678805 -0.229948
C35   C     C_R   0.197026 0.352734 0.819607 -0.223324
C36   C     C_R   0.805223 0.647972 0.178805 -0.229947
C37   C     C_R   0.302975 0.852734 0.180393 -0.223324
C38   C     C_R   0.694777 0.147972 0.821195 -0.229947
C39   C     C_R   0.697027 0.147266 0.680392 -0.223324
C40   C     C_R   0.305223 0.852028 0.321195 -0.229947
C41   C     C_R   0.026699 0.684123 0.349326 0.096774
C42   C     C_R   0.972651 0.313794 0.650180 0.094683
C43   C     C_R   0.973298 0.315877 0.849325 0.096774
C44   C     C_R   0.027349 0.686206 0.150180 0.094683
C45   C     C_R   0.526701 0.815877 0.150674 0.096773
C46   C     C_R   0.472651 0.186206 0.849820 0.094683
C47   C     C_R   0.473299 0.184122 0.650674 0.096774
C48   C     C_R   0.527347 0.813794 0.349820 0.094684
C49   C     C_R   0.039075 0.656419 0.372864 -0.094797
C50   C     C_R   0.958085 0.340717 0.626007 -0.096558
C51   C     C_R   0.960923 0.343581 0.872864 -0.094796
C52   C     C_R   0.041915 0.659282 0.126007 -0.096558
C53   C     C_R   0.539076 0.843581 0.127135 -0.094796
C54   C     C_R   0.458085 0.159283 0.873993 -0.096558
C55   C     C_R   0.460923 0.156419 0.627135 -0.094797
C56   C     C_R   0.541913 0.840717 0.373993 -0.096557
C57   C     C_R   0.930494 0.625177 0.370534 0.340487
C58   C     C_R   0.065468 0.372258 0.627271 0.329178
C59   C     C_R   0.069505 0.374822 0.870534 0.340487
C60   C     C_R   0.934533 0.627742 0.127271 0.329178
C61   C     C_R   0.430495 0.874822 0.129466 0.340487
C62   C     C_R   0.565467 0.127742 0.872729 0.329178
C63   C     C_R   0.569506 0.125178 0.629466 0.340486
C64   C     C_R   0.434532 0.872258 0.372728 0.329178
C65   C     C_R   0.950989 0.546924 0.445826 -0.053818
C66   C     C_R   0.017207 0.446591 0.548962 -0.050992
C67   C     C_R   0.049011 0.453076 0.945827 -0.053819
C68   C     C_R   0.982794 0.553408 0.048963 -0.050991
C69   C     C_R   0.450989 0.953076 0.054173 -0.053819
C70   C     C_R   0.517206 0.053408 0.951037 -0.050991
C71   C     C_R   0.549011 0.046924 0.554173 -0.053819
C72   C     C_R   0.482793 0.946592 0.451037 -0.050991
C73   C     C_R   0.823858 0.575591 0.447446 -0.060683
C74   C     C_R   0.090842 0.411957 0.543663 -0.054251
C75   C     C_R   0.176145 0.424409 0.947446 -0.060683
C76   C     C_R   0.909155 0.588042 0.043664 -0.054250
C77   C     C_R   0.323855 0.924409 0.052554 -0.060683
C78   C     C_R   0.590844 0.088042 0.956336 -0.054251
C79   C     C_R   0.676145 0.075591 0.552554 -0.060683
C80   C     C_R   0.409153 0.911958 0.456336 -0.054250
C81   C     C_R   0.701131 0.577449 0.473829 -0.176660
C82   C     C_R   0.134859 0.401254 0.511838 -0.177229
C83   C     C_R   0.298875 0.422552 0.973828 -0.176661
C84   C     C_R   0.865134 0.598745 0.011838 -0.177228
C85   C     C_R   0.201125 0.922552 0.026172 -0.176661
C86   C     C_R   0.634865 0.098745 0.988162 -0.177228
C87   C     C_R   0.798876 0.077448 0.526171 -0.176661
C88   C     C_R   0.365131 0.901255 0.488161 -0.177228
C89   C     C_R   0.071496 0.544367 0.418918 -0.025982
C90   C     C_R   0.967327 0.457054 0.580782 -0.025337
C91   C     C_R   0.928500 0.455632 0.918919 -0.025984
C92   C     C_R   0.032677 0.542946 0.080782 -0.025337
C93   C     C_R   0.571500 0.955633 0.081081 -0.025983
C94   C     C_R   0.467323 0.042946 0.919218 -0.025336
C95   C     C_R   0.428499 0.044368 0.581081 -0.025983
C96   C     C_R   0.532677 0.957054 0.419217 -0.025336
C97   C     C_R   0.911381 0.678817 0.321557 -0.086083
C98   C     C_R   0.087994 0.320217 0.677733 -0.085297
C99   C     C_R   0.088619 0.321183 0.821557 -0.086084
C100  C     C_R   0.912007 0.679783 0.177733 -0.085296
C101  C     C_R   0.411381 0.821183 0.178443 -0.086083
C102  C     C_R   0.587993 0.179783 0.822267 -0.085297
C103  C     C_R   0.588619 0.178817 0.678443 -0.086084
C104  C     C_R   0.412006 0.820217 0.322267 -0.085296
H1    H     H_    0.129221 0.659514 0.393766 0.136233
H2    H     H_    0.866459 0.336795 0.605420 0.138891
H3    H     H_    0.870774 0.340486 0.893765 0.136234
H4    H     H_    0.133540 0.663204 0.105420 0.138891
H5    H     H_    0.629224 0.840486 0.106234 0.136234
H6    H     H_    0.366460 0.163205 0.894580 0.138891
H7    H     H_    0.370774 0.159514 0.606235 0.136234
H8    H     H_    0.633537 0.836795 0.394580 0.138891
H9    H     H_    0.594363 0.598042 0.473874 0.162535
H10   H     H_    0.178647 0.373639 0.507459 0.162525
H11   H     H_    0.405645 0.401959 0.973873 0.162535
H12   H     H_    0.821342 0.626360 0.007460 0.162525
H13   H     H_    0.094355 0.901959 0.026127 0.162535
H14   H     H_    0.678656 0.126360 0.992540 0.162525
H15   H     H_    0.905646 0.098041 0.526127 0.162535
H16   H     H_    0.321339 0.873640 0.492540 0.162525
C105  C     C_R   0.901472 0.504281 0.527544 0.039901
C106  C     C_R   0.072855 0.489929 0.467619 0.036299
C107  C     C_R   0.098532 0.495719 0.027544 0.039905
C108  C     C_R   0.927141 0.510070 0.967620 0.036302
C109  C     C_R   0.401468 0.995719 0.972456 0.039905
C110  C     C_R   0.572858 0.010070 0.032380 0.036302
C111  C     C_R   0.598532 0.004280 0.472456 0.039905
C112  C     C_R   0.427140 0.989930 0.532380 0.036303
C113  C     C_R   0.062333 0.461721 0.491189 0.016570
C114  C     C_R   0.855196 0.526197 0.500169 0.021064
C115  C     C_R   0.937663 0.538278 0.991190 0.016567
C116  C     C_R   0.144807 0.473803 0.000168 0.021064
C117  C     C_R   0.562336 0.038278 0.008810 0.016567
C118  C     C_R   0.355193 0.973803 0.999832 0.021064
C119  C     C_R   0.437662 0.961722 0.508810 0.016566
C120  C     C_R   0.644807 0.026197 0.499831 0.021064
C121  C     C_R   0.993366 0.470831 0.522484 0.024279
C122  C     C_R   0.959003 0.520934 0.471215 0.033184
C123  C     C_R   0.006634 0.529169 0.022484 0.024278
C124  C     C_R   0.040996 0.479066 0.971215 0.033182
C125  C     C_R   0.493366 0.029169 0.977516 0.024278
C126  C     C_R   0.459003 0.979066 0.028785 0.033183
C127  C     C_R   0.506633 0.970831 0.477515 0.024278
C128  C     C_R   0.540996 0.020934 0.528785 0.033182
C129  C     C_R   0.870570 0.515522 0.559883 -0.184190
C130  C     C_R   0.202612 0.489616 0.441997 -0.187058
C131  C     C_R   0.129438 0.484478 0.059883 -0.184191
C132  C     C_R   0.797381 0.510382 0.941998 -0.187054
C133  C     C_R   0.370562 0.984478 0.940117 -0.184192
C134  C     C_R   0.702618 0.010382 0.058002 -0.187054
C135  C     C_R   0.629438 0.015522 0.440117 -0.184192
C136  C     C_R   0.297379 0.989618 0.558002 -0.187054
C137  C     C_R   0.899958 0.492123 0.586048 -0.141475
C138  C     C_R   0.200914 0.516162 0.417852 -0.130081
C139  C     C_R   0.100050 0.507878 0.086048 -0.141477
C140  C     C_R   0.799078 0.483837 0.917853 -0.130080
C141  C     C_R   0.399950 0.007878 0.913952 -0.141478
C142  C     C_R   0.700921 0.983837 0.082147 -0.130080
C143  C     C_R   0.600050 0.992122 0.413952 -0.141478
C144  C     C_R   0.299077 0.016163 0.582146 -0.130080
O29   O     O_2   0.937375 0.441920 0.637057 -0.526112
O30   O     O_2   0.179193 0.568790 0.368510 -0.523833
O31   O     O_2   0.062633 0.558080 0.137057 -0.526112
O32   O     O_2   0.820799 0.431208 0.868511 -0.523833
O33   O     O_2   0.437367 0.058080 0.862943 -0.526112
O34   O     O_2   0.679201 0.931208 0.131489 -0.523833
O35   O     O_2   0.562633 0.941920 0.362943 -0.526112
O36   O     O_2   0.320798 0.068792 0.631489 -0.523833
C145  C     C_R   0.709662 0.552555 0.499778 0.118759
C146  C     C_R   0.114039 0.424914 0.485210 0.121604
C147  C     C_R   0.290343 0.447446 0.999777 0.118757
C148  C     C_R   0.885953 0.575085 0.985211 0.121603
C149  C     C_R   0.209656 0.947446 0.000222 0.118757
C150  C     C_R   0.614046 0.075085 0.014789 0.121604
C151  C     C_R   0.790344 0.052554 0.500222 0.118757
C152  C     C_R   0.385950 0.924916 0.514789 0.121604
H17   H     H_    0.285139 0.357264 0.699343 0.141978
H18   H     H_    0.712692 0.642836 0.298904 0.142281
H19   H     H_    0.714863 0.642735 0.199343 0.141978
H20   H     H_    0.287311 0.357163 0.798904 0.142282
H21   H     H_    0.785137 0.142735 0.800657 0.141978
H22   H     H_    0.212690 0.857164 0.201096 0.142282
H23   H     H_    0.214864 0.857265 0.300657 0.141978
H24   H     H_    0.787312 0.142837 0.701095 0.142282
H25   H     H_    0.269254 0.401779 0.655000 0.143527
H26   H     H_    0.726238 0.596854 0.342034 0.139425
H27   H     H_    0.730749 0.598220 0.155001 0.143526
H28   H     H_    0.273765 0.403145 0.842035 0.139425
H29   H     H_    0.769252 0.098220 0.844999 0.143526
H30   H     H_    0.226236 0.903146 0.157966 0.139425
H31   H     H_    0.230749 0.901780 0.344999 0.143526
H32   H     H_    0.773767 0.096855 0.657965 0.139426
H33   H     H_    0.870477 0.501721 0.610443 0.168337
H34   H     H_    0.302616 0.514645 0.398503 0.164849
H35   H     H_    0.129535 0.498279 0.110442 0.168338
H36   H     H_    0.697374 0.485353 0.898505 0.164849
H37   H     H_    0.370466 0.998279 0.889558 0.168338
H38   H     H_    0.802625 0.985353 0.101495 0.164849
H39   H     H_    0.629535 0.001721 0.389557 0.168338
H40   H     H_    0.197372 0.014647 0.601495 0.164849
H41   H     H_    0.834027 0.543062 0.565456 0.127632
H42   H     H_    0.315359 0.470558 0.441700 0.122213
H43   H     H_    0.165987 0.456938 0.065456 0.127634
H44   H     H_    0.684632 0.529441 0.941702 0.122210
H45   H     H_    0.334014 0.956938 0.934544 0.127634
H46   H     H_    0.815367 0.029441 0.058298 0.122210
H47   H     H_    0.665987 0.043062 0.434544 0.127634
H48   H     H_    0.184630 0.970560 0.558298 0.122210
C153  C     C_3   0.131123 0.719194 0.355439 -0.355343
C154  C     C_3   0.088348 0.735028 0.389087 -0.764155
H49   H     H_    0.940554 0.731363 0.395320 0.246266
H50   H     H_    0.173762 0.721611 0.408061 0.232058
H51   H     H_    0.119099 0.764464 0.389340 0.230238
H52   H     H_    0.282259 0.714107 0.353381 0.190899
H53   H     H_    0.094681 0.740342 0.337453 0.185448
C155  C     C_3   0.869991 0.278320 0.644983 -0.360146
C156  C     C_3   0.911499 0.261714 0.611591 -0.751151
H54   H     H_    0.825106 0.274616 0.592468 0.231434
H55   H     H_    0.058960 0.265317 0.605100 0.251359
H56   H     H_    0.881107 0.232263 0.611963 0.227803
H57   H     H_    0.909111 0.257700 0.663288 0.187311
H58   H     H_    0.718671 0.283086 0.647249 0.186887
C157  C     C_3   0.868872 0.280806 0.855439 -0.355341
C158  C     C_3   0.911645 0.264972 0.889087 -0.764155
H59   H     H_    0.059438 0.268637 0.895320 0.246265
H60   H     H_    0.826230 0.278389 0.908061 0.232058
H61   H     H_    0.880892 0.235536 0.889340 0.230238
H62   H     H_    0.717737 0.285894 0.853380 0.190899
H63   H     H_    0.905315 0.259658 0.837453 0.185448
C159  C     C_3   0.130008 0.721680 0.144982 -0.360147
C160  C     C_3   0.088496 0.738286 0.111591 -0.751154
H64   H     H_    0.174889 0.725383 0.092468 0.231435
H65   H     H_    0.941035 0.734683 0.105100 0.251359
H66   H     H_    0.118888 0.767737 0.111963 0.227803
H67   H     H_    0.090888 0.742300 0.163288 0.187310
H68   H     H_    0.281328 0.716914 0.147249 0.186888
C161  C     C_3   0.631126 0.780806 0.144561 -0.355342
C162  C     C_3   0.588352 0.764972 0.110913 -0.764154
H69   H     H_    0.440558 0.768637 0.104680 0.246265
H70   H     H_    0.673766 0.778389 0.091939 0.232058
H71   H     H_    0.619104 0.735536 0.110660 0.230238
H72   H     H_    0.782261 0.785893 0.146619 0.190899
H73   H     H_    0.594683 0.759658 0.162547 0.185448
C163  C     C_3   0.369991 0.221680 0.855017 -0.360146
C164  C     C_3   0.411500 0.238286 0.888409 -0.751153
H74   H     H_    0.325107 0.225383 0.907532 0.231434
H75   H     H_    0.558961 0.234683 0.894900 0.251359
H76   H     H_    0.381108 0.267736 0.888037 0.227804
H77   H     H_    0.409112 0.242300 0.836712 0.187310
H78   H     H_    0.218671 0.216914 0.852751 0.186888
C165  C     C_3   0.368872 0.219194 0.644561 -0.355340
C166  C     C_3   0.411644 0.235028 0.610913 -0.764156
H79   H     H_    0.559437 0.231363 0.604679 0.246265
H80   H     H_    0.326229 0.221611 0.591939 0.232058
H81   H     H_    0.380891 0.264464 0.610660 0.230239
H82   H     H_    0.217737 0.214106 0.646620 0.190899
H83   H     H_    0.405315 0.240342 0.662547 0.185448
C167  C     C_3   0.630006 0.778320 0.355018 -0.360148
C168  C     C_3   0.588492 0.761714 0.388409 -0.751153
H84   H     H_    0.674884 0.774616 0.407532 0.231435
H85   H     H_    0.441031 0.765317 0.394900 0.251359
H86   H     H_    0.618884 0.732263 0.388037 0.227803
H87   H     H_    0.590887 0.757700 0.336712 0.187310
H88   H     H_    0.781326 0.783086 0.352751 0.186888
C169  C     C_3   0.543608 0.551877 0.522809 -0.350991
C170  C     C_3   0.447005 0.515084 0.523177 -0.706712
H89   H     H_    0.420310 0.505873 0.497902 0.229482
H90   H     H_    0.531284 0.494404 0.535888 0.234854
H91   H     H_    0.313000 0.517451 0.536233 0.219662
H92   H     H_    0.578473 0.560531 0.547788 0.171326
H93   H     H_    0.437892 0.571862 0.514792 0.177405
C171  C     C_3   0.114044 0.407622 0.451426 -0.347309
C172  C     C_3   0.927106 0.411979 0.434398 -0.716997
H94   H     H_    0.814165 0.401501 0.450171 0.225112
H95   H     H_    0.899205 0.440739 0.428479 0.233764
H96   H     H_    0.927418 0.396396 0.411259 0.214793
H97   H     H_    0.226748 0.417410 0.435626 0.171779
H98   H     H_    0.140105 0.378043 0.453308 0.175217
C173  C     C_3   0.456399 0.448124 0.022808 -0.350989
C174  C     C_3   0.552995 0.484918 0.023177 -0.706705
H99   H     H_    0.579668 0.494132 0.997902 0.229479
H100  H     H_    0.468721 0.505596 0.035893 0.234853
H101  H     H_    0.687010 0.482550 0.036230 0.219661
H102  H     H_    0.421537 0.439468 0.047786 0.171324
H103  H     H_    0.562120 0.428140 0.014789 0.177404
C175  C     C_3   0.885942 0.592377 0.951426 -0.347308
C176  C     C_3   0.072879 0.588021 0.934398 -0.716997
H104  H     H_    0.185821 0.598499 0.950170 0.225112
H105  H     H_    0.100782 0.559261 0.928479 0.233763
H106  H     H_    0.072562 0.603603 0.911259 0.214794
H107  H     H_    0.773238 0.582589 0.935627 0.171779
H108  H     H_    0.859878 0.621956 0.953308 0.175216
C177  C     C_3   0.043601 0.948124 0.977192 -0.350989
C178  C     C_3   0.947005 0.984918 0.976823 -0.706706
H109  H     H_    0.920330 0.994132 0.002098 0.229480
H110  H     H_    0.031279 0.005596 0.964107 0.234853
H111  H     H_    0.812990 0.982550 0.963770 0.219661
H112  H     H_    0.078463 0.939468 0.952214 0.171324
H113  H     H_    0.937881 0.928140 0.985211 0.177404
C179  C     C_3   0.614056 0.092377 0.048574 -0.347309
C180  C     C_3   0.427118 0.088021 0.065602 -0.716997
H114  H     H_    0.314178 0.098500 0.049830 0.225112
H115  H     H_    0.399215 0.059261 0.071521 0.233763
H116  H     H_    0.427435 0.103603 0.088741 0.214794
H117  H     H_    0.726760 0.082589 0.064373 0.171779
H118  H     H_    0.640120 0.121956 0.046692 0.175217
C181  C     C_3   0.956400 0.051876 0.477192 -0.350988
C182  C     C_3   0.052994 0.015082 0.476823 -0.706703
H119  H     H_    0.079666 0.005867 0.502097 0.229479
H120  H     H_    0.968720 0.994404 0.464106 0.234853
H121  H     H_    0.187010 0.017450 0.463770 0.219660
H122  H     H_    0.921538 0.060532 0.452214 0.171324
H123  H     H_    0.062121 0.071859 0.485210 0.177405
C183  C     C_3   0.385939 0.907623 0.548574 -0.347308
C184  C     C_3   0.572876 0.911979 0.565602 -0.716997
H124  H     H_    0.685817 0.901500 0.549830 0.225112
H125  H     H_    0.600781 0.940739 0.571521 0.233763
H126  H     H_    0.572559 0.896397 0.588741 0.214794
H127  H     H_    0.273235 0.917411 0.564373 0.171779
H128  H     H_    0.359874 0.878045 0.546691 0.175217

loop_
_geom_bond_atom_site_label_1
_geom_bond_atom_site_label_2
_ccdc_geom_bond_type
C69   C126  A    
C112  C119  A    
C32   H31   S    
C155  H58   S    
C160  H66   S    
C135  H47   S    
C165  C166  S    
C10   O22   S    
C20   C92   A    
C21   C93   A    
O15   V4    S    
C177  C178  S    
O16   V3    S    
C19   C91   A    
C179  H118  S    
C114  C122  A    
C15   O27   S    
C163  C164  S    
C154  H50   S    
C169  H92   S    
C66   C90   A    
C85   C149  A    
C17   O30   S    
C11   C75   A    
C175  C176  S    
C66   C121  A    
C21   O34   S    
C154  H51   S    
C36   C100  A    
C163  H78   S    
C68   C92   A    
C70   C78   A    
C138  H34   S    
N6    C62   S    
C134  H46   S    
C69   C93   A    
C174  H101  S    
C39   H24   S    
C179  C180  S    
C53   C61   A    
C72   C80   A    
C6    C99   S    
O10   V2    S    
C184  H124  S    
O12   C4    A    
C80   C88   A    
C170  H89   S    
O13   C5    A    
C107  C116  A    
O6    V2    S    
C150  C179  S    
C153  H53   S    
C23   O36   S    
C56   C64   A    
C11   N3    A    
C45   C161  S    
C12   O24   S    
C167  C168  S    
C105  C121  A    
C146  C171  S    
C111  C135  A    
C119  C127  A    
C133  C141  A    
C16   O28   S    
O1    C4    A    
O2    C3    A    
C108  C132  A    
C29   C61   A    
C54   H6    S    
O7    C6    A    
C43   C51   A    
C112  C136  A    
C118  C149  A    
C119  C152  A    
C166  H80   S    
C164  H75   S    
C40   H23   S    
C178  H111  S    
C87   C151  A    
C106  C113  A    
C33   C97   A    
O10   C2    A    
C183  H128  S    
C26   H25   S    
C182  H119  S    
C165  H82   S    
C136  C144  A    
C37   C101  A    
N1    C57   S    
C13   C77   A    
C54   C62   A    
C42   C98   A    
C46   C163  S    
C110  C134  A    
C160  H64   S    
O17   V3    S    
C161  H72   S    
C24   C96   A    
O18   V4    S    
O12   V1    S    
O19   V1    S    
C29   C37   A    
C110  C126  A    
C90   C137  A    
C118  C126  A    
C31   C39   A    
C27   C35   A    
C49   H1    S    
C153  C154  S    
C1    C104  S    
O8    V1    S    
C177  H112  S    
C65   C73   A    
C2    C103  S    
C172  H95   S    
C177  H113  S    
C36   H19   S    
C56   H8    S    
O1    V3    S    
N1    C17   A    
C171  C172  S    
O2    V4    S    
C156  H54   S    
N4    C20   A    
C181  H122  S    
N5    C21   A    
C19   O32   S    
C39   C103  A    
C70   C125  A    
C158  H59   S    
C40   C104  A    
N7    C23   A    
C82   C146  A    
C86   C150  A    
C12   N4    A    
C13   N5    A    
C161  C162  S    
C115  C123  A    
C141  H37   S    
C72   C96   A    
C113  C121  A    
C55   C63   A    
C180  H115  S    
C24   O35   S    
N2    C58   S    
C45   C101  A    
C176  H105  S    
C52   C60   A    
C178  H109  S    
C109  C118  A    
N4    C60   S    
C182  H121  S    
C51   H3    S    
C68   C123  A    
C47   C55   A    
C174  H100  S    
C28   C60   A    
C170  H90   S    
C120  C151  A    
C88   C152  A    
C147  C173  S    
C184  H125  S    
C175  H108  S    
O14   C6    A    
C171  H98   S    
C70   C94   A    
C48   C167  S    
C179  H117  S    
C12   C76   A    
C31   C63   A    
C159  H67   S    
C130  C138  A    
C143  H39   S    
C8    C97   S    
C28   C36   A    
C9    C73   A    
C136  H48   S    
C156  H56   S    
C26   C58   A    
C30   H29   S    
C145  C169  S    
C32   C40   A    
C35   C99   A    
C107  C123  A    
C115  C148  A    
C158  H61   S    
C15   C79   A    
C113  C146  A    
C33   H18   S    
C167  H87   S    
C168  H86   S    
C14   O26   S    
C37   H22   S    
C157  H63   S    
C73   C81   A    
C183  C184  S    
C162  H69   S    
C44   C52   A    
C51   C59   A    
C77   C85   A    
C79   C87   A    
C94   C141  A    
C48   C56   A    
C52   H4    S    
C7    C98   S    
C53   H5    S    
C116  C147  A    
C42   C155  S    
C43   C99   A    
C89   C138  A    
C69   C77   A    
C157  C158  S    
C83   H11   S    
C41   C97   A    
C34   C98   A    
O11   C3    A    
C81   H9    S    
C38   C102  A    
C85   H13   S    
C9    N1    A    
C105  C129  A    
C142  H38   S    
C43   C157  S    
C15   N7    A    
C173  H103  S    
O11   V2    S    
N5    C61   S    
C16   N8    A    
C162  H71   S    
C92   C139  A    
C109  C133  A    
C108  C124  A    
C27   C59   A    
C41   C49   A    
C116  C124  A    
C117  C125  A    
C153  H52   S    
O7    V2    S    
C155  H57   S    
C44   C100  A    
C139  H35   S    
C84   C148  A    
C4    C101  S    
C137  H33   S    
C72   C127  A    
C157  H62   S    
C170  H91   S    
N2    C18   A    
C75   C83   A    
N8    C64   S    
C131  H43   S    
C41   C153  S    
C95   C144  A    
C120  C128  A    
C129  H41   S    
C32   C64   A    
C154  H49   S    
C169  H93   S    
C168  H84   S    
C144  H40   S    
C164  H74   S    
C14   N6    A    
C182  H120  S    
O4    C1    A    
C16   C80   A    
C163  H77   S    
C3    C102  S    
C132  H44   S    
C55   H7    S    
C181  C182  S    
C134  C142  A    
C130  H42   S    
C173  H102  S    
C110  C117  A    
C76   C84   A    
O13   V3    S    
O14   V4    S    
C30   C62   A    
N6    C22   A    
C42   C50   A    
C44   C159  S    
C9    O21   S    
C68   C76   A    
C117  C150  A    
C176  H104  S    
C71   C95   A    
C172  H94   S    
C140  H36   S    
C35   H20   S    
C18   C90   A    
C25   H26   S    
O3    V4    S    
O4    V3    S    
C173  C174  S    
C14   C78   A    
C158  H60   S    
C169  C170  S    
C159  C160  S    
C5    C100  S    
C26   C34   A    
C47   C165  S    
C93   C142  A    
C67   C124  A    
C30   C38   A    
C91   C140  A    
C65   C122  A    
C28   H27   S    
C180  H114  S    
O5    C8    A    
C66   C74   A    
C17   C89   A    
C166  H79   S    
C135  C143  A    
C164  H76   S    
C178  H110  S    
C183  H127  S    
N7    C63   S    
C25   C33   A    
O3    C2    A    
C107  C131  A    
C96   C143  A    
C46   C54   A    
C111  C127  A    
C18   O29   S    
C112  C128  A    
C83   C147  A    
C31   H32   S    
C81   C145  A    
C22   O33   S    
O9    V1    S    
O15   C7    A    
C161  H73   S    
O16   C8    A    
C82   H10   S    
C45   C53   A    
O5    V1    S    
C86   H14   S    
N3    C59   S    
C152  C183  S    
C10   N2    A    
C106  C122  A    
C133  H45   S    
C46   C102  A    
C159  H68   S    
C67   C91   A    
C106  C130  A    
C172  H96   S    
C65   C89   A    
C148  C175  S    
C49   C57   A    
C156  H55   S    
C23   C95   A    
C20   O31   S    
C155  C156  S    
N8    C24   A    
O8    C5    A    
C149  C177  S    
C167  H88   S    
C181  H123  S    
C168  H85   S    
C67   C75   A    
C105  C114  A    
C71   C79   A    
O9    C1    A    
C151  C181  S    
C84   H12   S    
C162  H70   S    
N3    C19   A    
C87   H15   S    
C11   O23   S    
C88   H16   S    
C180  H116  S    
C160  H65   S    
C131  C139  A    
C166  H81   S    
C129  C137  A    
C176  H106  S    
C10   C74   A    
C109  C125  A    
C174  H99   S    
C22   C94   A    
O20   V2    S    
C25   C57   A    
C50   H2    S    
C29   H30   S    
C114  C145  A    
C27   H28   S    
O6    C7    A    
C34   H17   S    
C71   C128  A    
C48   C104  A    
C165  H83   S    
C38   H21   S    
C74   C82   A    
C184  H126  S    
C132  C140  A    
C175  H107  S    
C171  H97   S    
C108  C115  A    
C78   C86   A    
C47   C103  A    
C13   O25   S    
C50   C58   A    
C111  C120  A    
