data_mof_unit_32774.cif
_audit_creation_date              2013-03-05T17:03:54-0500
_audit_creation_method            fapswitch 2.2
_symmetry_space_group_name_H-M    P1
_symmetry_Int_Tables_number       1
_space_group_crystal_system       triclinic
_cell_length_a                    10.791446
_cell_length_b                    16.098768
_cell_length_c                    16.786447
_cell_angle_alpha                 88.783375
_cell_angle_beta                  91.609252
_cell_angle_gamma                 92.88646
_cell_volume                      2910.86999756

loop_
_atom_site_label
_atom_site_type_symbol
_atom_site_description
_atom_site_fract_x
_atom_site_fract_y
_atom_site_fract_z
_atom_type_partial_charge
O1    O     O_R   0.494530 0.422540 0.612660 -0.531211
O2    O     O_R   0.505470 0.577460 0.387340 -0.557241
O3    O     O_R   0.504350 0.561840 0.618900 -0.595690
O4    O     O_R   0.495650 0.438160 0.381100 -0.626077
C1    C     C_R   0.499659 0.489826 0.653671 0.927745
C2    C     C_R   0.506993 0.510586 0.347104 1.007942
O5    O     O_R   0.678330 0.430350 0.496870 -0.609374
O6    O     O_R   0.321670 0.569650 0.503130 -0.575004
O7    O     O_R   0.688150 0.569660 0.503110 -0.619835
O8    O     O_R   0.311850 0.430340 0.496890 -0.630358
C3    C     C_R   0.739832 0.499778 0.501424 0.969236
C4    C     C_R   0.259536 0.500111 0.497208 0.965532
Zn1   Zn    Zn3+2 0.493440 0.406980 0.495830 1.002660
Zn2   Zn    Zn3+2 0.506560 0.593020 0.504170 1.025173
C5    C     C_R   0.833811 0.698316 0.703389 -0.233268
C6    C     C_R   0.132062 0.231722 0.390521 -0.239924
H1    H     H_    0.813076 0.763321 0.703523 0.209399
H2    H     H_    0.140036 0.172577 0.421621 0.216357
C7    C     C_R   0.860171 0.662385 0.631274 -0.224692
C8    C     C_R   0.130775 0.303801 0.435099 -0.302572
H3    H     H_    0.856024 0.700102 0.577273 0.165016
H4    H     H_    0.132927 0.298103 0.499562 0.198201
C9    C     C_R   0.893697 0.579495 0.628800 0.068136
C10   C     C_R   0.109609 0.380826 0.397596 0.048028
C11   C     C_R   0.893292 0.530370 0.700287 0.288157
C12   C     C_R   0.104748 0.386927 0.313378 0.365914
C13   C     C_R   0.862617 0.567158 0.771972 -0.297355
C14   C     C_R   0.106579 0.313697 0.269203 -0.287746
H5    H     H_    0.863047 0.530393 0.826706 0.225432
H6    H     H_    0.097115 0.317433 0.204902 0.220272
C15   C     C_R   0.835713 0.651352 0.774527 0.348013
C16   C     C_R   0.115245 0.235480 0.307384 0.330601
C17   C     C_R   0.069702 0.558139 0.542293 0.442807
C18   C     C_R   0.925691 0.447294 0.446065 0.440375
C19   C     C_R   0.126492 0.500743 0.494734 -0.197604
C20   C     C_R   0.871475 0.498653 0.500668 -0.241041
C21   C     C_R   0.054882 0.444550 0.446533 -0.073124
C22   C     C_R   0.943200 0.548246 0.553819 -0.095552
C23   C     C_R   0.517278 0.486049 0.740663 -0.296637
C24   C     C_R   0.536402 0.518183 0.262867 -0.241517
C25   C     C_R   0.525073 0.560468 0.784166 0.373484
C26   C     C_R   0.484238 0.460268 0.208600 0.428437
C27   C     C_R   0.565305 0.559058 0.863208 -0.211441
C28   C     C_R   0.506086 0.472634 0.128149 -0.269775
C29   C     C_R   0.592822 0.483743 0.901742 0.198406
C30   C     C_R   0.591935 0.534488 0.101862 0.223383
C31   C     C_R   0.578327 0.409705 0.860325 -0.289680
C32   C     C_R   0.649445 0.589342 0.155769 -0.284237
C33   C     C_R   0.536419 0.409706 0.780960 0.426607
C34   C     C_R   0.622592 0.582302 0.237527 0.395212
N1    N     N_2   0.608186 0.477380 0.985210 -0.145043
N2    N     N_2   0.612887 0.545217 0.019846 -0.114034
H7    H     H_    0.457298 0.432461 0.085689 0.177298
H8    H     H_    0.568495 0.616987 0.895010 0.215609
H9    H     H_    0.593296 0.351079 0.891138 0.172261
H10   H     H_    0.716200 0.635668 0.133167 0.171985
N3    N     N_R   0.515300 0.716920 0.509720 -0.143134
N4    N     N_R   0.484700 0.283080 0.490280 -0.154540
C35   C     C_R   0.452692 0.762046 0.453175 0.594741
C36   C     C_R   0.551047 0.238317 0.545376 0.600216
C37   C     C_R   0.453351 0.849833 0.458431 -0.492042
C38   C     C_R   0.543442 0.150225 0.543881 -0.469479
C39   C     C_R   0.523581 0.891149 0.519082 0.190628
C40   C     C_R   0.480368 0.108656 0.480737 0.161089
C41   C     C_R   0.587432 0.842524 0.575522 0.372549
C42   C     C_R   0.425751 0.157375 0.419810 0.371405
C43   C     C_R   0.580671 0.755237 0.570080 -0.241116
C44   C     C_R   0.424349 0.244305 0.428106 -0.249977
N5    N     N_2   0.532827 0.980167 0.525870 -0.124367
N6    N     N_2   0.469000 0.019497 0.475934 -0.143236
H11   H     H_    0.586628 0.114797 0.591460 0.200858
H12   H     H_    0.399401 0.885129 0.415733 0.205429
H13   H     H_    0.626463 0.717709 0.614565 0.205188
H14   H     H_    0.377169 0.281542 0.383759 0.209717
N7    N     N_R   0.811862 0.689025 0.849223 0.210071
O9    O     O_R   0.772277 0.763953 0.850954 -0.422320
O10   O     O_R   0.831767 0.649343 0.916368 -0.387232
N8    N     N_R   0.101720 0.160197 0.262417 0.215458
O11   O     O_R   0.102523 0.087830 0.298461 -0.369817
O12   O     O_R   0.077915 0.163157 0.185995 -0.416798
O13   O     O_3   0.514310 0.334854 0.743161 -0.547093
C45   C     C_3   0.396953 0.300639 0.765562 0.121872
H15   H     H_    0.323447 0.346646 0.757200 0.144389
H16   H     H_    0.400384 0.278888 0.828947 0.129994
C46   C     C_3   0.360838 0.226395 0.713830 -0.732486
H17   H     H_    0.433883 0.180186 0.718245 0.248178
H18   H     H_    0.271916 0.196403 0.733972 0.201006
H19   H     H_    0.348562 0.247235 0.650757 0.255010
O14   O     O_3   0.687541 0.628642 0.296103 -0.576671
C47   C     C_3   0.731322 0.708218 0.269351 0.119863
H20   H     H_    0.658363 0.740612 0.234221 0.111785
H21   H     H_    0.815429 0.703036 0.233371 0.175360
C48   C     C_3   0.768690 0.760499 0.341398 -0.781604
H22   H     H_    0.842710 0.730313 0.377182 0.257265
H23   H     H_    0.804042 0.823270 0.321443 0.213559
H24   H     H_    0.687515 0.767206 0.379388 0.239657
O15   O     O_3   0.615951 0.280873 0.605625 -0.540599
C49   C     C_3   0.737023 0.252431 0.619520 0.105817
H25   H     H_    0.803381 0.307223 0.616302 0.208780
H26   H     H_    0.767599 0.208112 0.574717 0.084465
C50   C     C_3   0.748205 0.213843 0.702952 -0.691347
H27   H     H_    0.681160 0.159875 0.709823 0.208680
H28   H     H_    0.843640 0.192575 0.713672 0.212685
H29   H     H_    0.729325 0.260355 0.748316 0.305477
O16   O     O_3   0.379282 0.719269 0.396893 -0.589634
C51   C     C_3   0.395511 0.751680 0.318526 0.110035
H30   H     H_    0.420350 0.699925 0.280301 0.185898
H31   H     H_    0.471600 0.800722 0.312468 0.108349
C52   C     C_3   0.273728 0.784314 0.285932 -0.824177
H32   H     H_    0.244180 0.835646 0.322989 0.247688
H33   H     H_    0.285608 0.807972 0.223858 0.223037
H34   H     H_    0.200191 0.733481 0.286054 0.289834
O17   O     O_3   0.662412 0.881019 0.633193 -0.608611
C53   C     C_3   0.598480 0.879420 0.705375 0.069989
H35   H     H_    0.593606 0.815253 0.731455 0.201198
H36   H     H_    0.502818 0.901992 0.696815 0.135712
C54   C     C_3   0.668448 0.936534 0.764025 -0.714130
H37   H     H_    0.670659 0.001592 0.740553 0.229933
H38   H     H_    0.621433 0.933720 0.822091 0.218523
H39   H     H_    0.765154 0.917079 0.773276 0.279407
O18   O     O_3   0.364312 0.120541 0.355179 -0.573702
C55   C     C_3   0.451893 0.090378 0.303102 0.093501
H40   H     H_    0.514811 0.046394 0.333393 0.149061
H41   H     H_    0.509827 0.142388 0.276927 0.118804
C56   C     C_3   0.383661 0.043813 0.235846 -0.715922
H42   H     H_    0.321618 0.085756 0.202247 0.285018
H43   H     H_    0.451628 0.020373 0.194360 0.186315
H44   H     H_    0.327343 0.990145 0.260550 0.265475
N9    N     N_R   0.924831 0.444225 0.702432 0.194466
O19   O     O_R   0.001178 0.415851 0.652215 -0.457016
O20   O     O_R   0.887026 0.395285 0.760471 -0.417754
N10   N     N_R   0.090417 0.465721 0.272659 0.231950
O21   O     O_R   0.127563 0.534924 0.306501 -0.416833
O22   O     O_R   0.049542 0.468493 0.199014 -0.361286
O23   O     O_3   0.139068 0.617529 0.585111 -0.617720
C57   C     C_3   0.139033 0.693471 0.540843 0.147720
H45   H     H_    0.043753 0.713186 0.526845 0.118559
H46   H     H_    0.185962 0.688185 0.483267 0.205972
C58   C     C_3   0.206868 0.761594 0.588577 -0.822395
H47   H     H_    0.304008 0.744962 0.601220 0.255921
H48   H     H_    0.207661 0.821201 0.554028 0.219765
H49   H     H_    0.159446 0.769617 0.645556 0.258721
O24   O     O_3   0.853072 0.409429 0.385799 -0.589462
C59   C     C_3   0.826103 0.324302 0.404409 0.144151
H50   H     H_    0.801471 0.313273 0.467581 0.132186
H51   H     H_    0.904596 0.286409 0.391828 0.154478
C60   C     C_3   0.720011 0.291556 0.350811 -0.833508
H52   H     H_    0.746579 0.297199 0.287407 0.256533
H53   H     H_    0.696908 0.225128 0.365710 0.186494
H54   H     H_    0.637501 0.327704 0.359304 0.281633
O25   O     O_3   0.410113 0.392487 0.233936 -0.595290
C61   C     C_3   0.463890 0.317409 0.212945 0.084787
H55   H     H_    0.475109 0.279080 0.267507 0.158380
H56   H     H_    0.558725 0.325246 0.187879 0.135382
C62   C     C_3   0.379367 0.268532 0.154705 -0.790026
H57   H     H_    0.352909 0.307554 0.102404 0.252298
H58   H     H_    0.427772 0.214200 0.133632 0.208989
H59   H     H_    0.294425 0.245485 0.184826 0.282019
O26   O     O_3   0.490035 0.635431 0.751268 -0.597426
C63   C     C_3   0.361985 0.643757 0.763878 0.119441
H60   H     H_    0.323203 0.603196 0.813034 0.132096
H61   H     H_    0.308832 0.627944 0.708214 0.214584
C64   C     C_3   0.340435 0.733246 0.784708 -0.833667
H62   H     H_    0.370680 0.775955 0.735611 0.233121
H63   H     H_    0.240159 0.740422 0.794277 0.232487
H64   H     H_    0.393762 0.750131 0.840065 0.263674

loop_
_geom_bond_atom_site_label_1
_geom_bond_atom_site_label_2
_geom_bond_distance
_ccdc_geom_bond_type
C42   C44   1.410199 A    
C39   C41   1.404047 A    
C50   H27   1.108491 S    
C13   H5    1.082331 S    
C18   C21   1.396877 A    
C7    C9    1.401825 A    
C60   H52   1.110697 S    
C32   H10   1.080894 S    
O7    Zn2   2.014526 S    
C11   N9    1.444001 S    
C53   H35   1.112719 S    
O23   C57   1.417152 S    
C23   C25   1.413946 A    
C46   H17   1.110717 S    
C5    C7    1.395209 A    
C64   H63   1.110525 S    
C35   O16   1.387469 S    
O1    C1    1.293783 A    
C3    C20   1.422060 S    
C60   H53   1.110700 S    
C10   C12   1.414729 A    
N9    O19   1.300494 A    
C57   C58   1.517956 S    
C39   N5    1.438251 S    
C58   H49   1.110329 S    
N8    O12   1.301591 A    
N3    C35   1.367241 A    
C62   H58   1.110226 S    
C51   H30   1.110237 S    
C29   N1    1.408441 S    
C44   H14   1.078545 S    
O24   C59   1.416748 S    
C30   N2    1.407082 S    
C36   C38   1.417132 A    
C29   C31   1.392422 A    
C33   O13   1.380810 S    
O4    Zn1   1.980401 S    
C37   C39   1.409964 A    
C6    C16   1.402674 A    
C38   C40   1.406547 A    
C27   H8    1.082939 S    
C52   H33   1.110398 S    
C25   O26   1.382130 S    
C47   H21   1.111800 S    
C28   H7    1.080605 S    
C64   H62   1.107685 S    
N10   O21   1.301427 A    
C41   C43   1.408212 A    
C56   H44   1.110794 S    
O25   C61   1.421982 S    
C43   H13   1.075636 S    
C40   N6    1.438194 S    
C6    C8    1.394897 A    
C32   C34   1.411655 A    
C48   H23   1.110361 S    
C62   H59   1.103334 S    
C25   C27   1.384508 A    
O2    C2    1.284056 A    
C26   C28   1.385911 A    
N3    C43   1.359185 A    
C59   C60   1.516465 S    
C28   C30   1.398552 A    
O15   C49   1.417642 S    
C46   H18   1.110356 S    
C30   C32   1.389621 A    
C18   O24   1.393798 S    
C35   C37   1.417521 A    
C13   C15   1.402177 A    
N1    N2    1.246207 D    
C63   C64   1.520372 S    
C8    C10   1.404780 A    
C14   C16   1.406890 A    
C60   H54   1.102106 S    
C31   C33   1.394834 A    
C36   O15   1.387122 S    
C52   H34   1.110889 S    
N8    O11   1.301622 A    
C59   H50   1.108951 S    
Zn1   N4    1.996147 S    
O13   C45   1.412934 S    
C40   C42   1.409663 A    
O5    C3    1.273453 A    
N7    O9    1.300941 A    
O7    C3    1.281766 A    
C17   O23   1.384898 S    
C34   O14   1.397999 S    
C15   N7    1.439596 S    
O26   C63   1.417237 S    
C61   C62   1.522237 S    
O6    C4    1.279894 A    
C64   H64   1.110633 S    
C10   C21   1.483279 S    
C42   O18   1.384047 S    
C48   H22   1.111204 S    
C4    C19   1.435711 S    
C26   O25   1.386686 S    
N7    O10   1.301653 A    
O18   C55   1.415599 S    
O3    Zn2   1.980397 S    
O8    C4    1.282440 A    
C37   H12   1.080810 S    
C59   H51   1.096258 S    
C23   C33   1.411796 A    
C61   H56   1.117707 S    
C45   H15   1.116247 S    
C48   H24   1.108842 S    
C45   H16   1.113278 S    
C1    C23   1.467675 S    
C56   H42   1.109259 S    
C2    C24   1.459158 S    
C54   H39   1.110427 S    
O4    C2    1.288958 A    
C11   C13   1.407383 A    
C55   H41   1.109989 S    
C20   C22   1.400643 A    
C49   C50   1.524147 S    
C12   N10   1.441239 S    
C19   C21   1.412730 A    
C47   C48   1.521628 S    
C31   H9    1.083656 S    
O17   C53   1.410204 S    
C50   H28   1.110296 S    
C46   H19   1.110242 S    
N4    C44   1.360744 A    
C5    H1    1.081181 S    
Zn2   N3    1.996146 S    
O6    Zn2   2.011347 S    
C7    H3    1.081425 S    
C41   O17   1.380931 S    
C6    H2    1.082225 S    
C8    H4    1.083738 S    
C57   H45   1.108732 S    
O3    C1    1.286196 A    
O8    Zn1   2.014525 S    
C53   H36   1.116081 S    
C58   H47   1.108603 S    
C5    C15   1.399978 A    
C50   H29   1.109232 S    
C45   C46   1.520772 S    
O16   C51   1.417074 S    
C12   C14   1.407264 A    
C17   C22   1.384939 A    
C9    C22   1.488090 S    
C63   H60   1.118673 S    
C55   C56   1.520665 S    
C54   H38   1.110464 S    
C55   H40   1.111161 S    
C14   H6    1.082023 S    
C27   C29   1.403166 A    
C52   H32   1.109539 S    
C58   H48   1.110432 S    
C47   H20   1.114385 S    
C51   H31   1.115295 S    
C24   C34   1.420720 A    
C24   C26   1.403728 A    
C17   C19   1.408041 A    
C38   H11   1.080245 S    
C18   C20   1.406102 A    
C9    C11   1.423070 A    
N5    N6    1.251774 D    
O2    Zn2   1.981997 S    
C49   H26   1.115347 S    
C53   C54   1.520383 S    
C16   N8    1.440419 S    
O5    Zn1   2.011347 S    
O1    Zn1   1.981994 S    
C61   H55   1.100712 S    
N10   O22   1.301481 A    
C49   H25   1.109190 S    
C57   H46   1.110472 S    
C62   H57   1.107952 S    
C56   H43   1.110429 S    
O14   C47   1.411587 S    
C54   H37   1.110510 S    
N4    C36   1.368867 A    
C63   H61   1.110057 S    
N9    O20   1.301448 A    
C51   C52   1.522982 S    
