data_mof_unit_51140.cif
_audit_creation_date              2012-12-10T20:45:31-0500
_audit_creation_method            fapswitch 2.2
_symmetry_space_group_name_H-M    P1
_symmetry_Int_Tables_number       1
_space_group_crystal_system       triclinic
_cell_length_a                    10.629494
_cell_length_b                    10.674088
_cell_length_c                    9.870414
_cell_angle_alpha                 89.58849
_cell_angle_beta                  90.922637
_cell_angle_gamma                 89.320738
_cell_volume                      1119.64436378

loop_
_atom_site_label
_atom_site_type_symbol
_atom_type_description
_atom_site_fract_x
_atom_site_fract_y
_atom_site_fract_z
_atom_type_partial_charge
C1    C     C_R   0.506113 0.260245 0.500775 0.923178
C2    C     C_R   0.218362 0.889101 0.189544 0.008189
C3    C     C_R   0.928919 0.590098 0.429124 -0.168091
C4    C     C_R   0.871824 0.496168 0.503949 -0.076114
C5    C     C_R   0.941358 0.404716 0.576936 0.016155
C6    C     C_R   0.070618 0.410281 0.573861 -0.219429
C7    C     C_R   0.127737 0.504047 0.498584 -0.079105
C8    C     C_R   0.057956 0.595024 0.425641 0.006724
C9    C     C_R   0.826694 0.311191 0.772699 -0.091086
C10   C     C_R   0.778613 0.206983 0.840198 -0.214312
C11   C     C_R   0.789741 0.087741 0.783515 -0.151690
C12   C     C_R   0.260291 0.503851 0.499128 0.887606
C13   C     C_R   0.847647 0.072655 0.658237 0.442008
C14   C     C_R   0.894151 0.176979 0.589711 -0.229546
C15   C     C_R   0.883614 0.296875 0.646291 0.025811
C16   C     C_R   0.521208 0.062637 0.623809 0.131557
C17   C     C_R   0.530623 0.129495 0.503430 -0.163388
C18   C     C_R   0.567173 0.068080 0.385578 -0.241837
C19   C     C_R   0.567463 0.938403 0.382356 0.417640
C20   C     C_R   0.529633 0.871710 0.499309 -0.182773
C21   C     C_R   0.520048 0.935210 0.621630 0.113694
C22   C     C_3   0.424191 0.928360 0.730617 -0.430547
C23   C     C_R   0.506260 0.740180 0.499269 0.922172
C24   C     C_3   0.427177 0.070395 0.734078 -0.450645
C25   C     C_R   0.433971 0.412077 0.070603 0.213084
C26   C     C_R   0.579118 0.574141 0.073286 -0.119472
C27   C     C_R   0.578554 0.575357 0.929374 -0.030517
C28   C     C_R   0.433606 0.412310 0.928233 0.192230
C29   C     C_3   0.295262 0.391417 0.920669 -0.492546
C30   C     C_3   0.296127 0.390672 0.074649 -0.480452
C31   C     C_R   0.739563 0.495494 0.501239 0.894699
C32   C     C_R   0.201432 0.904888 0.330006 -0.000210
C33   C     C_R   0.154084 0.806501 0.407999 -0.175752
C34   C     C_R   0.115992 0.695525 0.345743 0.094612
C35   C     C_R   0.122999 0.683995 0.205093 -0.197569
C36   C     C_R   0.177839 0.777856 0.127107 0.015229
H1    H     H_    0.753101 0.007365 0.836757 0.183150
H2    H     H_    0.939720 0.164634 0.493221 0.178595
H3    H     H_    0.587217 0.120016 0.293810 0.197116
H4    H     H_    0.332823 0.891315 0.693140 0.208724
H5    H     H_    0.462389 0.883551 0.824879 0.229961
H6    H     H_    0.336999 0.115848 0.701446 0.211502
H7    H     H_    0.469774 0.107835 0.828801 0.220755
H8    H     H_    0.642859 0.633310 0.129141 0.205397
H9    H     H_    0.242340 0.472325 0.875587 0.232170
H10   H     H_    0.272125 0.298958 0.876275 0.206784
H11   H     H_    0.245148 0.470949 0.118538 0.213493
H12   H     H_    0.273295 0.298435 0.119962 0.222810
H13   H     H_    0.142431 0.817777 0.516209 0.173811
H14   H     H_    0.084791 0.601780 0.156520 0.132784
H15   H     H_    0.872654 0.659812 0.374039 0.191636
H16   H     H_    0.127056 0.339891 0.627679 0.156810
H17   H     H_    0.820654 0.402533 0.819377 0.148840
H18   H     H_    0.733890 0.218479 0.937153 0.156909
N1    N     N_R   0.499160 0.499140 0.142800 -0.116254
N2    N     N_R   0.499160 0.499180 0.857150 -0.129539
O1    O     O_R   0.500020 0.316790 0.614690 -0.619450
O2    O     O_R   0.500000 0.316760 0.385350 -0.623742
O3    O     O_R   0.316770 0.500030 0.614670 -0.620056
O4    O     O_R   0.316750 0.499990 0.385330 -0.615226
O5    O     O_R   0.500000 0.683240 0.614650 -0.617313
O6    O     O_R   0.499980 0.683210 0.385310 -0.567525
O7    O     O_R   0.683250 0.500010 0.614670 -0.622123
O8    O     O_R   0.683230 0.499970 0.385330 -0.628074
Zn1   Zn    Zn3+2 0.500010 0.500020 0.653130 0.961051
Zn2   Zn    Zn3+2 0.499990 0.499980 0.346870 0.977742
C37   C     C_1   0.275599 0.986686 0.109912 0.201999
N3    N     N_1   0.321889 0.064351 0.046240 -0.229272
Cl1   Cl    Cl    0.863377 0.923161 0.587248 -0.659529
Cl2   Cl    Cl    0.608306 0.869338 0.227621 -0.661088
C38   C     C_1   0.222862 0.024154 0.393797 0.160523
N4    N     N_1   0.237992 0.120446 0.444130 -0.241791
C39   C     C_1   0.661851 0.658505 0.860460 0.251718
N5    N     N_1   0.729381 0.725575 0.805745 -0.144100
C40   C     C_1   0.188387 0.758979 0.982921 0.165318
N6    N     N_1   0.196460 0.743336 0.867486 -0.204023

loop_
_geom_bond_atom_site_label_1
_geom_bond_atom_site_label_2
_ccdc_geom_bond_type
O7    Zn1   S    
C16   C21   A    
C24   H6    S    
C39   N5    T    
C19   C20   A    
C18   H3    S    
C26   N1    A    
C28   N2    A    
C26   H8    S    
C7    C8    A    
C25   C28   A    
C26   C27   A    
C30   H12   S    
C28   C29   S    
C18   C19   A    
C5    C6    A    
C22   H5    S    
C33   H13   S    
N2    Zn1   S    
C2    C32   A    
C34   C35   A    
C11   H1    S    
C12   O3    A    
O2    Zn2   S    
C23   O6    A    
C35   C36   A    
C16   C17   A    
C9    C10   A    
O4    Zn2   S    
C16   C24   S    
C13   C14   A    
C33   C34   A    
C32   C38   S    
C7    C12   S    
O6    Zn2   S    
C37   N3    T    
C31   O7    A    
C30   H11   S    
C3    C8    A    
C3    H15   S    
C27   N2    A    
C29   H9    S    
O8    Zn2   S    
C40   N6    T    
C29   C30   S    
C36   C40   S    
C1    O1    A    
C14   H2    S    
C20   C23   S    
C22   H4    S    
C35   H14   S    
C17   C18   A    
C8    C34   S    
C2    C37   S    
C22   C24   S    
C9    H17   S    
C3    C4    A    
N1    Zn2   S    
C2    C36   A    
C25   C30   S    
C31   O8    A    
C25   N1    A    
O1    Zn1   S    
C4    C5    A    
C6    C7    A    
C1    C17   S    
C29   H10   S    
C32   C33   A    
C9    C15   A    
C38   N4    T    
C27   C39   S    
C1    O2    A    
O3    Zn1   S    
C11   C13   A    
C13   Cl1   S    
C10   H18   S    
C5    C15   S    
C4    C31   S    
C10   C11   A    
C12   O4    A    
O5    Zn1   S    
C23   O5    A    
C20   C21   A    
C24   H7    S    
C14   C15   A    
C19   Cl2   S    
C6    H16   S    
C21   C22   S    
