data_mof_unit_32681.cif
_audit_creation_date              2012-12-10T17:31:19-0500
_audit_creation_method            fapswitch 2.2
_symmetry_space_group_name_H-M    P1
_symmetry_Int_Tables_number       1
_space_group_crystal_system       triclinic
_cell_length_a                    18.871673
_cell_length_b                    18.556608
_cell_length_c                    12.485658
_cell_angle_alpha                 90.470095
_cell_angle_beta                  129.391517
_cell_angle_gamma                 89.584969
_cell_volume                      3378.98991171

loop_
_atom_site_label
_atom_site_type_symbol
_atom_type_description
_atom_site_fract_x
_atom_site_fract_y
_atom_site_fract_z
_atom_type_partial_charge
C1    C     C_R   0.614456 0.899562 0.654663 0.853118
C2    C     C_R   0.612857 0.101184 0.653178 0.858935
C3    C     C_R   0.114915 0.399907 0.655211 0.852055
C4    C     C_R   0.113092 0.601039 0.653458 0.857218
C5    C     C_R   0.245136 0.775851 0.034030 0.096590
C6    C     C_R   0.247473 0.227034 0.037359 0.102463
C7    C     C_R   0.744651 0.276006 0.033770 0.097000
C8    C     C_R   0.746665 0.726731 0.036956 0.102652
C9    C     C_R   0.663453 0.269878 0.016898 0.130196
C10   C     C_R   0.661605 0.728827 0.009752 0.122468
C11   C     C_R   0.164124 0.769436 0.017567 0.133689
C12   C     C_R   0.161087 0.226483 0.005995 0.129173
C13   C     C_R   0.585122 0.239752 0.896590 -0.200365
C14   C     C_R   0.584711 0.759278 0.888922 -0.213424
C15   C     C_R   0.085808 0.739323 0.897248 -0.198442
C16   C     C_R   0.084170 0.255786 0.883450 -0.214061
C17   C     C_R   0.588548 0.210263 0.798113 -0.187998
C18   C     C_R   0.591152 0.790563 0.796142 -0.181932
C19   C     C_R   0.089128 0.710203 0.798430 -0.188877
C20   C     C_R   0.091773 0.288884 0.793274 -0.183997
C21   C     C_R   0.316552 0.817648 0.144668 -0.280619
C22   C     C_R   0.320182 0.189323 0.156272 -0.270766
C23   C     C_R   0.816345 0.317406 0.145044 -0.281188
C24   C     C_R   0.818960 0.687738 0.153778 -0.277875
C25   C     C_R   0.238902 0.825330 0.242184 0.066778
C26   C     C_R   0.219109 0.150901 0.203155 0.029459
C27   C     C_R   0.737473 0.326779 0.240542 0.062395
C28   C     C_R   0.719981 0.653145 0.206800 0.091262
C29   C     C_R   0.681728 0.156390 0.743550 -0.183417
C30   C     C_R   0.685461 0.845371 0.747503 -0.187319
C31   C     C_R   0.182398 0.655935 0.744348 -0.179957
C32   C     C_R   0.186863 0.346506 0.749177 -0.184090
C33   C     C_R   0.683352 0.016654 0.286243 -0.269139
C34   C     C_R   0.183086 0.517221 0.285939 -0.269278
C35   C     C_R   0.343482 0.006790 0.626519 0.680518
C36   C     C_R   0.843658 0.507306 0.626254 0.679479
C37   C     C_R   0.306306 0.026837 0.690166 -0.062477
C38   C     C_R   0.805746 0.525530 0.689496 -0.065292
C39   C     C_R   0.381649 0.097743 0.339721 0.761068
C40   C     C_R   0.384698 0.899700 0.343656 0.752051
C41   C     C_R   0.881411 0.597564 0.339470 0.764052
C42   C     C_R   0.884390 0.399929 0.343322 0.756199
C43   C     C_R   0.361859 0.024803 0.837157 0.039999
C44   C     C_R   0.861109 0.523011 0.836496 0.042409
C45   C     C_R   0.458368 0.009027 0.918708 -0.141068
C46   C     C_R   0.957982 0.508313 0.918428 -0.140065
C47   C     C_R   0.493880 0.003483 0.843621 0.000604
C48   C     C_R   0.993677 0.503198 0.843542 0.001651
C49   C     C_R   0.523524 0.005460 0.071216 -0.000633
C50   C     C_R   0.023247 0.505155 0.071037 -0.000055
C51   C     C_R   0.618388 0.012367 0.141102 0.063930
C52   C     C_R   0.118079 0.512562 0.140846 0.064164
C53   C     C_R   0.649777 0.012866 0.067467 -0.302054
C54   C     C_R   0.149471 0.513120 0.067254 -0.301796
C55   C     C_R   0.591292 0.004593 0.925505 0.656548
C56   C     C_R   0.091061 0.504578 0.925422 0.656060
C57   C     C_R   0.501874 0.993506 0.160709 0.015582
C58   C     C_R   0.001841 0.493219 0.160816 0.015981
C59   C     C_R   0.655411 0.011924 0.365015 0.080875
C60   C     C_R   0.155288 0.512356 0.364844 0.081334
C61   C     C_R   0.661544 0.292857 0.121407 -0.186416
C62   C     C_R   0.651503 0.696812 0.099064 -0.198172
C63   C     C_R   0.162604 0.791864 0.122742 -0.193416
C64   C     C_R   0.149783 0.192837 0.092724 -0.195581
C65   C     C_R   0.313307 0.845681 0.246309 -0.084794
C66   C     C_R   0.306690 0.148430 0.236930 -0.076926
C67   C     C_R   0.812642 0.346137 0.245809 -0.084448
C68   C     C_R   0.806331 0.648232 0.236670 -0.090173
C69   C     C_R   0.763975 0.154423 0.764809 -0.255991
C70   C     C_R   0.768527 0.847262 0.771118 -0.251672
C71   C     C_R   0.265044 0.653306 0.766683 -0.258632
C72   C     C_R   0.270608 0.349973 0.775076 -0.252694
C73   C     C_R   0.340429 0.691932 0.874536 0.612159
C74   C     C_R   0.346196 0.311543 0.884126 0.630321
C75   C     C_R   0.839147 0.193343 0.872102 0.618191
C76   C     C_R   0.843759 0.808152 0.879081 0.630120
C77   C     C_R   0.334866 0.733993 0.961635 -0.277999
C78   C     C_R   0.340204 0.270273 0.971006 -0.298239
C79   C     C_R   0.833886 0.234978 0.959926 -0.281408
C80   C     C_R   0.838058 0.767496 0.966797 -0.300074
C81   C     C_R   0.751053 0.239864 0.939346 0.010032
C82   C     C_R   0.755034 0.763650 0.945523 0.009019
C83   C     C_R   0.251706 0.739499 0.939987 0.009491
C84   C     C_R   0.256505 0.264884 0.947388 0.007115
C85   C     C_R   0.672907 0.202608 0.825067 0.085919
C86   C     C_R   0.676718 0.799729 0.828588 0.097873
C87   C     C_R   0.173526 0.702381 0.825537 0.085282
C88   C     C_R   0.177961 0.300030 0.829010 0.098650
Cu1   Cu    Cu3+1 0.526340 0.000000 0.421010 0.932617
Cu2   Cu    Cu3+1 0.026340 0.500000 0.421010 0.932802
Cu3   Cu    Cu3+1 0.473640 1.000000 0.578990 1.013256
Cu4   Cu    Cu3+1 0.973640 0.500000 0.578990 1.014342
H1    H     H_    0.722886 0.016353 0.122028 0.179285
H2    H     H_    0.222555 0.516891 0.121776 0.179416
H3    H     H_    0.755677 0.023666 0.338643 0.138064
H4    H     H_    0.255338 0.524606 0.338198 0.137410
H5    H     H_    0.435462 0.976875 0.121801 0.151383
H6    H     H_    0.935705 0.476311 0.122475 0.152027
H7    H     H_    0.521018 0.238332 0.878681 0.206062
H8    H     H_    0.518551 0.757627 0.864405 0.200716
H9    H     H_    0.021852 0.737517 0.879631 0.210053
H10   H     H_    0.017112 0.251922 0.855492 0.203564
H11   H     H_    0.601310 0.282016 0.111745 0.184588
H12   H     H_    0.586233 0.700842 0.077371 0.210387
H13   H     H_    0.102674 0.780604 0.113697 0.180085
H14   H     H_    0.083234 0.194208 0.066999 0.213907
H15   H     H_    0.374377 0.830997 0.150632 0.162240
H16   H     H_    0.387296 0.188028 0.184749 0.155457
H17   H     H_    0.874811 0.330039 0.152285 0.162292
H18   H     H_    0.885084 0.684664 0.179147 0.158820
H19   H     H_    0.772172 0.119041 0.703839 0.172936
H20   H     H_    0.776794 0.882068 0.710491 0.174815
H21   H     H_    0.273328 0.617593 0.706189 0.171652
H22   H     H_    0.278952 0.385373 0.715217 0.173154
H23   H     H_    0.397828 0.758709 0.048287 0.149258
H24   H     H_    0.402313 0.244026 0.056183 0.150631
H25   H     H_    0.896787 0.260048 0.045889 0.150034
H26   H     H_    0.900052 0.740764 0.051110 0.150997
H27   H     H_    0.524736 0.191290 0.703040 0.155629
H28   H     H_    0.528047 0.808366 0.699375 0.149024
H29   H     H_    0.025277 0.691369 0.703256 0.155963
H30   H     H_    0.029026 0.306274 0.695512 0.144797
H31   H     H_    0.704900 0.016921 0.476641 0.120867
H32   H     H_    0.204779 0.517617 0.476426 0.119905
N1    N     N_R   0.566260 1.000000 0.302220 -0.186511
N2    N     N_R   0.066260 0.500000 0.302220 -0.186679
N3    N     N_R   0.434410 1.000000 0.697680 -0.232189
N4    N     N_R   0.934410 0.500000 0.697680 -0.228805
O1    O     O_R   0.608610 0.924520 0.551740 -0.594565
O2    O     O_R   0.608610 0.075480 0.551740 -0.598727
O3    O     O_R   0.108610 0.424520 0.551740 -0.595035
O4    O     O_R   0.108610 0.575480 0.551740 -0.598912
O5    O     O_R   0.564110 0.924510 0.685150 -0.506950
O6    O     O_R   0.564110 0.075490 0.685150 -0.516463
O7    O     O_R   0.064110 0.424510 0.685150 -0.506025
O8    O     O_R   0.064110 0.575490 0.685150 -0.516729
O9    O     O_R   0.435880 0.075470 0.314850 -0.590578
O10   O     O_R   0.435880 0.924530 0.314850 -0.595977
O11   O     O_R   0.935880 0.575470 0.314850 -0.590800
O12   O     O_R   0.935880 0.424530 0.314850 -0.596627
O13   O     O_R   0.391380 0.075460 0.448260 -0.553534
O14   O     O_R   0.391380 0.924540 0.448260 -0.542876
O15   O     O_R   0.891380 0.575460 0.448260 -0.549995
O16   O     O_R   0.891380 0.424540 0.448260 -0.541643
C89   C     C_3   0.238435 0.833716 0.361904 -0.389585
C90   C     C_3   0.306650 0.781851 0.478992 -0.335991
C91   C     C_3   0.312032 0.794503 0.604688 -0.820789
H33   H     H_    0.339346 0.849093 0.648746 0.253921
H34   H     H_    0.243340 0.788596 0.576124 0.250955
H35   H     H_    0.358687 0.753986 0.684378 0.274494
H36   H     H_    0.284551 0.725418 0.442162 0.219313
H37   H     H_    0.375796 0.788899 0.510088 0.214932
H38   H     H_    0.252563 0.889355 0.397825 0.287201
H39   H     H_    0.169296 0.822351 0.329061 0.183984
C92   C     C_3   0.188662 0.101520 0.261466 -0.348833
C93   C     C_3   0.162676 0.027408 0.188671 -0.259569
C94   C     C_3   0.093286 0.987006 0.190706 -0.785054
H40   H     H_    0.121977 0.974259 0.297808 0.264985
H41   H     H_    0.029851 0.019578 0.140253 0.256938
H42   H     H_    0.074774 0.935553 0.132496 0.255926
H43   H     H_    0.130404 0.034661 0.077827 0.215203
H44   H     H_    0.225136 0.994072 0.236834 0.236851
H45   H     H_    0.241725 0.100482 0.373994 0.255376
H46   H     H_    0.128104 0.124664 0.245810 0.189579
C95   C     C_3   0.735008 0.337742 0.357910 -0.388531
C96   C     C_3   0.803264 0.287824 0.479267 -0.328195
C97   C     C_3   0.804628 0.301791 0.601008 -0.817104
H47   H     H_    0.827068 0.357701 0.640174 0.254034
H48   H     H_    0.735618 0.292855 0.569868 0.248927
H49   H     H_    0.853658 0.264184 0.685681 0.271351
H50   H     H_    0.783518 0.230787 0.445252 0.217438
H51   H     H_    0.873179 0.295848 0.513888 0.216766
H52   H     H_    0.747491 0.394124 0.389299 0.275902
H53   H     H_    0.665570 0.326362 0.323911 0.185404
C98   C     C_3   0.691383 0.607857 0.272584 -0.351171
C99   C     C_3   0.661239 0.531755 0.207905 -0.275737
C100  C     C_3   0.574471 0.532058 0.055979 -0.787574
H54   H     H_    0.517305 0.558628 0.045144 0.284259
H55   H     H_    0.586150 0.560419 0.990648 0.264921
H56   H     H_    0.554372 0.475671 0.017840 0.254729
H57   H     H_    0.717568 0.504320 0.217567 0.227619
H58   H     H_    0.645051 0.499695 0.264533 0.239176
H59   H     H_    0.747391 0.608105 0.384633 0.237527
H60   H     H_    0.633474 0.633248 0.261620 0.177766
F1    F     F_    0.288397 0.999263 0.489167 -0.732553
F2    F     F_    0.789601 0.501740 0.489082 -0.743835
C101  C     C_3   0.316598 0.045436 0.900185 -0.369451
C102  C     C_3   0.264313 0.981010 0.898109 -0.342724
C103  C     C_3   0.230510 0.998006 0.978631 -0.846892
H61   H     H_    0.289425 0.007221 0.089511 0.260651
H62   H     H_    0.186145 0.046767 0.935878 0.258260
H63   H     H_    0.190235 0.951856 0.970700 0.249899
H64   H     H_    0.204114 0.967058 0.790276 0.214377
H65   H     H_    0.307670 0.931770 0.941191 0.213146
H66   H     H_    0.365198 0.070960 0.003245 0.193413
H67   H     H_    0.267560 0.090426 0.843537 0.200009
C104  C     C_3   0.815328 0.542320 0.899226 -0.370002
C105  C     C_3   0.765120 0.476922 0.899180 -0.353459
C106  C     C_3   0.730389 0.493851 0.978478 -0.827028
H68   H     H_    0.788803 0.504086 0.089251 0.260662
H69   H     H_    0.685325 0.542151 0.934004 0.255573
H70   H     H_    0.690626 0.447477 0.971167 0.253422
H71   H     H_    0.705538 0.461683 0.791751 0.214661
H72   H     H_    0.809940 0.428522 0.944162 0.214116
H73   H     H_    0.863151 0.568931 0.001379 0.192154
H74   H     H_    0.764597 0.586105 0.841455 0.200453
C107  C     C_3   0.209670 0.058740 0.597175 -0.387115
C108  C     C_3   0.213166 0.141304 0.589842 -0.339557
C109  C     C_3   0.117505 0.174610 0.504096 -0.851557
H75   H     H_    0.122398 0.233938 0.499323 0.247919
H76   H     H_    0.073345 0.152567 0.396861 0.254536
H77   H     H_    0.085688 0.163268 0.552492 0.253963
H78   H     H_    0.256113 0.165732 0.695032 0.221342
H79   H     H_    0.244954 0.155809 0.542756 0.216582
H80   H     H_    0.168932 0.036664 0.490665 0.229265
H81   H     H_    0.170028 0.043697 0.630926 0.194325
C110  C     C_3   0.707695 0.554791 0.595608 -0.382503
C111  C     C_3   0.707213 0.637713 0.588959 -0.340395
C112  C     C_3   0.610032 0.667993 0.503330 -0.855409
H82   H     H_    0.612043 0.727635 0.498863 0.246529
H83   H     H_    0.566920 0.646166 0.395999 0.254559
H84   H     H_    0.578846 0.653864 0.551634 0.254757
H85   H     H_    0.748964 0.662093 0.694037 0.221026
H86   H     H_    0.738356 0.655192 0.542444 0.214545
H87   H     H_    0.668303 0.532999 0.488687 0.227297
H88   H     H_    0.668560 0.536854 0.628725 0.194404
F3    F     F_    0.637132 0.999399 0.877103 -0.647704
F4    F     F_    0.136927 0.499430 0.877064 -0.648104
F5    F     F_    0.421475 0.684257 0.900853 -0.745203
F6    F     F_    0.427570 0.317987 0.911022 -0.722210
F7    F     F_    0.919728 0.186419 0.896948 -0.739621
F8    F     F_    0.924706 0.813473 0.904382 -0.721985

loop_
_geom_bond_atom_site_label_1
_geom_bond_atom_site_label_2
_ccdc_geom_bond_type
C83   C87   A    
C39   O9    A    
C96   H51   S    
C108  H78   S    
C40   O14   A    
C101  H67   S    
C69   H19   S    
C14   C18   A    
C53   C55   A    
C104  H73   S    
C91   H33   S    
C58   H6    S    
C48   C56   A    
C74   F6    S    
C73   F5    S    
Cu2   O11   S    
C26   C92   S    
C49   C57   A    
C111  H85   S    
C32   C72   A    
Cu4   O8    S    
C33   H3    S    
C15   C19   A    
C95   C96   S    
Cu3   N3    S    
C2    C29   S    
C9    C61   A    
C98   H59   S    
C93   C94   S    
C61   H11   S    
C34   H4    S    
C5    C11   A    
C19   C87   A    
C1    C30   S    
C57   N1    A    
C12   C64   A    
C7    C23   A    
C48   N4    A    
C42   C67   S    
C77   C83   A    
C95   H52   S    
C32   C88   A    
C72   H22   S    
C109  H77   S    
Cu1   O1    S    
C13   H7    S    
C71   H21   S    
C103  H62   S    
C25   C63   A    
C55   F3    S    
C60   H32   S    
Cu4   O15   S    
C9    C13   A    
C22   C66   A    
C26   C64   A    
C34   C52   A    
C27   C61   A    
C8    C24   A    
C11   C15   A    
C94   H40   S    
C12   C16   A    
C44   C46   A    
C108  C109  S    
C100  H55   S    
C40   O10   A    
C76   F8    S    
C106  H70   S    
C50   C52   A    
C76   C80   A    
C105  C106  S    
C45   C49   A    
Cu1   Cu3   S    
C29   C85   A    
C35   F1    S    
C110  H88   S    
C4    O8    A    
Cu3   O14   S    
Cu2   O4    S    
C31   C71   A    
C93   H44   S    
C44   C104  S    
C33   C59   A    
C34   C60   A    
C37   C107  S    
C38   C110  S    
C104  H74   S    
C10   C62   A    
C17   C85   A    
C1    O5    A    
Cu4   N4    S    
C6    C12   A    
C21   C65   A    
C30   C70   A    
C97   H47   S    
C52   C54   A    
C89   C90   S    
C41   C68   S    
C29   C69   A    
C45   C47   A    
C59   H31   S    
C99   H57   S    
C23   H17   S    
C46   C48   A    
C91   H34   S    
C6    C84   A    
C28   C62   A    
C56   F4    S    
Cu4   O16   S    
C53   H1    S    
C107  C108  S    
C26   C66   A    
C39   O13   A    
C91   H35   S    
C31   C87   A    
C72   C74   A    
C10   C14   A    
C80   H26   S    
C112  H82   S    
C79   C81   A    
C2    O2    A    
Cu1   N1    S    
C49   C51   A    
C95   H53   S    
C82   C86   A    
C24   C68   A    
C42   O12   A    
C62   H12   S    
Cu1   O2    S    
C97   H48   S    
C74   C78   A    
C102  C103  S    
C51   C53   A    
C50   C58   A    
C37   C43   A    
C103  H63   S    
C35   N3    A    
C5    C83   A    
C38   C44   A    
C54   H2    S    
C112  H83   S    
Cu2   Cu4   S    
C98   C99   S    
Cu3   O5    S    
C43   C101  S    
C16   C20   A    
C100  H56   S    
C57   H5    S    
C107  H80   S    
C109  H75   S    
Cu2   N2    S    
C24   H18   S    
C14   H8    S    
C28   C98   S    
C2    O6    A    
C15   H9    S    
C64   H14   S    
C43   C45   A    
Cu1   O10   S    
C8    C82   A    
C21   H15   S    
C96   H50   S    
C27   C95   S    
C90   H37   S    
C97   H49   S    
C16   H10   S    
C99   C100  S    
C7    C81   A    
C102  H64   S    
C58   N2    A    
C94   H42   S    
Cu1   O9    S    
C40   C65   S    
C105  H72   S    
C96   C97   S    
C39   C66   S    
C3    O3    A    
Cu4   O7    S    
C30   C86   A    
Cu2   O3    S    
C70   C76   A    
C18   H28   S    
C36   N4    A    
C35   C37   A    
C36   F2    S    
C47   C55   A    
C90   C91   S    
C103  H61   S    
C7    C9    A    
C19   H29   S    
C108  H79   S    
C99   H58   S    
C3    C32   S    
C28   C68   A    
C20   H30   S    
C8    C10   A    
C78   H24   S    
C84   C88   A    
C93   H43   S    
Cu2   O12   S    
C54   C56   A    
C41   O15   A    
C92   H46   S    
C33   C51   A    
C46   C50   A    
C1    O1    A    
C13   C17   A    
C75   F7    S    
C92   H45   S    
C60   N2    A    
C110  C111  S    
C89   H38   S    
C101  C102  S    
C77   H23   S    
C59   N1    A    
C112  H84   S    
C42   O16   A    
C4    O4    A    
C111  C112  S    
C18   C86   A    
Cu3   O6    S    
C23   C67   A    
C47   N3    A    
C22   H16   S    
C79   H25   S    
C36   C38   A    
C107  H81   S    
C109  H76   S    
C80   C82   A    
C69   C75   A    
C3    O7    A    
C111  H86   S    
C104  C105  S    
C70   H20   S    
C41   O11   A    
C4    C31   S    
C27   C67   A    
C63   H13   S    
C17   H27   S    
C102  H65   S    
C90   H36   S    
C78   C84   A    
C106  H68   S    
C5    C21   A    
C94   H41   S    
C100  H54   S    
C20   C88   A    
C71   C73   A    
C105  H71   S    
C106  H69   S    
C25   C65   A    
C73   C77   A    
C101  H66   S    
C25   C89   S    
C89   H39   S    
C92   C93   S    
C11   C63   A    
C75   C79   A    
C81   C85   A    
C110  H87   S    
C98   H60   S    
Cu3   O13   S    
C6    C22   A    
