data_mof_unit_46079.cif
_audit_creation_date              2012-12-11T14:50:34-0500
_audit_creation_method            fapswitch 2.2
_symmetry_space_group_name_H-M    P1
_symmetry_Int_Tables_number       1
_space_group_crystal_system       triclinic
_cell_length_a                    10.919323
_cell_length_b                    10.984285
_cell_length_c                    18.827014
_cell_angle_alpha                 90.463693
_cell_angle_beta                  89.613908
_cell_angle_gamma                 60.423446
_cell_volume                      1963.67501712

loop_
_atom_site_label
_atom_site_type_symbol
_atom_type_description
_atom_site_fract_x
_atom_site_fract_y
_atom_site_fract_z
_atom_type_partial_charge
C1    C     C_R   0.228172 0.650775 0.607199 0.574102
C2    C     C_3   0.693105 0.537811 0.801613 -0.212727
C3    C     C_3   0.700514 0.672400 0.812969 0.034917
C4    C     C_3   0.669112 0.643151 0.677967 0.073469
C5    C     C_3   0.809625 0.641691 0.689353 -0.279940
C6    C     C_3   0.670556 0.522159 0.722393 0.035784
C7    C     C_R   0.787241 0.140050 0.707024 -0.179768
C8    C     C_R   0.804782 0.123907 0.780593 -0.156579
C9    C     C_R   0.688486 0.155085 0.824464 0.004329
C10   C     C_R   0.556594 0.203408 0.794629 -0.088705
C11   C     C_R   0.539989 0.203310 0.722310 0.171486
C12   C     C_R   0.652146 0.619408 0.602222 0.569569
C13   C     C_R   0.655237 0.179787 0.676929 0.062616
C14   C     C_R   0.156977 0.574451 0.715966 -0.117603
C15   C     C_R   0.156435 0.575037 0.790188 -0.130688
C16   C     C_R   0.153246 0.687070 0.828066 0.045636
C17   C     C_R   0.154921 0.796036 0.790551 -0.120959
C18   C     C_R   0.158646 0.793587 0.717168 -0.117175
C19   C     C_R   0.167630 0.678589 0.679210 0.054831
C20   C     C_R   0.702103 0.525642 0.268908 -0.110492
C21   C     C_R   0.699323 0.542377 0.195628 0.132709
C22   C     C_R   0.648005 0.677031 0.168311 0.049909
C23   C     C_R   0.626313 0.229041 0.603377 0.575801
C24   C     C_R   0.582940 0.794651 0.213900 -0.162726
C25   C     C_R   0.580790 0.777463 0.287056 -0.147665
C26   C     C_R   0.646386 0.642544 0.314940 0.011645
C27   C     C_R   0.535291 0.168944 0.287940 -0.134036
C28   C     C_R   0.539984 0.159948 0.215359 -0.152882
C29   C     C_R   0.660215 0.140383 0.179440 0.033096
C30   C     C_R   0.776022 0.129399 0.216991 -0.138804
C31   C     C_R   0.768931 0.145129 0.289764 -0.152953
C32   C     C_R   0.646807 0.168866 0.325178 0.040822
C33   C     C_R   0.109171 0.798855 0.302350 -0.132786
C34   C     C_R   0.219706 0.649341 0.402422 0.540715
C35   C     C_R   0.098971 0.806821 0.230160 -0.122603
C36   C     C_R   0.117479 0.691215 0.189318 0.034343
C37   C     C_R   0.143989 0.567186 0.222358 -0.139198
C38   C     C_R   0.162788 0.556358 0.295398 -0.129044
C39   C     C_R   0.151459 0.671057 0.334801 0.033230
C40   C     C_R   0.702765 0.101719 0.896259 0.536485
C41   C     C_R   0.724636 0.688341 0.888241 0.539070
C42   C     C_R   0.111580 0.710582 0.903216 0.539299
C43   C     C_R   0.677293 0.101042 0.105675 0.535075
C44   C     C_R   0.694963 0.692177 0.097847 0.557586
C45   C     C_R   0.640126 0.618942 0.390614 0.545273
C46   C     C_R   0.085779 0.713886 0.114676 0.548516
C47   C     C_R   0.618073 0.226520 0.395925 0.540014
C48   C     C_3   0.563003 0.799867 0.785822 -0.232246
C49   C     C_3   0.549202 0.785484 0.705654 -0.227730
C50   C     C_3   0.826875 0.660494 0.768990 -0.235341
Cr1   Cr    Cr6+3 0.392930 0.397900 0.502230 1.028391
Cr2   Cr    Cr6+3 0.398240 0.708600 0.501260 1.016394
Cr3   Cr    Cr6+3 0.708800 0.393470 0.496460 1.013418
Cr4   Cr    Cr6+3 0.937620 0.938540 0.007640 1.005002
Cr5   Cr    Cr6+3 0.625150 0.937450 0.994520 1.004102
Cr6   Cr    Cr6+3 0.937990 0.625080 0.001190 1.020288
H1    H     H_    0.563936 0.899321 0.796356 0.144392
H2    H     H_    0.756920 0.419112 0.703069 0.148484
H3    H     H_    0.923838 0.566935 0.786716 0.133784
H4    H     H_    0.899523 0.540808 0.670003 0.121152
H5    H     H_    0.875903 0.122702 0.673784 0.113340
H6    H     H_    0.908429 0.084753 0.802817 0.125267
H7    H     H_    0.465125 0.231732 0.828292 0.125128
H8    H     H_    0.154428 0.490562 0.686872 0.119317
H9    H     H_    0.152640 0.490960 0.817908 0.106393
H10   H     H_    0.150252 0.885556 0.817692 0.119783
H11   H     H_    0.469926 0.806480 0.814041 0.135650
H12   H     H_    0.164262 0.877840 0.690604 0.118302
H13   H     H_    0.745157 0.421073 0.289878 0.131988
H14   H     H_    0.542174 0.899215 0.193464 0.139295
H15   H     H_    0.532515 0.868692 0.321819 0.124563
H16   H     H_    0.439436 0.185646 0.314109 0.130947
H17   H     H_    0.451070 0.164482 0.187775 0.125596
H18   H     H_    0.872250 0.108621 0.190103 0.120110
H19   H     H_    0.855700 0.144414 0.317707 0.112189
H20   H     H_    0.097400 0.889365 0.331753 0.127467
H21   H     H_    0.443197 0.799585 0.694311 0.175897
H22   H     H_    0.076761 0.904932 0.206659 0.131683
H23   H     H_    0.154016 0.478641 0.191823 0.125537
H24   H     H_    0.194922 0.456406 0.320006 0.129571
H25   H     H_    0.559562 0.868037 0.677763 0.095752
H26   H     H_    0.838598 0.754613 0.777786 0.133270
H27   H     H_    0.811998 0.726998 0.658923 0.112487
H28   H     H_    0.792766 0.444920 0.818533 0.112489
H29   H     H_    0.607453 0.541303 0.835485 0.155482
O1    O     O_R   0.507430 0.255570 0.581420 -0.479091
O2    O     O_R   0.524460 0.695920 0.424060 -0.502012
O3    O     O_R   0.736530 0.504260 0.414810 -0.527284
O4    O     O_R   0.691460 0.277160 0.422180 -0.514778
O5    O     O_3   0.499990 0.499990 0.499980 -0.235660
O6    O     O_R   0.089490 0.825610 0.930610 -0.526595
O7    O     O_R   0.818370 0.054540 0.929880 -0.505914
O8    O     O_R   0.605870 0.077310 0.915530 -0.533168
O9    O     O_R   0.646440 0.806700 0.917570 -0.510053
O10   O     O_R   0.837200 0.593290 0.915250 -0.530890
O11   O     O_R   0.065330 0.635370 0.931590 -0.509459
O12   O     O_R   0.280190 0.527390 0.578910 -0.472617
O13   O     O_R   0.068300 0.828790 0.091860 -0.530270
O14   O     O_R   0.798730 0.057480 0.079370 -0.517097
O15   O     O_R   0.584680 0.080480 0.076790 -0.527021
O16   O     O_R   0.626790 0.809640 0.067050 -0.518063
O17   O     O_R   0.816010 0.596460 0.076500 -0.478220
O18   O     O_R   0.045680 0.638310 0.081070 -0.502638
O19   O     O_3   0.833590 0.833690 0.001120 -0.253606
O20   O     O_R   0.260310 0.739740 0.584580 -0.525797
O21   O     O_R   0.532250 0.695150 0.573830 -0.494222
O22   O     O_R   0.744930 0.503430 0.576380 -0.529736
O23   O     O_R   0.699250 0.276390 0.571950 -0.504168
O24   O     O_R   0.499020 0.256400 0.419850 -0.538512
O25   O     O_R   0.272400 0.528160 0.429140 -0.515845
O26   O     O_R   0.251910 0.740570 0.423020 -0.528068
N1    N     N_2   0.400618 0.248676 0.697688 -0.455562
H30   H     H_    0.324400 0.306379 0.735115 0.233740
C51   C     C_3   0.374360 0.141517 0.669085 -0.301714
H31   H     H_    0.370996 0.076129 0.712833 0.105360
H32   H     H_    0.454816 0.076738 0.628421 0.162529
H33   H     H_    0.270064 0.191887 0.643064 0.133111
N2    N     N_2   0.756780 0.423426 0.149405 -0.499192
H34   H     H_    0.824725 0.330117 0.172730 0.239471
C52   C     C_3   0.657181 0.416849 0.101302 -0.275183
H35   H     H_    0.713690 0.326386 0.064419 0.158921
H36   H     H_    0.604422 0.512183 0.068479 0.147221
H37   H     H_    0.575461 0.406384 0.131696 0.137870
Br1   Br    Br    0.497521 0.517265 0.713317 -0.556377

loop_
_geom_bond_atom_site_label_1
_geom_bond_atom_site_label_2
_ccdc_geom_bond_type
Cr1   O12   S    
Cr6   O10   S    
C6    H2    S    
Cr2   O5    S    
C35   C36   A    
C6    Br1   S    
C40   O8    A    
Cr5   O8    S    
N1    C51   S    
C51   H31   S    
C24   H14   S    
C7    C8    A    
C41   O10   A    
C37   H23   S    
C17   H10   S    
C29   C30   A    
C38   H24   S    
C42   O11   A    
C50   H3    S    
Cr4   O19   S    
C28   C29   A    
C45   O2    A    
C43   O14   A    
C42   O6    A    
Cr1   O5    S    
C38   C39   A    
C5    H27   S    
C18   H12   S    
C15   C16   A    
C15   H9    S    
C3    C48   S    
C13   C23   S    
C2    H29   S    
C18   C19   A    
C49   H25   S    
N2    H34   S    
C7    H5    S    
C26   C45   S    
C2    H28   S    
C22   C44   S    
C10   H7    S    
C8    C9    A    
C23   O1    A    
Cr5   O15   S    
C36   C46   S    
C25   H15   S    
C4    C12   S    
C9    C10   A    
C52   H37   S    
C46   O13   A    
Cr2   O21   S    
Cr1   O24   S    
C21   C22   A    
C29   C43   S    
C34   O26   A    
C47   O4    A    
C2    C6    S    
Cr5   O9    S    
C28   H17   S    
Cr1   O1    S    
N1    H30   S    
C3    C50   S    
C52   H36   S    
Cr2   O2    S    
C1    C19   S    
C34   C39   S    
C48   H1    S    
C45   O3    A    
C43   O15   A    
Cr6   O19   S    
C21   N2    S    
C4    C6    S    
C1    O12   A    
C44   O17   A    
C16   C17   A    
Cr2   O26   S    
C25   C26   A    
C47   O24   A    
Cr5   O19   S    
C9    C40   S    
C40   O7    A    
Cr4   O7    S    
C37   C38   A    
Cr3   O22   S    
C33   H20   S    
C31   H19   S    
C41   O9    A    
C14   H8    S    
C17   C18   A    
C33   C39   A    
C24   C25   A    
C48   C49   S    
Cr2   O20   S    
Cr1   O25   S    
Cr3   O4    S    
C34   O25   A    
C32   C47   S    
C22   C24   A    
C5    C50   S    
C16   C42   S    
Cr3   O5    S    
C52   H35   S    
C50   H26   S    
Cr6   O11   S    
C3    C41   S    
C5    H4    S    
C11   N1    S    
C14   C15   A    
C14   C19   A    
C31   C32   A    
Cr6   O18   S    
C4    C5    S    
C12   O22   A    
C51   H32   S    
C44   O16   A    
C46   O18   A    
Cr5   O16   S    
C35   H22   S    
C4    C49   S    
C2    C3    S    
Cr6   O17   S    
Cr4   O6    S    
C12   O21   A    
C11   C13   A    
Cr3   O23   S    
C30   C31   A    
C20   C26   A    
C30   H18   S    
C23   O23   A    
C33   C35   A    
C49   H21   S    
Cr3   O3    S    
C48   H11   S    
Cr4   O14   S    
N2    C52   S    
C51   H33   S    
C10   C11   A    
C27   C32   A    
C7    C13   A    
C20   C21   A    
C36   C37   A    
C1    O20   A    
C27   C28   A    
C20   H13   S    
Cr4   O13   S    
C27   H16   S    
C8    H6    S    
