data_mof_unit_6398.cif
_audit_creation_date              2012-12-11T17:41:18-0500
_audit_creation_method            fapswitch 2.2
_symmetry_space_group_name_H-M    P1
_symmetry_Int_Tables_number       1
_space_group_crystal_system       triclinic
_cell_length_a                    15.573721
_cell_length_b                    15.080824
_cell_length_c                    15.053654
_cell_angle_alpha                 109.536215
_cell_angle_beta                  121.571561
_cell_angle_gamma                 59.154384
_cell_volume                      2575.64554491

loop_
_atom_site_label
_atom_site_type_symbol
_atom_type_description
_atom_site_fract_x
_atom_site_fract_y
_atom_site_fract_z
_atom_type_partial_charge
C1    C     C_R   0.803421 0.937749 0.773091 -0.112298
C2    C     C_R   0.254684 0.410397 0.153509 -0.107638
C3    C     C_R   0.666122 0.810044 0.936054 -0.161025
C4    C     C_R   0.342918 0.324673 0.136661 -0.172478
C5    C     C_R   0.694291 0.893468 0.994675 -0.068719
C6    C     C_R   0.324838 0.243601 0.060370 -0.058675
C7    C     C_R   0.806663 0.878557 0.040035 0.511658
C8    C     C_R   0.214883 0.250143 0.998741 0.509324
C9    C     C_R   0.886059 0.781499 0.022793 -0.164573
C10   C     C_R   0.127194 0.337546 0.015887 -0.139221
C11   C     C_R   0.856040 0.700063 0.962296 -0.209957
C12   C     C_R   0.244030 0.007407 0.208901 -0.100457
C13   C     C_R   0.146935 0.416921 0.093083 -0.206912
C14   C     C_R   0.604641 0.012245 0.105366 -0.250739
C15   C     C_R   0.425287 0.142867 0.950203 -0.243793
C16   C     C_R   0.201249 0.274190 0.441624 -0.088439
C17   C     C_R   0.747935 0.711596 0.503342 -0.029315
C18   C     C_R   0.510146 0.086085 0.120026 0.055094
C19   C     C_R   0.513313 0.058893 0.931029 0.072004
C20   C     C_R   0.421275 0.156130 0.044096 0.028554
C21   C     C_R   0.605364 0.993532 0.010541 0.025244
C22   C     C_2   0.030669 0.355041 0.472042 -0.266692
C23   C     C_R   0.138644 0.273591 0.480623 0.182194
C24   C     C_2   0.832514 0.604934 0.379742 -0.324674
C25   C     C_2   0.975394 0.427497 0.405796 0.388381
C26   C     C_2   0.925548 0.536420 0.444842 0.371778
C27   C     C_2   0.983327 0.954536 0.844244 -0.211911
C28   C     C_2   0.152266 0.883162 0.101220 -0.189037
C29   C     C_R   0.306605 0.861970 0.739651 -0.112836
C30   C     C_R   0.699509 0.206927 0.359298 -0.123033
C31   C     C_R   0.383157 0.772763 0.709302 -0.140144
C32   C     C_R   0.626923 0.286475 0.400768 -0.125159
C33   C     C_R   0.349296 0.699124 0.630786 0.115250
C34   C     C_R   0.774459 0.703359 0.425693 0.222322
C35   C     C_R   0.668616 0.334462 0.501774 0.109427
C36   C     C_R   0.237313 0.716075 0.584096 -0.163021
C37   C     C_R   0.784066 0.302279 0.560376 -0.177390
C38   C     C_R   0.160978 0.805266 0.614912 -0.094836
C39   C     C_R   0.856486 0.222080 0.518984 -0.108618
C40   C     C_R   0.594870 0.228308 0.556018 -0.106505
C41   C     C_R   0.408426 0.781814 0.510425 -0.126774
C42   C     C_R   0.195556 0.878185 0.692524 -0.094798
C43   C     C_R   0.814209 0.174439 0.418489 -0.087414
C44   C     C_R   0.433531 0.507933 0.587754 -0.243090
C45   C     C_R   0.504303 0.322327 0.538256 0.046553
C46   C     C_R   0.590867 0.516956 0.557895 -0.239608
C47   C     C_R   0.511091 0.418531 0.558467 0.070733
C48   C     C_R   0.509151 0.607279 0.579706 0.057485
C49   C     C_R   0.591478 0.422636 0.544008 0.016856
C50   C     C_R   0.431117 0.604422 0.598570 0.021313
C51   C     C_2   0.042940 0.885618 0.914888 -0.081258
C52   C     C_2   0.137631 0.895833 0.009729 -0.118005
C53   C     C_R   0.409320 0.046762 0.732974 -0.142812
C54   C     C_R   0.592847 0.017537 0.289107 -0.147946
C55   C     C_R   0.409203 0.305658 0.473042 -0.145532
C56   C     C_R   0.501743 0.700397 0.565428 0.061979
C57   C     C_R   0.592648 0.712681 0.589414 -0.167575
C58   C     C_R   0.594506 0.980977 0.804267 -0.103282
C59   C     C_R   0.409159 0.087167 0.209957 -0.133507
C60   C     C_R   0.198825 0.184694 0.531744 -0.169936
C61   C     C_R   0.748123 0.801657 0.410781 -0.160324
C62   C     C_R   0.803971 0.029000 0.684079 -0.157478
C63   C     C_R   0.243081 0.915847 0.299252 -0.127497
C64   C     C_R   0.866942 0.975844 0.772212 0.155871
C65   C     C_R   0.212812 0.931964 0.199235 0.140284
C66   C     C_R   0.504770 0.035855 0.826642 0.048913
C67   C     C_R   0.502362 0.069840 0.204520 0.066602
C68   C     C_R   0.746243 0.714284 0.919073 -0.110390
H1    H     H_    0.831580 0.880913 0.821961 0.094993
H2    H     H_    0.425399 0.322264 0.181414 0.127120
H3    H     H_    0.971625 0.769319 0.056036 0.128763
H4    H     H_    0.043187 0.343431 0.969681 0.139031
H5    H     H_    0.673414 0.957235 0.162240 0.136802
H6    H     H_    0.357072 0.194956 0.890160 0.143694
H7    H     H_    0.793631 0.585664 0.295911 0.117982
H8    H     H_    0.014632 0.371362 0.539299 0.109860
H9    H     H_    0.136329 0.947174 0.716172 0.114821
H10   H     H_    0.870270 0.112700 0.386300 0.120967
H11   H     H_    0.176901 0.327448 0.391002 0.140019
H12   H     H_    0.231146 0.040467 0.147175 0.099942
H13   H     H_    0.758164 0.649169 0.533168 0.105741
H14   H     H_    0.333486 0.918387 0.799840 0.113350
H15   H     H_    0.666925 0.170750 0.281163 0.121334
H16   H     H_    0.468919 0.760871 0.746804 0.106968
H17   H     H_    0.538378 0.310784 0.354986 0.109028
H18   H     H_    0.208737 0.660991 0.523059 0.112602
H19   H     H_    0.817720 0.339161 0.638034 0.122304
H20   H     H_    0.074885 0.817966 0.578417 0.120424
H21   H     H_    0.945330 0.197268 0.564569 0.115715
H22   H     H_    0.374725 0.502043 0.601151 0.133223
H23   H     H_    0.108128 0.847259 0.103302 0.143381
H24   H     H_    0.648575 0.520166 0.540462 0.135243
H25   H     H_    0.681375 0.213479 0.602462 0.112105
H26   H     H_    0.322856 0.800685 0.487171 0.106000
H27   H     H_    0.324139 0.084269 0.721712 0.106506
H28   H     H_    0.678245 0.003675 0.318246 0.097046
H29   H     H_    0.324488 0.363052 0.440168 0.098462
H30   H     H_    0.678089 0.669444 0.641697 0.104358
H31   H     H_    0.680225 0.963719 0.856853 0.112442
H32   H     H_    0.323561 0.133295 0.161808 0.109410
H33   H     H_    0.168856 0.155551 0.561389 0.104302
H34   H     H_    0.016078 0.004675 0.847228 0.143300
H35   H     H_    0.758697 0.821947 0.355855 0.108612
H36   H     H_    0.834840 0.054571 0.652005 0.102340
H37   H     H_    0.230096 0.862818 0.319506 0.102641
H38   H     H_    0.180622 0.932271 0.006675 0.135026
H39   H     H_    0.011158 0.835510 0.913368 0.128374
H40   H     H_    0.777725 0.022039 0.099639 0.319528
H41   H     H_    0.258578 0.110425 0.928590 0.309399
H42   H     H_    0.052069 0.517702 0.583060 0.307017
H43   H     H_    0.951736 0.464206 0.280103 0.302281
H44   H     H_    0.918166 0.625667 0.949264 0.137436
H45   H     H_    0.078494 0.483725 0.105849 0.136098
H46   H     H_    0.723219 0.650926 0.872710 0.122399
H47   H     H_    0.269754 0.472356 0.212750 0.121885
H48   H     H_    0.581619 0.819813 0.903685 0.126063
N1    N     N_R   0.705410 0.966550 0.689210 -0.048489
N2    N     N_R   0.556610 0.796750 0.548620 -0.043748
N3    N     N_R   0.556610 0.951620 0.703500 -0.043131
N4    N     N_R   0.443390 0.048380 0.296500 -0.044091
N5    N     N_R   0.294590 0.131500 0.522480 -0.042746
N6    N     N_R   0.705410 0.868500 0.477520 -0.049453
N7    N     N_R   0.705410 0.023370 0.632390 -0.042471
N8    N     N_R   0.294590 0.976630 0.367610 -0.045025
N9    N     N_R   0.294590 0.033450 0.310790 -0.046048
N10   N     N_R   0.294590 0.188320 0.465660 -0.055335
N11   N     N_R   0.705410 0.811680 0.534340 -0.060480
N12   N     N_R   0.556610 0.157790 0.497330 -0.041224
N13   N     N_R   0.443390 0.842210 0.502670 -0.042141
N14   N     N_R   0.443390 0.997080 0.657540 -0.037885
N15   N     N_R   0.556610 0.002920 0.342460 -0.039717
N16   N     N_R   0.443390 0.203250 0.451380 -0.039891
Ni1   Ni    Ni4+2 0.629830 0.882720 0.617850 0.216824
Ni2   Ni    Ni4+2 0.370170 0.117280 0.382150 0.226176
Ni3   Ni    Ni4+2 0.629830 0.013030 0.487540 0.214099
Ni4   Ni    Ni4+2 0.370170 0.986970 0.512460 0.219100
O1    O     O_3   0.842085 0.955936 0.098994 -0.776604
O2    O     O_3   0.189462 0.173216 0.923450 -0.792268
O3    O     O_3   0.974378 0.569465 0.549957 -0.758527
O4    O     O_3   0.977561 0.400448 0.309308 -0.755762

loop_
_geom_bond_atom_site_label_1
_geom_bond_atom_site_label_2
_ccdc_geom_bond_type
N9    Ni2   S    
C41   N13   A    
C63   C65   A    
C59   N4    A    
C29   C42   A    
C53   H27   S    
N4    N15   A    
C14   C18   A    
C3    C68   A    
C22   H8    S    
C40   H25   S    
N1    Ni1   S    
C33   C36   A    
C4    H2    S    
C63   N8    A    
C47   C49   A    
C43   H10   S    
C15   C19   A    
C54   N15   A    
C46   C49   A    
N3    Ni1   S    
C14   C21   A    
H42   O3    S    
C35   C37   A    
C24   C26   D    
C38   C42   A    
N15   Ni3   S    
C3    H48   S    
C23   C60   A    
H40   O1    S    
C46   H24   S    
C57   H30   S    
C40   N12   A    
C30   H15   S    
N3    N14   A    
C56   C57   A    
C19   C66   S    
C8    O2    S    
N6    N11   A    
C2    C13   A    
C62   C64   A    
C33   C50   S    
C59   C67   A    
C58   C66   A    
C22   C25   D    
C35   C49   S    
C31   C33   A    
C63   H37   S    
C54   H28   S    
C44   C47   A    
C48   C50   A    
C52   H38   S    
C59   H32   S    
C15   C20   A    
N12   N16   A    
C62   N7    A    
C27   C51   D    
H43   O4    S    
C62   H36   S    
C45   C47   S    
C40   C45   A    
C37   C39   A    
C46   C48   A    
N8    N9    A    
N8    Ni4   S    
C51   C52   S    
C32   C35   A    
N11   Ni1   S    
C25   O4    S    
C4    C6    A    
C26   O3    S    
N12   Ni3   S    
C5    C7    A    
C17   N11   A    
C39   C43   A    
C12   N9    A    
C36   H18   S    
C25   C26   S    
C34   C61   A    
C24   C34   S    
C31   H16   S    
C38   H20   S    
H41   O2    S    
C2    C4    A    
C14   H5    S    
C41   C56   A    
N13   Ni4   S    
C2    H47   S    
C41   H26   S    
C55   H29   S    
C1    N1    A    
C53   C66   A    
C9    C11   A    
C45   C55   A    
N2    Ni1   S    
N16   Ni2   S    
C16   C23   A    
C30   C43   A    
C17   C34   A    
C60   H33   S    
C1    C64   A    
C44   H22   S    
C11   C68   A    
C7    O1    S    
C44   C50   A    
C48   C56   S    
N4    Ni2   S    
C61   H35   S    
C11   H44   S    
C37   H19   S    
C8    C10   A    
N14   Ni4   S    
C58   H31   S    
C9    H3    S    
C3    C5    A    
C10   C13   A    
C18   C20   A    
C6    C8    A    
C24   H7    S    
C54   C67   A    
C6    C20   S    
C12   C65   A    
C27   H34   S    
C16   H11   S    
C36   C38   A    
C28   C65   S    
C18   C67   S    
N5    N10   A    
C29   C31   A    
N2    N13   A    
C30   C32   A    
C28   C52   D    
C32   H17   S    
C12   H12   S    
C58   N3    A    
C28   H23   S    
C17   H13   S    
N5    Ni4   S    
N1    N7    A    
C60   N5    A    
C1    H1    S    
N6    Ni3   S    
C27   C64   S    
C7    C9    A    
C29   H14   S    
C15   H6    S    
C5    C21   S    
N10   Ni2   S    
C42   H9    S    
C51   H39   S    
C55   N16   A    
N7    Ni3   S    
C22   C23   S    
C61   N6    A    
C53   N14   A    
C16   N10   A    
C39   H21   S    
C13   H45   S    
C68   H46   S    
C57   N2    A    
C19   C21   A    
C10   H4    S    
