data_mof_unit_63124.cif
_audit_creation_date              2012-12-10T18:54:06-0500
_audit_creation_method            fapswitch 2.2
_symmetry_space_group_name_H-M    P1
_symmetry_Int_Tables_number       1
_space_group_crystal_system       triclinic
_cell_length_a                    19.418097
_cell_length_b                    19.379186
_cell_length_c                    19.398222
_cell_angle_alpha                 84.894333
_cell_angle_beta                  95.360162
_cell_angle_gamma                 90.42758
_cell_volume                      7238.9254735

loop_
_atom_site_label
_atom_site_type_symbol
_atom_type_description
_atom_site_fract_x
_atom_site_fract_y
_atom_site_fract_z
_atom_type_partial_charge
C1    C     C_R   0.311713 0.491142 0.490968 0.499991
C2    C     C_2   0.468767 0.976063 0.521988 -0.146944
C3    C     C_2   0.464049 0.024782 0.468578 -0.143373
C4    C     C_R   0.688218 0.507005 0.508860 0.501308
C5    C     C_R   0.500263 0.237060 0.501440 0.035324
C6    C     C_R   0.763819 0.508563 0.514373 0.002178
C7    C     C_R   0.795686 0.505864 0.452862 -0.148952
C8    C     C_R   0.867053 0.506260 0.453969 -0.179754
C9    C     C_R   0.908152 0.508288 0.517014 0.031178
C10   C     C_R   0.877128 0.512355 0.578910 0.400963
C11   C     C_R   0.804697 0.511922 0.578823 0.020934
C12   C     C_R   0.477949 0.903795 0.508967 0.026491
C13   C     C_R   0.132999 0.461328 0.543328 0.392326
C14   C     C_R   0.204292 0.467587 0.545433 -0.090506
C15   C     C_R   0.196089 0.490491 0.418922 -0.003087
C16   C     C_R   0.508642 0.491930 0.689268 0.523691
C17   C     C_R   0.124075 0.484105 0.417851 -0.159908
C18   C     C_R   0.092532 0.471548 0.479554 0.019157
C19   C     C_2   0.983894 0.506314 0.519570 -0.038231
C20   C     C_2   0.016954 0.471319 0.476085 -0.109114
C21   C     C_R   0.236408 0.483834 0.484271 -0.006494
C22   C     C_R   0.491667 0.517092 0.235233 -0.016822
C23   C     C_R   0.419409 0.861834 0.506436 -0.131560
C24   C     C_R   0.550614 0.501060 0.202929 0.365064
C25   C     C_R   0.550464 0.512601 0.131194 -0.148813
C26   C     C_R   0.491521 0.539433 0.090511 -0.020820
C27   C     C_R   0.432778 0.555961 0.122794 0.368613
C28   C     C_R   0.491962 0.508460 0.311001 0.526153
C29   C     C_R   0.433097 0.545024 0.194722 -0.145511
C30   C     C_R   0.558900 0.531299 0.873698 -0.139663
C31   C     C_R   0.557643 0.531896 0.801840 -0.190247
C32   C     C_R   0.469570 0.442046 0.802656 0.381490
C33   C     C_R   0.471111 0.441763 0.874468 -0.075111
C34   C     C_R   0.425034 0.792457 0.496449 -0.142195
C35   C     C_R   0.513974 0.487810 0.909667 -0.027140
C36   C     C_2   0.491106 0.545948 0.014142 0.042877
C37   C     C_2   0.510646 0.489765 0.984283 -0.119457
C38   C     C_R   0.512043 0.488298 0.765439 0.035957
C39   C     C_R   0.507140 0.311662 0.507516 0.493438
C40   C     C_R   0.493041 0.688350 0.490631 0.501126
C41   C     C_R   0.489477 0.763666 0.489623 0.045324
C42   C     C_R   0.549832 0.805720 0.488782 0.028889
C43   C     C_R   0.543861 0.877238 0.498906 0.050692
C44   C     C_3   0.618457 0.774541 0.473817 -0.280196
C45   C     C_R   0.512093 0.139096 0.434059 -0.119689
C46   C     C_3   0.617929 0.762059 0.397171 -0.434580
C47   C     C_3   0.227066 0.502927 0.349827 -0.250430
C48   C     C_3   0.266987 0.439785 0.333087 -0.407754
C49   C     C_3   0.773399 0.512404 0.647840 -0.241840
C50   C     C_3   0.741626 0.442397 0.669717 -0.410687
C51   C     C_3   0.469584 0.614424 0.973493 -0.216184
C52   C     C_3   0.402836 0.608631 0.925759 -0.367870
C53   C     C_3   0.606753 0.924930 0.500334 -0.275842
C54   C     C_3   0.646963 0.919005 0.572118 -0.432562
C55   C     C_R   0.525848 0.207936 0.445166 -0.118251
C56   C     C_R   0.461703 0.195922 0.547097 -0.118450
C57   C     C_R   0.448623 0.126793 0.536367 -0.105484
C58   C     C_R   0.473812 0.098132 0.479675 0.036617
F1    F     F_    0.917917 0.513921 0.639694 -0.625010
F2    F     F_    0.103721 0.444678 0.603499 -0.598883
F3    F     F_    0.608937 0.475843 0.240512 -0.607781
F4    F     F_    0.425597 0.397999 0.770011 -0.602448
F5    F     F_    0.374427 0.580545 0.084999 -0.643486
H1    H     H_    0.418100 0.096164 0.571723 0.116161
H2    H     H_    0.520293 0.441023 0.015991 0.121139
H3    H     H_    0.594294 0.565157 0.901110 0.128766
H4    H     H_    0.387148 0.557713 0.218699 0.162692
H5    H     H_    0.596450 0.500246 0.107098 0.148641
H6    H     H_    0.440730 0.217416 0.590384 0.151075
H7    H     H_    0.437182 0.407147 0.902467 0.148982
H8    H     H_    0.463867 0.009430 0.415944 0.131700
H9    H     H_    0.369187 0.882800 0.513420 0.128413
H10   H     H_    0.532181 0.117475 0.390342 0.108519
H11   H     H_    0.379150 0.760288 0.497066 0.129600
H12   H     H_    0.765047 0.504166 0.403379 0.166192
H13   H     H_    0.474609 0.989265 0.575448 0.129308
H14   H     H_    0.576859 0.724598 0.382281 0.161036
H15   H     H_    0.609007 0.811622 0.364202 0.155017
H16   H     H_    0.668613 0.740518 0.387455 0.144589
H17   H     H_    0.663708 0.807130 0.487385 0.138424
H18   H     H_    0.630119 0.725546 0.506421 0.179146
H19   H     H_    0.312101 0.428152 0.371686 0.155318
H20   H     H_    0.232518 0.393797 0.332351 0.157095
H21   H     H_    0.286301 0.450100 0.281046 0.143734
H22   H     H_    0.185648 0.514124 0.306761 0.137061
H23   H     H_    0.234574 0.460717 0.595403 0.172197
H24   H     H_    0.260513 0.549532 0.348873 0.184064
H25   H     H_    0.697809 0.429422 0.632248 0.151847
H26   H     H_    0.781366 0.400957 0.673477 0.177762
H27   H     H_    0.721880 0.444169 0.721446 0.140902
H28   H     H_    0.813149 0.524237 0.690096 0.208882
H29   H     H_    0.734648 0.554384 0.645795 0.163885
H30   H     H_    0.411949 0.580870 0.879900 0.151358
H31   H     H_    0.362133 0.581085 0.953942 0.228603
H32   H     H_    0.383706 0.661355 0.906552 0.138646
H33   H     H_    0.461224 0.653708 0.010284 0.181132
H34   H     H_    0.988666 0.445160 0.435049 0.115852
H35   H     H_    0.511643 0.635095 0.942678 0.120896
H36   H     H_    0.614135 0.936440 0.611192 0.158498
H37   H     H_    0.693606 0.952440 0.571168 0.146408
H38   H     H_    0.663570 0.864818 0.588102 0.152960
H39   H     H_    0.640641 0.914558 0.459481 0.136590
H40   H     H_    0.592234 0.979969 0.487198 0.156221
H41   H     H_    0.013417 0.532949 0.559581 0.222267
H42   H     H_    0.889831 0.505702 0.405192 0.124762
H43   H     H_    0.554943 0.238744 0.408610 0.147234
H44   H     H_    0.092031 0.490252 0.368833 0.117391
H45   H     H_    0.591836 0.566974 0.774800 0.146424
O1    O     O_3   0.500000 0.500000 0.500000 -0.455505
O2    O     O_R   0.467830 0.341070 0.546160 -0.539548
O3    O     O_R   0.450560 0.655630 0.450550 -0.540346
O4    O     O_R   0.545840 0.347670 0.467560 -0.547175
O5    O     O_R   0.535760 0.655640 0.535740 -0.550608
O6    O     O_R   0.545870 0.536170 0.656040 -0.568737
O7    O     O_R   0.450550 0.545430 0.340370 -0.570109
O8    O     O_R   0.347960 0.451240 0.536460 -0.533107
O9    O     O_R   0.655630 0.467150 0.467130 -0.523204
O10   O     O_R   0.340780 0.536140 0.450970 -0.550993
O11   O     O_R   0.655640 0.545460 0.545430 -0.561959
O12   O     O_R   0.467850 0.451260 0.656340 -0.459715
O13   O     O_R   0.535740 0.467130 0.347260 -0.464350
Zn1   Zn    Zn3+2 0.558310 0.558310 0.558290 0.910845
Zn2   Zn    Zn3+2 0.446830 0.436990 0.558720 0.983814
Zn3   Zn    Zn3+2 0.558290 0.446420 0.446420 0.973897
Zn4   Zn    Zn3+2 0.436570 0.558290 0.436570 0.920761

loop_
_geom_bond_atom_site_label_1
_geom_bond_atom_site_label_2
_ccdc_geom_bond_type
C1    C21   S    
C24   F3    S    
O8    Zn2   S    
C27   C29   A    
C31   H45   S    
C5    C56   A    
C19   C20   D    
C15   C47   S    
C2    C12   S    
C8    H42   S    
C7    C8    A    
C13   F2    S    
C53   C54   S    
C25   H5    S    
C12   C23   A    
C26   C27   A    
C22   C29   A    
C13   C18   A    
C47   H22   S    
C14   C21   A    
C36   C37   D    
C35   C37   S    
O9    Zn3   S    
C9    C19   S    
O4    Zn3   S    
C12   C43   A    
C17   H44   S    
C30   C31   A    
O1    Zn1   S    
C56   C57   A    
C52   H32   S    
C45   H10   S    
C41   C42   A    
O13   Zn3   S    
C54   H38   S    
C29   H4    S    
C43   C53   S    
C39   O2    A    
O5    Zn1   S    
C47   C48   S    
C44   C46   S    
C8    C9    A    
C37   H2    S    
O3    Zn4   S    
C4    O11   A    
C52   H31   S    
C1    O8    A    
C32   C38   A    
C9    C10   A    
O12   Zn2   S    
C50   H25   S    
C51   H33   S    
C51   H35   S    
C22   C28   S    
C13   C14   A    
C54   H37   S    
C34   C41   A    
C42   C44   S    
C49   H28   S    
C50   H27   S    
C40   O3    A    
C45   C58   A    
C20   H34   S    
C55   H43   S    
C51   C52   S    
C44   H17   S    
C24   C25   A    
C14   H23   S    
C4    C6    S    
C44   H18   S    
C6    C11   A    
C46   H15   S    
C28   O13   A    
O1    Zn2   S    
C7    H12   S    
C25   C26   A    
C48   H21   S    
C47   H24   S    
C3    H8    S    
C11   C49   S    
C28   O7    A    
O2    Zn2   S    
C19   H41   S    
C50   H26   S    
C40   O5    A    
C53   H39   S    
C23   C34   A    
C17   C18   A    
C52   H30   S    
C30   H3    S    
C36   C51   S    
C27   F5    S    
C33   H7    S    
C34   H11   S    
C30   C35   A    
C26   C36   S    
C39   O4    A    
O10   Zn4   S    
C49   C50   S    
C5    C39   S    
C22   C24   A    
C54   H36   S    
C42   C43   A    
C49   H29   S    
C2    H13   S    
C57   H1    S    
O11   Zn1   S    
O1    Zn4   S    
C15   C17   A    
C40   C41   S    
C23   H9    S    
C5    C55   A    
C16   O6    A    
C46   H14   S    
C48   H20   S    
O1    Zn3   S    
C6    C7    A    
O7    Zn4   S    
C31   C38   A    
C32   C33   A    
C16   O12   A    
C2    C3    D    
C32   F4    S    
C57   C58   A    
C46   H16   S    
C53   H40   S    
C33   C35   A    
C48   H19   S    
C10   F1    S    
C18   C20   S    
C1    O10   A    
C4    O9    A    
C10   C11   A    
O6    Zn1   S    
C3    C58   S    
C15   C21   A    
C45   C55   A    
C56   H6    S    
C16   C38   S    
