data_mof_unit_14911.cif
_audit_creation_date              2012-12-11T16:04:54-0500
_audit_creation_method            fapswitch 2.2
_symmetry_space_group_name_H-M    P1
_symmetry_Int_Tables_number       1
_space_group_crystal_system       triclinic
_cell_length_a                    10.651735
_cell_length_b                    10.658522
_cell_length_c                    16.952482
_cell_angle_alpha                 98.703952
_cell_angle_beta                  99.007521
_cell_angle_gamma                 61.689073
_cell_volume                      1666.94828681

loop_
_atom_site_label
_atom_site_type_symbol
_atom_type_description
_atom_site_fract_x
_atom_site_fract_y
_atom_site_fract_z
_atom_type_partial_charge
C1    C     C_R   0.377507 0.717787 0.386784 0.554227
C2    C     C_3   0.774901 0.472636 0.270544 -0.161415
C3    C     C_3   0.818827 0.346158 0.320941 0.003555
C4    C     C_3   0.763085 0.270394 0.250630 0.421498
C5    C     C_3   0.913039 0.192602 0.221512 -0.140049
C6    C     C_3   0.969318 0.269068 0.293017 -0.226601
C7    C     C_3   0.926314 0.394967 0.242356 -0.170179
C8    C     C_3   0.868758 0.319384 0.173054 0.029637
C9    C     C_3   0.477270 0.749875 0.210735 -0.123162
C10   C     C_3   0.415501 0.659368 0.239451 -0.130162
C11   C     C_3   0.360270 0.771280 0.310606 0.008046
C12   C     C_R   0.369972 0.346600 0.358978 0.558461
C13   C     C_3   0.420766 0.860700 0.282995 -0.014744
C14   C     C_3   0.275850 0.943907 0.234506 -0.181242
C15   C     C_3   0.216482 0.852045 0.261937 -0.031725
C16   C     C_3   0.271728 0.741660 0.190576 0.042429
C17   C     C_3   0.332917 0.830740 0.163030 0.055919
C18   C     C_3   0.430563 0.391251 0.807077 -0.186627
C19   C     C_3   0.314333 0.488098 0.744823 -0.125487
C20   C     C_3   0.377754 0.365629 0.678896 -0.031297
C21   C     C_3   0.493936 0.269799 0.739703 -0.155598
C22   C     C_3   0.392355 0.209821 0.751733 -0.113732
C23   C     C_R   0.776750 0.376535 0.401669 0.554288
C24   C     C_3   0.277225 0.306684 0.691083 0.032146
C25   C     C_3   0.214632 0.426527 0.757537 0.386089
C26   C     C_3   0.329300 0.331885 0.818453 0.044175
C27   C     C_1   0.769970 0.367238 0.715342 -0.006969
C28   C     C_1   0.814369 0.329626 0.781998 -0.015259
C29   C     C_1   0.337392 0.815766 0.709283 -0.019680
C30   C     C_1   0.311745 0.842991 0.777876 -0.038137
C31   C     C_R   0.898219 0.308259 0.092334 0.599141
C32   C     C_R   0.318969 0.298600 0.120476 0.593103
C33   C     C_R   0.297696 0.884136 0.085331 0.585879
C34   C     C_R   0.356272 0.773011 0.626919 0.589478
C35   C     C_R   0.879215 0.302075 0.862056 0.553736
C36   C     C_R   0.308331 0.293963 0.892051 0.585108
C37   C     C_R   0.279166 0.886216 0.858555 0.555736
C38   C     C_R   0.408953 0.377457 0.601048 0.521946
C39   C     C_R   0.719484 0.409874 0.635549 0.524332
C40   C     C_1   0.342683 0.335682 0.275301 -0.029504
C41   C     C_1   0.331487 0.324869 0.204139 -0.011324
C42   C     C_3   0.721141 0.394044 0.200416 0.352855
Cr1   Cr    Cr6+3 0.608340 0.611040 0.520430 1.092029
Cr2   Cr    Cr6+3 0.287650 0.601120 0.489350 1.052593
Cr3   Cr    Cr6+3 0.604040 0.287870 0.490280 1.103952
Cr4   Cr    Cr6+3 0.054020 0.052700 0.970850 1.091233
Cr5   Cr    Cr6+3 0.059230 0.375120 0.993390 1.115580
Cr6   Cr    Cr6+3 0.374950 0.061200 0.992340 1.072148
H1    H     H_    0.723105 0.586373 0.294657 0.144765
H2    H     H_    0.221904 0.061000 0.229814 0.099699
H3    H     H_    0.278737 0.602359 0.739490 0.138146
H4    H     H_    0.492652 0.425852 0.856179 0.145585
H5    H     H_    0.609197 0.204369 0.730656 0.150243
H6    H     H_    0.423969 0.095144 0.754988 0.164860
H7    H     H_    0.963607 0.083614 0.190847 0.172021
H8    H     H_    0.069354 0.219119 0.333430 0.135203
H9    H     H_    0.993772 0.446001 0.236292 0.153055
H10   H     H_    0.462501 0.544556 0.248851 0.162616
H11   H     H_    0.580634 0.711977 0.185561 0.160488
O1    O     O_R   0.751220 0.499230 0.435170 -0.520788
O2    O     O_R   0.297880 0.469080 0.560050 -0.505627
O3    O     O_R   0.489720 0.254590 0.564810 -0.473802
O4    O     O_R   0.725220 0.304230 0.585080 -0.503223
O5    O     O_3   0.500010 0.500010 0.500020 -0.347700
O6    O     O_R   0.171830 0.913880 0.057510 -0.478563
O7    O     O_R   0.940690 0.186050 0.054730 -0.508600
O8    O     O_R   0.920470 0.405720 0.075010 -0.515309
O9    O     O_R   0.196690 0.370460 0.084120 -0.510362
O10   O     O_R   0.412990 0.180750 0.091610 -0.464398
O11   O     O_R   0.366620 0.943130 0.065760 -0.514914
O12   O     O_R   0.477220 0.727600 0.436870 -0.435315
O13   O     O_R   0.160510 0.906330 0.879210 -0.478792
O14   O     O_R   0.930190 0.179050 0.889450 -0.496223
O15   O     O_R   0.909140 0.398170 0.896710 -0.467925
O16   O     O_R   0.186190 0.363460 0.918830 -0.433284
O17   O     O_R   0.401670 0.173200 0.913310 -0.521728
O18   O     O_R   0.356120 0.936130 0.900470 -0.502020
O19   O     O_3   0.162740 0.163010 0.985530 -0.301395
O20   O     O_R   0.258650 0.745120 0.411470 -0.504056
O21   O     O_R   0.297070 0.467240 0.395960 -0.517766
O22   O     O_R   0.488830 0.252610 0.387790 -0.437251
O23   O     O_R   0.724400 0.302390 0.420980 -0.455231
O24   O     O_R   0.752100 0.501210 0.612190 -0.468404
O25   O     O_R   0.478040 0.729440 0.600970 -0.492679
O26   O     O_R   0.259530 0.747110 0.588490 -0.497575
C43   C     C_2   0.074554 0.906410 0.294471 0.254143
H12   H     H_    0.047670 0.985127 0.345951 0.146050
O27   O     O_2   0.989529 0.862446 0.264089 -0.494717
C44   C     C_2   0.194052 0.666921 0.140221 0.306029
H13   H     H_    0.137468 0.627286 0.168954 0.128482
O28   O     O_2   0.196002 0.647725 0.067539 -0.456614
C45   C     C_2   0.189662 0.262929 0.625904 0.302788
H14   H     H_    0.110895 0.340624 0.586165 0.141134
O29   O     O_2   0.206178 0.140479 0.617298 -0.497708
F1    F     F_    0.070616 0.506693 0.768186 -0.597089
F2    F     F_    0.605771 0.444082 0.142684 -0.638338
F3    F     F_    0.679436 0.205627 0.256286 -0.594143
C46   C     C_2   0.501417 0.934981 0.330236 0.248136
H15   H     H_    0.549770 0.979840 0.298718 0.155360
O30   O     O_2   0.511567 0.947780 0.403324 -0.443693

loop_
_geom_bond_atom_site_label_1
_geom_bond_atom_site_label_2
_ccdc_geom_bond_type
C31   O7    A    
C35   O15   A    
C23   O23   A    
C18   C21   S    
Cr1   O24   S    
Cr6   O17   S    
C3    C23   S    
C2    C7    S    
C1    C11   S    
Cr6   O10   S    
C3    C6    S    
C18   H4    S    
C7    C8    S    
C22   H6    S    
Cr2   O5    S    
C31   O8    A    
C1    O12   A    
C17   C33   S    
C42   F2    S    
C2    H1    S    
C8    C42   S    
Cr4   O7    S    
C5    C6    S    
C43   O27   D    
Cr3   O23   S    
C15   C16   S    
Cr3   O3    S    
C18   C19   S    
Cr6   O19   S    
C13   C46   S    
C9    C13   S    
C36   O17   A    
C11   C15   S    
C19   C20   S    
C28   C35   S    
C27   C39   S    
C16   C17   S    
C18   C26   S    
C32   C41   S    
C13   C14   S    
C44   O28   D    
C9    C10   S    
Cr4   O13   S    
C32   O9    A    
C38   O2    A    
C16   C44   S    
C21   C22   S    
Cr1   O25   S    
C14   C17   S    
C34   O25   A    
C24   C45   S    
Cr5   O8    S    
Cr1   O5    S    
C23   O1    A    
C33   O6    A    
C20   C24   S    
Cr2   O21   S    
C24   C25   S    
Cr4   O6    S    
C6    H8    S    
Cr4   O19   S    
C43   H12   S    
C25   C26   S    
C37   O18   A    
C29   C34   S    
Cr3   O4    S    
C30   C37   S    
C9    H11   S    
C34   O26   A    
Cr6   O18   S    
C12   C40   S    
C29   C30   T    
C36   O16   A    
C20   C38   S    
C45   O29   D    
C6    C7    S    
Cr1   O1    S    
C15   C43   S    
C33   O11   A    
C9    C17   S    
C40   C41   T    
C25   F1    S    
C46   O30   D    
C1    O20   A    
C22   C24   S    
Cr2   O26   S    
Cr5   O9    S    
C26   C36   S    
C35   O14   A    
Cr1   O12   S    
C10   H10   S    
C8    C31   S    
C5    H7    S    
Cr2   O20   S    
Cr3   O22   S    
Cr5   O15   S    
Cr6   O11   S    
C4    C5    S    
C5    C8    S    
C32   O10   A    
Cr2   O2    S    
C39   O4    A    
Cr3   O5    S    
C2    C3    S    
C39   O24   A    
C10   C16   S    
C21   H5    S    
C11   C13   S    
C14   H2    S    
C4    C42   S    
C2    C42   S    
C12   O21   A    
C45   H14   S    
C12   O22   A    
C19   C25   S    
C10   C11   S    
Cr5   O16   S    
C19   H3    S    
C20   C21   S    
C46   H15   S    
C22   C26   S    
C37   O13   A    
C27   C28   T    
C14   C15   S    
Cr5   O19   S    
C44   H13   S    
C4    F3    S    
C7    H9    S    
Cr4   O14   S    
C3    C4    S    
C38   O3    A    
