data_mof_unit_56100.cif
_audit_creation_date              2012-12-11T14:44:01-0500
_audit_creation_method            fapswitch 2.2
_symmetry_space_group_name_H-M    P1
_symmetry_Int_Tables_number       1
_space_group_crystal_system       triclinic
_cell_length_a                    18.906258
_cell_length_b                    10.903556
_cell_length_c                    18.879997
_cell_angle_alpha                 90.081228
_cell_angle_beta                  89.91147
_cell_angle_gamma                 89.69684
_cell_volume                      3891.9622594

loop_
_atom_site_label
_atom_site_type_symbol
_atom_type_description
_atom_site_fract_x
_atom_site_fract_y
_atom_site_fract_z
_atom_type_partial_charge
C1    C     C_R   0.730145 0.377008 0.145733 0.559353
C2    C     C_R   0.269777 0.377025 0.854186 0.549204
C3    C     C_R   0.230145 0.877008 0.145733 0.559353
C4    C     C_R   0.769777 0.877025 0.854186 0.549205
C5    C     C_R   0.509443 0.391098 0.927138 -0.078681
C6    C     C_R   0.488577 0.390614 0.073240 -0.078913
C7    C     C_R   0.009443 0.891098 0.927138 -0.078681
C8    C     C_R   0.988577 0.890614 0.073240 -0.078913
C9    C     C_R   0.004569 0.001584 0.964088 -0.138732
C10   C     C_R   0.992023 0.001322 0.036618 -0.137976
C11   C     C_R   0.504569 0.501583 0.964088 -0.138732
C12   C     C_R   0.492023 0.501322 0.036618 -0.137976
C13   C     C_R   0.697989 0.865451 0.038043 -0.136980
C14   C     C_R   0.303150 0.866532 0.962072 -0.136826
C15   C     C_R   0.197989 0.365451 0.038043 -0.136980
C16   C     C_R   0.803150 0.366532 0.962072 -0.136826
C17   C     C_R   0.700272 0.852375 0.964734 -0.135209
C18   C     C_R   0.300674 0.853909 0.035417 -0.136259
C19   C     C_R   0.200272 0.352375 0.964734 -0.135209
C20   C     C_R   0.800674 0.353909 0.035417 -0.136259
C21   C     C_R   0.751546 0.915727 0.925405 0.030854
C22   C     C_R   0.247770 0.915033 0.074312 0.030146
C23   C     C_R   0.251546 0.415727 0.925405 0.030855
C24   C     C_R   0.747770 0.415033 0.074312 0.030146
C25   C     C_R   0.797591 0.996639 0.959266 -0.125163
C26   C     C_R   0.199926 0.992863 0.039915 -0.125728
C27   C     C_R   0.297591 0.496639 0.959266 -0.125163
C28   C     C_R   0.699926 0.492863 0.039915 -0.125728
C29   C     C_R   0.797239 0.005632 0.031647 -0.121499
C30   C     C_R   0.200457 0.001083 0.967540 -0.123124
C31   C     C_R   0.297239 0.505632 0.031647 -0.121499
C32   C     C_R   0.700457 0.501083 0.967540 -0.123124
C33   C     C_R   0.747714 0.940227 0.071874 0.034029
C34   C     C_R   0.251977 0.938536 0.927766 0.034098
C35   C     C_R   0.247714 0.440227 0.071874 0.034029
C36   C     C_R   0.751977 0.438536 0.927766 0.034098
C37   C     C_R   0.539859 0.063612 0.473162 -0.125508
C38   C     C_R   0.529950 0.067403 0.545365 -0.144145
C39   C     C_R   0.039865 0.563619 0.473163 -0.125510
C40   C     C_R   0.029955 0.567410 0.545366 -0.144147
C41   C     C_R   0.497355 0.169398 0.576004 0.029169
C42   C     C_R   0.518449 0.162546 0.430417 0.033712
C43   C     C_R   0.997353 0.669399 0.576003 0.029168
C44   C     C_R   0.018449 0.662547 0.430417 0.033710
C45   C     C_R   0.531227 0.155633 0.146652 0.544654
C46   C     C_R   0.468909 0.155505 0.853251 0.540508
C47   C     C_R   0.031227 0.655633 0.146652 0.544654
C48   C     C_R   0.968909 0.655505 0.853251 0.540508
C49   C     C_R   0.479649 0.272011 0.534226 -0.135133
C50   C     C_R   0.490348 0.268565 0.461351 -0.152089
C51   C     C_R   0.979640 0.772005 0.534224 -0.135134
C52   C     C_R   0.990340 0.768560 0.461349 -0.152091
C53   C     C_R   0.795433 0.006308 0.469607 -0.144966
C54   C     C_R   0.177500 0.923252 0.547308 -0.146638
C55   C     C_R   0.295432 0.506310 0.469608 -0.144963
C56   C     C_R   0.677501 0.423253 0.547308 -0.146638
C57   C     C_R   0.795499 0.997501 0.541926 -0.144031
C58   C     C_R   0.166271 0.895561 0.476705 -0.143343
C59   C     C_R   0.295498 0.497503 0.541926 -0.144028
C60   C     C_R   0.666271 0.395563 0.476705 -0.143343
C61   C     C_R   0.753145 0.910951 0.575111 0.016284
C62   C     C_R   0.221758 0.850281 0.435283 0.015563
C63   C     C_R   0.253144 0.410951 0.575111 0.016284
C64   C     C_R   0.721758 0.350282 0.435283 0.015564
C65   C     C_R   0.708159 0.835803 0.534933 -0.116420
C66   C     C_R   0.286935 0.822732 0.466562 -0.110010
C67   C     C_R   0.208159 0.335802 0.534933 -0.116421
C68   C     C_R   0.786935 0.322731 0.466562 -0.110009
C69   C     C_R   0.706437 0.845561 0.461183 -0.025194
C70   C     C_R   0.299189 0.848783 0.537801 -0.016906
C71   C     C_R   0.206437 0.345561 0.461183 -0.025197
C72   C     C_R   0.799189 0.348783 0.537801 -0.016906
C73   C     C_R   0.749855 0.934157 0.428383 0.045638
C74   C     C_R   0.244719 0.907050 0.577807 0.039169
C75   C     C_R   0.249855 0.434158 0.428384 0.045637
C76   C     C_R   0.744719 0.407050 0.577807 0.039170
C77   C     C_R   0.740734 0.972644 0.146083 0.549532
C78   C     C_R   0.259206 0.972006 0.853771 0.547332
C79   C     C_R   0.240734 0.472644 0.146083 0.549532
C80   C     C_R   0.759206 0.472006 0.853771 0.547332
C81   C     C_R   0.710883 0.331084 0.359662 0.563839
C82   C     C_R   0.270279 0.377589 0.647247 0.545501
C83   C     C_R   0.210883 0.831083 0.359662 0.563839
C84   C     C_R   0.770279 0.877589 0.647247 0.545500
C85   C     C_R   0.535531 0.156652 0.355591 0.541381
C86   C     C_R   0.467992 0.157640 0.646586 0.545633
C87   C     C_R   0.035531 0.656652 0.355591 0.541379
C88   C     C_R   0.967992 0.657640 0.646586 0.545632
C89   C     C_R   0.741443 0.971592 0.354873 0.538593
C90   C     C_R   0.258272 0.968772 0.645726 0.548440
C91   C     C_R   0.241443 0.471593 0.354873 0.538592
C92   C     C_R   0.758272 0.468772 0.645725 0.548440
C93   C     C_R   0.497209 0.164173 0.925503 -0.000157
C94   C     C_R   0.503478 0.164026 0.074177 -0.000153
C95   C     C_R   0.997209 0.664173 0.925503 -0.000157
C96   C     C_R   0.003478 0.664026 0.074177 -0.000153
C97   C     C_R   0.501577 0.277619 0.962473 0.032266
C98   C     C_R   0.497803 0.277461 0.037545 0.031133
C99   C     C_R   0.001577 0.777619 0.962473 0.032266
C100  C     C_R   0.997803 0.777461 0.037545 0.031133
C101  C     C_R   0.502300 0.053946 0.035931 -0.148157
C102  C     C_R   0.500147 0.054036 0.963368 -0.148935
C103  C     C_R   0.002300 0.553946 0.035931 -0.148157
C104  C     C_R   0.000147 0.554036 0.963368 -0.148935
Cr1   Cr    Cr6+3 0.772000 0.169640 0.250110 1.005270
Cr2   Cr    Cr6+3 0.228000 0.169640 0.749890 1.006166
Cr3   Cr    Cr6+3 0.272000 0.669640 0.250110 1.005270
Cr4   Cr    Cr6+3 0.728000 0.669640 0.749890 1.006165
Cr5   Cr    Cr6+3 0.614960 0.323350 0.249260 1.003674
Cr6   Cr    Cr6+3 0.385040 0.323350 0.750740 1.006357
Cr7   Cr    Cr6+3 0.114960 0.823350 0.249260 1.003674
Cr8   Cr    Cr6+3 0.885040 0.823350 0.750740 1.006357
Cr9   Cr    Cr6+3 0.616670 0.010620 0.250840 1.003120
Cr10  Cr    Cr6+3 0.383330 0.010620 0.749160 1.004095
Cr11  Cr    Cr6+3 0.116670 0.510620 0.250840 1.003120
Cr12  Cr    Cr6+3 0.883330 0.510620 0.749160 1.004096
H1    H     H_    0.505882 0.965558 0.061889 0.138120
H2    H     H_    0.497833 0.965720 0.937092 0.137059
H3    H     H_    0.005882 0.465558 0.061889 0.138120
H4    H     H_    0.997833 0.465720 0.937092 0.137059
H5    H     H_    0.830642 0.072821 0.446285 0.130624
H6    H     H_    0.134235 0.964128 0.576890 0.130604
H7    H     H_    0.330641 0.572824 0.446286 0.130624
H8    H     H_    0.634235 0.464131 0.576889 0.130603
H9    H     H_    0.831863 0.054116 0.571617 0.131176
H10   H     H_    0.114903 0.914221 0.453735 0.131149
H11   H     H_    0.331862 0.554119 0.571618 0.131175
H12   H     H_    0.614904 0.414225 0.453734 0.131147
H13   H     H_    0.521284 0.395894 0.871209 0.129700
H14   H     H_    0.476804 0.394922 0.129213 0.131442
H15   H     H_    0.021284 0.895894 0.871209 0.129700
H16   H     H_    0.976804 0.894922 0.129213 0.131442
H17   H     H_    0.009732 0.087737 0.936175 0.097457
H18   H     H_    0.985795 0.087255 0.064789 0.098797
H19   H     H_    0.509732 0.587738 0.936175 0.097457
H20   H     H_    0.485794 0.587255 0.064789 0.098797
H21   H     H_    0.657899 0.817420 0.068052 0.116458
H22   H     H_    0.344687 0.820683 0.932434 0.116025
H23   H     H_    0.157899 0.317420 0.068052 0.116458
H24   H     H_    0.844687 0.320683 0.932434 0.116025
H25   H     H_    0.664164 0.789399 0.939363 0.118079
H26   H     H_    0.338180 0.793419 0.061203 0.116329
H27   H     H_    0.164164 0.289399 0.939363 0.118079
H28   H     H_    0.838180 0.293418 0.061203 0.116329
H29   H     H_    0.837252 0.047683 0.930305 0.133036
H30   H     H_    0.158868 0.042155 0.068439 0.134731
H31   H     H_    0.337252 0.547683 0.930305 0.133036
H32   H     H_    0.658868 0.542155 0.068439 0.134731
H33   H     H_    0.835089 0.067047 0.055692 0.131641
H34   H     H_    0.161262 0.060150 0.943175 0.131177
H35   H     H_    0.335089 0.567047 0.055692 0.131641
H36   H     H_    0.661262 0.560150 0.943175 0.131177
H37   H     H_    0.564733 0.982717 0.450925 0.138883
H38   H     H_    0.544446 0.987964 0.576710 0.123881
H39   H     H_    0.064745 0.482730 0.450927 0.138886
H40   H     H_    0.044455 0.487976 0.576712 0.123881
H41   H     H_    0.453868 0.351748 0.557085 0.136444
H42   H     H_    0.475697 0.346957 0.429275 0.117426
H43   H     H_    0.953853 0.851737 0.557082 0.136450
H44   H     H_    0.975683 0.846946 0.429271 0.117428
O1    O     O_R   0.787540 0.042690 0.170470 -0.530430
O2    O     O_R   0.212460 0.042690 0.829530 -0.532580
O3    O     O_R   0.287540 0.542690 0.170470 -0.530429
O4    O     O_R   0.712460 0.542690 0.829530 -0.532580
O5    O     O_R   0.556540 0.252920 0.323970 -0.524288
O6    O     O_R   0.443460 0.252920 0.676030 -0.507741
O7    O     O_R   0.056540 0.752920 0.323970 -0.524288
O8    O     O_R   0.943460 0.752920 0.676030 -0.507742
O9    O     O_R   0.545870 0.051100 0.330840 -0.525694
O10   O     O_R   0.454130 0.051100 0.669160 -0.534236
O11   O     O_R   0.045870 0.551100 0.330840 -0.525693
O12   O     O_R   0.954130 0.551100 0.669160 -0.534234
O13   O     O_R   0.681340 0.959300 0.325510 -0.510045
O14   O     O_R   0.318660 0.959300 0.674490 -0.507079
O15   O     O_R   0.181340 0.459300 0.325510 -0.510047
O16   O     O_R   0.818660 0.459300 0.674490 -0.507079
O17   O     O_3   0.667880 0.167870 0.250070 -0.261297
O18   O     O_3   0.332120 0.167870 0.749930 -0.235773
O19   O     O_3   0.167880 0.667870 0.250070 -0.261298
O20   O     O_3   0.832120 0.667870 0.749930 -0.235773
O21   O     O_R   0.765660 0.292160 0.175050 -0.501258
O22   O     O_R   0.234340 0.292160 0.824950 -0.507393
O23   O     O_R   0.265660 0.792160 0.175050 -0.501258
O24   O     O_R   0.734340 0.792160 0.824950 -0.507393
O25   O     O_R   0.670190 0.408980 0.168550 -0.519556
O26   O     O_R   0.329810 0.408980 0.831450 -0.522554
O27   O     O_R   0.170190 0.908980 0.168550 -0.519556
O28   O     O_R   0.829810 0.908980 0.831450 -0.522554
O29   O     O_R   0.556580 0.251450 0.175160 -0.505845
O30   O     O_R   0.443420 0.251450 0.824840 -0.506820
O31   O     O_R   0.056580 0.751450 0.175160 -0.505845
O32   O     O_R   0.943420 0.751450 0.824840 -0.506820
O33   O     O_R   0.545920 0.049510 0.170320 -0.518956
O34   O     O_R   0.454080 0.049510 0.829680 -0.523013
O35   O     O_R   0.045920 0.549510 0.170320 -0.518956
O36   O     O_R   0.954080 0.549510 0.829680 -0.523013
O37   O     O_R   0.681390 0.957840 0.176710 -0.499906
O38   O     O_R   0.318610 0.957840 0.823290 -0.502843
O39   O     O_R   0.181390 0.457840 0.176710 -0.499906
O40   O     O_R   0.818610 0.457840 0.823290 -0.502843
O41   O     O_R   0.787500 0.044280 0.330990 -0.537606
O42   O     O_R   0.212500 0.044280 0.669010 -0.529148
O43   O     O_R   0.287500 0.544280 0.330990 -0.537605
O44   O     O_R   0.712500 0.544280 0.669010 -0.529149
O45   O     O_R   0.765610 0.293630 0.323860 -0.506972
O46   O     O_R   0.234390 0.293630 0.676140 -0.508392
O47   O     O_R   0.265610 0.793630 0.323860 -0.506972
O48   O     O_R   0.734390 0.793630 0.676140 -0.508391
O49   O     O_R   0.670140 0.410570 0.329080 -0.521612
O50   O     O_R   0.329860 0.410570 0.670920 -0.528685
O51   O     O_R   0.170140 0.910570 0.329080 -0.521612
O52   O     O_R   0.829860 0.910570 0.670920 -0.528686
H45   H     H_    0.677253 0.765135 0.560587 0.135658
H46   H     H_    0.329643 0.785690 0.434667 0.129910
H47   H     H_    0.177254 0.265133 0.560587 0.135659
H48   H     H_    0.829642 0.285689 0.434667 0.129911
C105  C     C_3   0.661927 0.756791 0.419321 -0.382897
H49   H     H_    0.616076 0.804537 0.395136 0.149728
H50   H     H_    0.694512 0.713175 0.377174 0.155729
H51   H     H_    0.640818 0.682445 0.453391 0.117552
C106  C     C_3   0.371400 0.818632 0.567149 -0.380051
H52   H     H_    0.366272 0.766415 0.617313 0.140589
H53   H     H_    0.402877 0.760787 0.530102 0.091856
H54   H     H_    0.401452 0.904230 0.575823 0.183569
C107  C     C_3   0.161927 0.256792 0.419321 -0.382895
H55   H     H_    0.116076 0.304538 0.395137 0.149729
H56   H     H_    0.194512 0.213175 0.377173 0.155729
H57   H     H_    0.140817 0.182444 0.453391 0.117553
C108  C     C_3   0.871400 0.318632 0.567149 -0.380050
H58   H     H_    0.866273 0.266416 0.617313 0.140589
H59   H     H_    0.902877 0.260787 0.530101 0.091857
H60   H     H_    0.901453 0.404230 0.575822 0.183570

loop_
_geom_bond_atom_site_label_1
_geom_bond_atom_site_label_2
_ccdc_geom_bond_type
C52   H44   S    
C89   O41   A    
C62   C83   S    
C15   C19   A    
C58   C62   A    
C101  C102  A    
C56   C76   A    
C48   C95   S    
C55   C59   A    
C14   C18   A    
C81   O49   A    
C86   O6    A    
C89   O13   A    
C6    H14   S    
C33   C77   S    
C70   C106  S    
C97   C98   A    
C71   C75   A    
C16   H24   S    
C50   H42   S    
C105  H51   S    
C65   H45   S    
C41   C86   S    
Cr4   O4    S    
Cr4   O20   S    
C37   C38   A    
C7    C99   A    
C88   O12   A    
C43   C88   S    
Cr8   O52   S    
C47   O35   A    
C5    C11   A    
C106  H54   S    
C11   H19   S    
C64   C68   A    
C6    C12   A    
Cr12  O40   S    
C95   C99   A    
C30   H34   S    
Cr8   O32   S    
Cr6   O18   S    
C59   H11   S    
Cr8   O8    S    
C29   C33   A    
C8    H16   S    
C107  H57   S    
Cr12  O12   S    
C17   H25   S    
C2    O22   A    
C81   O45   A    
C15   C35   A    
C37   C42   A    
C26   H30   S    
C20   H28   S    
C53   C73   A    
Cr2   O22   S    
Cr11  O15   S    
C103  C104  A    
Cr1   O21   S    
C54   C74   A    
Cr9   O37   S    
C67   H47   S    
C40   C43   A    
C80   O4    A    
C20   C24   A    
C94   C101  A    
Cr5   O29   S    
Cr10  O18   S    
C70   C74   A    
C83   O47   A    
Cr4   O48   S    
C69   C73   A    
C23   C27   A    
C44   C87   S    
C9    C10   A    
C34   C78   S    
C12   H20   S    
Cr3   O47   S    
C92   O44   A    
C72   C76   A    
Cr8   O20   S    
C55   C75   A    
C44   C52   A    
C5    H13   S    
Cr9   O17   S    
C54   H6    S    
C106  H53   S    
C18   C22   A    
C48   O36   A    
Cr7   O19   S    
Cr7   O27   S    
C71   C107  S    
C69   C105  S    
C49   H41   S    
Cr3   O43   S    
Cr6   O50   S    
C46   O30   A    
Cr5   O49   S    
C45   C94   S    
C41   C49   A    
C108  H58   S    
C46   O34   A    
C15   H23   S    
C83   O51   A    
C25   C29   A    
C55   H7    S    
C28   H32   S    
C79   O39   A    
C72   C108  S    
C30   C34   A    
C63   C82   S    
C27   C31   A    
C51   C52   A    
C6    C98   A    
C14   H22   S    
Cr7   O31   S    
C28   C32   A    
C62   C66   A    
C38   C41   A    
Cr11  O11   S    
C21   C25   A    
C36   C80   S    
C47   C96   S    
C79   O3    A    
C39   C40   A    
C1    O21   A    
C82   O50   A    
Cr9   O9    S    
C88   O8    A    
C105  H49   S    
Cr11  O39   S    
Cr6   O30   S    
C85   O9    A    
C56   C60   A    
C39   H39   S    
C68   C72   A    
C45   O33   A    
C13   H21   S    
C66   H46   S    
C19   C23   A    
C2    O26   A    
C63   C67   A    
C13   C33   A    
C106  H52   S    
C37   H37   S    
Cr2   O42   S    
C31   H35   S    
C84   O48   A    
C93   C97   A    
Cr1   O41   S    
C99   C100  A    
C32   H36   S    
C18   H26   S    
C16   C20   A    
C87   O11   A    
C107  H55   S    
C91   O15   A    
C42   C85   S    
C4    O24   A    
C40   H40   S    
Cr1   O45   S    
Cr5   O5    S    
C76   C92   S    
Cr12  O16   S    
C45   O29   A    
Cr2   O46   S    
C42   C50   A    
C58   H10   S    
C1    O25   A    
Cr12  O20   S    
Cr10  O38   S    
C108  H59   S    
Cr1   O1    S    
C35   C79   S    
Cr7   O7    S    
C38   H38   S    
Cr11  O19   S    
C32   C36   A    
C82   O46   A    
C95   C104  A    
C19   H27   S    
C78   O2    A    
Cr9   O13   S    
Cr8   O28   S    
C54   C58   A    
Cr10  O10   S    
Cr11  O35   S    
Cr6   O26   S    
C53   C57   A    
Cr10  O34   S    
C80   O40   A    
Cr3   O19   S    
C86   O10   A    
Cr9   O33   S    
C92   O16   A    
C103  H3    S    
C24   C28   A    
C60   H12   S    
Cr1   O17   S    
C61   C84   S    
C3    O27   A    
C93   C102  A    
C14   C34   A    
C11   C12   A    
C84   O52   A    
C57   C61   A    
C39   C44   A    
Cr4   O24   S    
C75   C91   S    
C108  H60   S    
C87   O7    A    
C90   O14   A    
C59   C63   A    
C13   C17   A    
C60   C64   A    
Cr5   O25   S    
C101  H1    S    
C4    O28   A    
C8    C100  A    
C85   O5    A    
C7    H15   S    
Cr4   O44   S    
C27   H31   S    
C53   H5    S    
C16   C36   A    
C57   H9    S    
C4    C21   S    
Cr6   O6    S    
C43   C51   A    
C66   C70   A    
C46   C93   S    
C77   O37   A    
C65   C69   A    
C74   C90   S    
C96   C100  A    
C31   C35   A    
C51   H43   S    
C107  H56   S    
C77   O1    A    
C5    C97   A    
C67   C71   A    
Cr2   O2    S    
C61   C65   A    
C47   O31   A    
C105  H50   S    
C68   H48   S    
C102  H2    S    
Cr7   O51   S    
C64   C81   S    
C48   O32   A    
C29   H33   S    
C73   C89   S    
Cr12  O36   S    
C7    C9    A    
Cr10  O14   S    
C10   H18   S    
C1    C24   S    
C8    C10   A    
C49   C50   A    
C22   C26   A    
C96   C103  A    
Cr3   O23   S    
C2    C23   S    
Cr5   O17   S    
C94   C98   A    
C56   H8    S    
C3    C22   S    
C25   H29   S    
Cr3   O3    S    
C78   O38   A    
C90   O42   A    
C3    O23   A    
Cr2   O18   S    
C91   O43   A    
C9    H17   S    
C104  H4    S    
C26   C30   A    
C17   C21   A    
