data_mof_unit_12940.cif
_audit_creation_date              2012-10-26T20:50:48-0400
_audit_creation_method            fapswitch 2.2
_symmetry_space_group_name_H-M    P1
_symmetry_Int_Tables_number       1
_space_group_crystal_system       triclinic
_cell_length_a                    11.084285
_cell_length_b                    10.85625
_cell_length_c                    9.60973
_cell_angle_alpha                 89.329274
_cell_angle_beta                  102.462577
_cell_angle_gamma                 92.382175
_cell_volume                      1128.14734011

loop_
_atom_site_label
_atom_site_type_symbol
_atom_type_description
_atom_site_fract_x
_atom_site_fract_y
_atom_site_fract_z
_atom_type_partial_charge
C1    C     C_R   0.498359 0.262571 0.500110 0.565165
C2    C     C_R   0.400031 0.458056 0.052207 0.022512
C3    C     C_R   0.400346 0.452906 0.904526 0.171587
C4    C     C_R   0.263214 0.501190 0.441894 0.571001
C5    C     C_R   0.606448 0.523752 0.952241 0.130667
C6    C     C_3   0.694875 0.631360 0.961454 -0.252070
C7    C     C_3   0.695551 0.634857 0.120446 -0.069904
C8    C     C_R   0.498079 0.737303 0.499102 0.555978
C9    C     C_R   0.737160 0.502297 0.558318 0.534848
C10   C     C_2   0.128586 0.502901 0.409005 -0.119238
C11   C     C_2   0.069491 0.519456 0.513976 -0.127137
C12   C     C_R   0.500310 0.129332 0.499897 0.033388
C13   C     C_2   0.872539 0.514429 0.593577 0.048517
C14   C     C_2   0.934647 0.511699 0.487884 -0.153096
C15   C     C_R   0.537537 0.063751 0.626515 0.001482
C16   C     C_2   0.293792 0.382871 0.817708 0.560700
C17   C     C_2   0.647205 0.752079 0.164404 0.599776
C18   C     C_2   0.935476 0.532854 0.745171 0.563084
C19   C     C_2   0.365156 0.867380 0.749188 0.610369
C20   C     C_R   0.470504 0.064581 0.370356 -0.144214
C21   C     C_R   0.468138 0.936215 0.370155 -0.134916
C22   C     C_R   0.499375 0.870748 0.498785 0.037018
C23   C     C_R   0.536689 0.936552 0.626160 -0.005228
C24   C     C_3   0.492255 0.928165 0.763073 -0.066979
C25   C     C_3   0.492857 0.068113 0.762295 -0.242816
C26   C     C_R   0.606405 0.524922 0.098300 0.129929
Cu1   Cu    Cu3+1 0.499990 0.499980 0.640670 1.053145
Cu2   Cu    Cu3+1 0.500010 0.500020 0.359330 1.004706
H1    H     H_    0.884910 0.496595 0.378746 0.136438
H2    H     H_    0.437423 0.888544 0.269972 0.196522
H3    H     H_    0.562964 0.892265 0.852245 0.136536
H4    H     H_    0.399695 0.106064 0.747746 0.217561
H5    H     H_    0.112575 0.334628 0.786718 0.357277
H6    H     H_    0.684734 0.904346 0.287027 0.333012
H7    H     H_    0.051407 0.638196 0.891355 0.360430
H8    H     H_    0.187567 0.853725 0.641389 0.358946
H9    H     H_    0.563614 0.110576 0.850305 0.133639
H10   H     H_    0.320532 0.422916 0.090848 0.160478
H11   H     H_    0.785095 0.605953 0.940707 0.164925
H12   H     H_    0.653600 0.710607 0.897499 0.155524
H13   H     H_    0.786978 0.612612 0.187017 0.105756
H14   H     H_    0.122204 0.535601 0.621212 0.227805
H15   H     H_    0.077889 0.488868 0.299828 0.121241
H16   H     H_    0.443629 0.112533 0.269621 0.146151
N1    N     N_R   0.500780 0.500930 0.148120 -0.246779
N2    N     N_R   0.500790 0.500890 0.852210 -0.239507
O1    O     O_R   0.500000 0.319640 0.618810 -0.461066
O2    O     O_R   0.176580 0.392351 0.847311 -0.705255
O3    O     O_2   0.545957 0.787032 0.103259 -0.512881
O4    O     O_R   0.721742 0.822984 0.272645 -0.690997
O5    O     O_2   0.915330 0.458977 0.835278 -0.511891
O6    O     O_R   0.014739 0.635983 0.785156 -0.686503
O7    O     O_2   0.348466 0.786517 0.833363 -0.458692
O8    O     O_R   0.267326 0.902455 0.639939 -0.687009
O9    O     O_R   0.500010 0.319680 0.381230 -0.524032
O10   O     O_R   0.320680 0.500000 0.575130 -0.465786
O11   O     O_R   0.320690 0.500040 0.337550 -0.510215
O12   O     O_R   0.499990 0.680320 0.618770 -0.503193
O13   O     O_R   0.500000 0.680360 0.381190 -0.471129
O14   O     O_R   0.679310 0.499960 0.662450 -0.489241
O15   O     O_R   0.679320 0.500000 0.424870 -0.518395
O16   O     O_2   0.308735 0.308312 0.729884 -0.507945

loop_
_geom_bond_atom_site_label_1
_geom_bond_atom_site_label_2
_ccdc_geom_bond_type
C4    O11   A    
C17   O4    S    
C19   O7    D    
C8    C22   S    
C23   C24   S    
C6    C7    S    
C21   H2    S    
C2    H10   S    
C3    N2    A    
Cu1   O1    S    
C12   C15   A    
C9    O14   A    
C8    O12   A    
Cu2   O15   S    
C12   C20   A    
C25   H4    S    
C15   C23   A    
C2    C3    A    
C1    O9    A    
C24   H3    S    
C18   O6    S    
C8    O13   A    
C13   C14   D    
C20   C21   A    
C1    C12   S    
C16   O2    S    
C7    C26   S    
C16   O16   D    
C13   C18   S    
C9    O15   A    
C19   O8    S    
C21   C22   A    
C20   H16   S    
Cu2   O9    S    
C18   O5    D    
C19   C24   S    
Cu1   O14   S    
C7    H13   S    
C2    N1    A    
C5    C6    S    
C11   C14   S    
C6    H12   S    
Cu2   N1    S    
C15   C25   S    
H6    O4    S    
C10   C11   D    
C14   H1    S    
C4    C10   S    
C5    C26   A    
H7    O6    S    
H8    O8    S    
C24   C25   S    
Cu1   N2    S    
C11   H14   S    
C5    N2    A    
Cu2   O13   S    
C17   O3    D    
Cu1   Cu2   S    
C6    H11   S    
H5    O2    S    
C9    C13   S    
Cu1   O10   S    
C1    O1    A    
C26   N1    A    
C25   H9    S    
C10   H15   S    
Cu2   O11   S    
C22   C23   A    
C4    O10   A    
C3    C16   S    
C7    C17   S    
Cu1   O12   S    
