data_mof_unit_52064.cif
_audit_creation_date              2012-12-10T19:46:56-0500
_audit_creation_method            fapswitch 2.2
_symmetry_space_group_name_H-M    P1
_symmetry_Int_Tables_number       1
_space_group_crystal_system       triclinic
_cell_length_a                    10.91328
_cell_length_b                    10.918564
_cell_length_c                    13.101349
_cell_angle_alpha                 91.520781
_cell_angle_beta                  91.105176
_cell_angle_gamma                 90.099638
_cell_volume                      1560.27783144

loop_
_atom_site_label
_atom_site_type_symbol
_atom_type_description
_atom_site_fract_x
_atom_site_fract_y
_atom_site_fract_z
_atom_type_partial_charge
C1    C     C_R   0.495499 0.259458 0.498284 0.831001
C2    C     C_R   0.496667 0.740594 0.501465 0.818162
C3    C     C_R   0.873023 0.509026 0.503192 -0.098981
C4    C     C_R   0.127184 0.512697 0.496929 -0.100258
C5    C     C_R   0.942107 0.513453 0.595356 -0.010518
C6    C     C_R   0.058085 0.517829 0.404722 -0.004652
C7    C     C_R   0.355862 0.202438 0.170048 -0.183242
C8    C     C_R   0.512792 0.807875 0.856417 -0.181525
C9    C     C_R   0.373470 0.166062 0.270517 -0.099871
C10   C     C_R   0.540998 0.841462 0.757349 -0.097468
C11   C     C_R   0.482721 0.108311 0.300115 0.109501
C12   C     C_R   0.450316 0.892143 0.694344 0.108095
C13   C     C_R   0.573218 0.085863 0.227054 -0.218450
C14   C     C_R   0.332045 0.910380 0.732051 -0.219566
C15   C     C_R   0.555903 0.120884 0.125196 0.153374
C16   C     C_R   0.303311 0.879914 0.832215 0.148581
C17   C     C_R   0.445988 0.180343 0.097636 -0.123312
C18   C     C_R   0.395021 0.826747 0.893986 -0.125134
C19   C     C_R   0.501154 0.930424 0.409375 -0.247489
C20   C     C_R   0.483435 0.069656 0.589392 -0.247458
C21   C     C_R   0.494541 0.873020 0.503427 -0.097232
C22   C     C_R   0.491322 0.127034 0.495617 -0.103737
C23   C     C_R   0.259595 0.506391 0.498883 0.817580
C24   C     C_R   0.740583 0.503752 0.501287 0.832969
C25   C     C_R   0.480759 0.943299 0.594440 0.006751
C26   C     C_R   0.494962 0.056755 0.403555 0.009717
C27   C     C_1   0.500321 0.499740 0.173524 0.159834
C28   C     C_1   0.499886 0.499514 0.826460 0.155102
C29   C     C_1   0.500344 0.499411 0.050672 -0.105184
C30   C     C_1   0.500001 0.499271 0.949300 -0.121383
C31   C     C_R   0.223482 0.659342 0.185002 -0.148404
C32   C     C_R   0.828688 0.436878 0.857057 -0.148262
C33   C     C_R   0.177543 0.641568 0.282384 -0.083855
C34   C     C_R   0.870552 0.422724 0.757170 -0.132925
C35   C     C_R   0.112302 0.534137 0.303007 0.132020
C36   C     C_R   0.887746 0.525996 0.697460 0.140664
C37   C     C_R   0.090993 0.446610 0.224051 -0.173523
C38   C     C_R   0.862685 0.643125 0.738524 -0.137126
C39   C     C_R   0.135768 0.465542 0.126449 -0.141751
C40   C     C_R   0.821491 0.656806 0.838491 -0.151180
C41   C     C_R   0.202446 0.571414 0.107091 -0.114014
C42   C     C_R   0.804814 0.553847 0.897835 -0.100395
C43   C     C_R   0.931510 0.512343 0.409247 -0.242059
C44   C     C_R   0.068574 0.512584 0.590925 -0.240695
Cu1   Cu    Cu3+1 0.499990 0.499990 0.592680 0.976065
Cu2   Cu    Cu3+1 0.500010 0.500010 0.407320 0.973666
H1    H     H_    0.237790 0.585206 0.031641 0.126702
H2    H     H_    0.773523 0.564715 0.975426 0.129338
H3    H     H_    0.656416 0.038455 0.249123 0.124665
H4    H     H_    0.262933 0.952709 0.684052 0.125888
H5    H     H_    0.505829 0.876248 0.338917 0.158749
H6    H     H_    0.475486 0.123608 0.659747 0.162212
H7    H     H_    0.274960 0.741500 0.169846 0.115745
H8    H     H_    0.815978 0.357464 0.903342 0.132093
H9    H     H_    0.192804 0.711211 0.341730 0.105300
H10   H     H_    0.890897 0.331925 0.726842 0.117460
H11   H     H_    0.039337 0.364142 0.238052 0.120194
H12   H     H_    0.877109 0.723709 0.693739 0.109695
H13   H     H_    0.118916 0.398009 0.065800 0.122169
H14   H     H_    0.803575 0.747317 0.870205 0.106583
H15   H     H_    0.878188 0.514059 0.338539 0.160282
H16   H     H_    0.121492 0.513456 0.661932 0.162822
H17   H     H_    0.427998 0.209266 0.020551 0.125199
H18   H     H_    0.377407 0.800603 0.971351 0.118768
H19   H     H_    0.271074 0.246079 0.147720 0.140900
H20   H     H_    0.582845 0.768886 0.905118 0.135928
H21   H     H_    0.301119 0.180982 0.324907 0.116770
H22   H     H_    0.633524 0.829969 0.730330 0.122955
N1    N     N_1   0.500030 0.500030 0.268070 -0.133972
N2    N     N_1   0.499970 0.499970 0.731930 -0.132272
O1    O     O_R   0.499980 0.319630 0.578260 -0.585963
O2    O     O_R   0.500020 0.680370 0.421740 -0.591783
O3    O     O_R   0.500000 0.319650 0.421740 -0.569104
O4    O     O_R   0.500000 0.680350 0.578260 -0.574134
O5    O     O_R   0.319630 0.500000 0.578260 -0.585896
O6    O     O_R   0.680370 0.500000 0.421740 -0.586189
O7    O     O_R   0.319650 0.500020 0.421740 -0.574542
O8    O     O_R   0.680350 0.499980 0.578260 -0.568936
C45   C     C_3   0.655948 0.089818 0.049883 -0.427785
C46   C     C_3   0.628673 0.124306 0.938715 -0.345762
C47   C     C_3   0.732557 0.084286 0.868967 -0.862439
H23   H     H_    0.819877 0.129222 0.893844 0.244865
H24   H     H_    0.744496 0.983364 0.870353 0.248269
H25   H     H_    0.710540 0.110535 0.789378 0.245386
H26   H     H_    0.542809 0.078679 0.910763 0.230407
H27   H     H_    0.617526 0.225215 0.934153 0.217955
H28   H     H_    0.741671 0.136843 0.076521 0.195563
H29   H     H_    0.672392 0.989353 0.051657 0.196908
C48   C     C_3   0.175259 0.909641 0.868579 -0.428752
C49   C     C_3   0.153734 0.889858 0.982385 -0.351960
C50   C     C_3   0.025875 0.931880 0.012884 -0.849038
H30   H     H_    0.015019 0.031608 0.000695 0.245964
H31   H     H_    0.954754 0.880894 0.967265 0.252025
H32   H     H_    0.012279 0.914222 0.094977 0.241742
H33   H     H_    0.162346 0.790994 0.998071 0.220827
H34   H     H_    0.222582 0.942351 0.029574 0.219139
H35   H     H_    0.156625 0.007550 0.852770 0.195549
H36   H     H_    0.108475 0.853136 0.822556 0.200079

loop_
_geom_bond_atom_site_label_1
_geom_bond_atom_site_label_2
_ccdc_geom_bond_type
C33   H9    S    
C34   H10   S    
C40   H14   S    
Cu1   O1    S    
C45   H28   S    
C47   H23   S    
C49   H33   S    
C39   C41   A    
Cu1   Cu2   S    
C8    H20   S    
C3    C43   A    
C46   H26   S    
C19   C21   A    
C27   C29   S    
C20   C25   A    
C5    C36   S    
C6    C35   S    
C7    C9    A    
C32   H8    S    
C19   C26   A    
Cu2   N1    S    
C46   H27   S    
C38   H12   S    
C15   C45   S    
C7    C17   A    
C31   C33   A    
Cu1   O8    S    
Cu2   O2    S    
C27   N1    T    
C40   C42   A    
C1    C22   S    
C3    C24   S    
C2    O2    A    
Cu2   O6    S    
C45   H29   S    
C47   H24   S    
C4    C6    A    
C23   O5    A    
C50   H30   S    
C4    C23   S    
C24   O6    A    
C4    C44   A    
C11   C26   S    
C44   H16   S    
C50   H31   S    
C31   H7    S    
C48   H35   S    
Cu1   O4    S    
C32   C34   A    
C9    H21   S    
C29   C30   T    
C7    H19   S    
C39   H13   S    
C2    C21   S    
C41   H1    S    
C16   C18   A    
C42   H2    S    
C23   O7    A    
C9    C11   A    
C10   C12   A    
C13   H3    S    
C24   O8    A    
C5    C44   A    
C12   C14   A    
C6    C43   A    
C13   C15   A    
C14   C16   A    
C47   H25   S    
C43   H15   S    
C15   C17   A    
C21   C25   A    
C31   C41   A    
C35   C37   A    
Cu1   N2    S    
C28   N2    T    
C20   C22   A    
C46   C47   S    
C3    C5    A    
C2    O4    A    
Cu2   O7    S    
C49   H34   S    
C10   H22   S    
C20   H6    S    
C12   C25   S    
C48   H36   S    
Cu1   O5    S    
C1    O3    A    
C28   C30   S    
C37   C39   A    
C17   H17   S    
C50   H32   S    
C38   C40   A    
C11   C13   A    
C18   H18   S    
C49   C50   S    
C14   H4    S    
C1    O1    A    
C36   C38   A    
C33   C35   A    
C34   C36   A    
C8    C18   A    
C45   C46   S    
C19   H5    S    
C16   C48   S    
C8    C10   A    
C22   C26   A    
C32   C42   A    
C48   C49   S    
Cu2   O3    S    
C37   H11   S    
