data_mof_unit_27164.cif
_audit_creation_date              2012-12-10T16:44:14-0500
_audit_creation_method            fapswitch 2.2
_symmetry_space_group_name_H-M    P1
_symmetry_Int_Tables_number       1
_space_group_crystal_system       triclinic
_cell_length_a                    7.427494
_cell_length_b                    8.716093
_cell_length_c                    13.389233
_cell_angle_alpha                 94.041392
_cell_angle_beta                  77.330721
_cell_angle_gamma                 103.099461
_cell_volume                      823.493858714

loop_
_atom_site_label
_atom_site_type_symbol
_atom_type_description
_atom_site_fract_x
_atom_site_fract_y
_atom_site_fract_z
_atom_type_partial_charge
C1    C     C_R   0.545351 0.799881 0.503083 0.757089
C2    C     C_R   0.416287 0.513692 0.976343 0.121104
C3    C     C_R   0.465533 0.557430 0.872191 0.071168
C4    C     C_R   0.558263 0.548868 0.036076 -0.037466
C5    C     C_R   0.734543 0.650683 0.996510 -0.009207
C6    C     C_R   0.771005 0.709374 0.898316 -0.155140
C7    C     C_R   0.639278 0.663213 0.836900 -0.186122
C8    C     C_R   0.533106 0.484436 0.133066 0.475036
C9    C     C_R   0.835748 0.643081 0.156011 0.530728
C10   C     C_R   0.336916 0.497669 0.807015 -0.108322
C11   C     C_2   0.572621 0.967147 0.504728 0.438890
C12   C     C_R   0.399420 0.498163 0.694555 0.759314
C13   C     C_2   0.431172 0.032321 0.495711 -0.476146
C14   C     C_R   0.455096 0.199886 0.497050 0.921327
C15   C     C_R   0.601926 0.511424 0.305761 0.904147
C16   C     C_R   0.872277 0.694773 0.056080 -0.263522
C17   C     C_R   0.663751 0.540444 0.195647 -0.281205
C18   C     C_R   0.150640 0.422590 0.849912 -0.183829
C19   C     C_R   0.094187 0.400456 0.954761 -0.185489
C20   C     C_R   0.225006 0.443682 0.017448 -0.069983
Cu1   Cu    Cu3+1 0.321300 0.483160 0.488710 1.030217
Cu2   Cu    Cu3+1 0.678700 0.516840 0.511290 1.038363
H1    H     H_    0.294510 0.961251 0.487172 0.171658
H2    H     H_    0.010898 0.617523 0.579355 0.217960
H3    H     H_    0.989053 0.382456 0.420678 0.267085
H4    H     H_    0.903026 0.790474 0.868336 0.145911
H5    H     H_    0.006271 0.773477 0.026280 0.188702
H6    H     H_    0.048677 0.379161 0.802187 0.175251
H7    H     H_    0.170336 0.428352 0.098434 0.224723
H8    H     H_    0.948603 0.346717 0.987582 0.162239
H9    H     H_    0.672925 0.717043 0.762932 0.163330
N1    N     N_2   0.947230 0.542220 0.528320 -0.204677
N2    N     N_2   0.052770 0.457780 0.471680 -0.168955
O1    O     O_R   0.383920 0.714220 0.492660 -0.630997
O2    O     O_R   0.685730 0.742660 0.511730 -0.536895
O3    O     O_R   0.275440 0.478800 0.636790 -0.595481
O4    O     O_R   0.577250 0.507240 0.655860 -0.589097
O5    O     O_R   0.314270 0.257340 0.488270 -0.559376
O6    O     O_R   0.616080 0.285780 0.507340 -0.522976
O7    O     O_R   0.422750 0.492760 0.344140 -0.528141
O8    O     O_R   0.724560 0.521200 0.363210 -0.549177
F1    F     F_    0.965241 0.698188 0.214724 -0.628432
F2    F     F_    0.388459 0.360926 0.166393 -0.660950
F3    F     F_    0.745164 0.053698 0.515530 -0.632658

loop_
_geom_bond_atom_site_label_1
_geom_bond_atom_site_label_2
_ccdc_geom_bond_type
C2    C4    A    
H2    N1    S    
C6    C7    A    
Cu2   O4    S    
C14   O5    A    
C19   C20   A    
C1    C11   S    
C8    F2    S    
C4    C8    A    
N1    N2    D    
C16   H5    S    
C2    C3    A    
C18   H6    S    
C11   F3    S    
C3    C10   A    
Cu1   Cu2   S    
Cu2   O2    S    
C11   C13   D    
C15   O8    A    
C9    F1    S    
C6    H4    S    
Cu1   O7    S    
Cu2   N1    S    
C10   C18   A    
Cu2   O6    S    
C10   C12   S    
C9    C17   A    
C9    C16   A    
C1    O1    A    
C3    C7    A    
C20   H7    S    
C5    C6    A    
C15   O7    A    
Cu2   O8    S    
Cu1   N2    S    
C2    C20   A    
C7    H9    S    
C1    O2    A    
C15   C17   S    
C18   C19   A    
C12   O4    A    
Cu1   O3    S    
C5    C16   A    
Cu1   O1    S    
C14   O6    A    
C13   C14   S    
C19   H8    S    
Cu1   O5    S    
C8    C17   A    
C12   O3    A    
H3    N2    S    
C4    C5    A    
C13   H1    S    
