data_mof_unit_8054.cif
_audit_creation_date              2012-12-11T14:39:25-0500
_audit_creation_method            fapswitch 2.2
_symmetry_space_group_name_H-M    P1
_symmetry_Int_Tables_number       1
_space_group_crystal_system       triclinic
_cell_length_a                    7.221573
_cell_length_b                    13.919164
_cell_length_c                    16.465238
_cell_angle_alpha                 90.004982
_cell_angle_beta                  97.49205
_cell_angle_gamma                 90.061868
_cell_volume                      1640.92677299

loop_
_atom_site_label
_atom_site_type_symbol
_atom_type_description
_atom_site_fract_x
_atom_site_fract_y
_atom_site_fract_z
_atom_type_partial_charge
O1    O     O_R   0.525340 0.338340 0.164530 -0.553401
O2    O     O_R   0.474660 0.661660 0.835470 -0.542210
O3    O     O_R   0.974660 0.838340 0.835470 -0.542366
O4    O     O_R   0.025340 0.161660 0.164530 -0.541803
O5    O     O_R   0.253520 0.352000 0.336710 -0.521783
O6    O     O_R   0.746480 0.648000 0.663290 -0.528731
O7    O     O_R   0.246480 0.852000 0.663290 -0.528008
O8    O     O_R   0.753520 0.148000 0.336710 -0.524564
O9    O     O_R   0.083330 0.168380 0.337300 -0.511271
O10   O     O_R   0.916670 0.831620 0.662700 -0.512599
O11   O     O_R   0.416670 0.668380 0.662700 -0.511650
O12   O     O_R   0.583330 0.331620 0.337300 -0.527891
C1    C     C_R   0.432820 0.370470 0.362473 0.892806
C2    C     C_R   0.567277 0.630237 0.636951 0.936786
C3    C     C_R   0.067374 0.870014 0.637143 0.939708
C4    C     C_R   0.932557 0.129994 0.362873 0.945056
O13   O     O_R   0.195840 0.349670 0.165140 -0.549533
O14   O     O_R   0.804160 0.650330 0.834860 -0.549809
O15   O     O_R   0.304160 0.849670 0.834860 -0.549998
O16   O     O_R   0.695840 0.150330 0.165140 -0.547794
C5    C     C_R   0.356858 0.371574 0.137303 0.770609
C6    C     C_R   0.643356 0.628999 0.863120 0.772402
C7    C     C_R   0.143408 0.871097 0.863082 0.772073
C8    C     C_R   0.856578 0.128957 0.136878 0.775677
O17   O     O_3   0.387830 0.193120 0.250910 -0.375697
O18   O     O_3   0.612170 0.806880 0.749090 -0.380975
O19   O     O_3   0.112170 0.693120 0.749090 -0.380573
O20   O     O_3   0.887830 0.306880 0.250910 -0.388871
V1    V     V_3+5 0.113010 0.264540 0.250910 1.492629
V2    V     V_3+5 0.886990 0.735460 0.749090 1.500850
V3    V     V_3+5 0.386990 0.764540 0.749090 1.501238
V4    V     V_3+5 0.613010 0.235460 0.250910 1.473777
H1    H     H_    0.940991 0.795871 0.262591 0.130687
H2    H     H_    0.051491 0.203658 0.737506 0.126882
H3    H     H_    0.551132 0.296374 0.737266 0.127410
H4    H     H_    0.447800 0.700666 0.261342 0.153482
C9    C     C_R   0.988477 0.204297 0.529553 0.328701
C10   C     C_R   0.011218 0.795577 0.470502 0.330172
C11   C     C_R   0.508329 0.704348 0.469911 0.330318
C12   C     C_R   0.488270 0.295743 0.529290 0.331951
C13   C     C_R   0.016817 0.239569 0.610688 0.107105
C14   C     C_R   0.980766 0.760164 0.389441 0.113566
C15   C     C_R   0.478481 0.739045 0.388438 0.074548
C16   C     C_R   0.516353 0.260459 0.610417 0.102894
C17   C     C_R   0.035276 0.175625 0.675572 -0.221718
C18   C     C_R   0.959307 0.824010 0.324498 -0.222605
C19   C     C_R   0.462659 0.674505 0.323867 -0.146496
C20   C     C_R   0.535031 0.324411 0.675345 -0.222497
C21   C     C_R   0.032505 0.076237 0.663123 0.279262
C22   C     C_R   0.962078 0.923427 0.336829 0.278616
C23   C     C_R   0.472866 0.576269 0.337215 0.251809
C24   C     C_R   0.532593 0.423814 0.662953 0.278828
C25   C     C_R   0.018987 0.037548 0.581878 -0.055541
C26   C     C_R   0.978623 0.962268 0.418098 -0.055687
C27   C     C_R   0.484097 0.537353 0.418187 -0.100129
C28   C     C_R   0.519255 0.462499 0.581742 -0.058493
C29   C     C_R   0.992708 0.102187 0.514080 -0.088121
C30   C     C_R   0.006325 0.897685 0.485919 -0.087486
C31   C     C_R   0.506997 0.602222 0.485777 -0.070698
C32   C     C_R   0.493142 0.397805 0.513911 -0.072916
C33   C     C_R   0.029867 0.936364 0.567222 -0.121782
C34   C     C_R   0.969491 0.063547 0.432761 -0.123502
C35   C     C_R   0.471573 0.436391 0.432625 -0.120127
C36   C     C_R   0.529643 0.563751 0.567101 -0.121563
H5    H     H_    0.138298 0.065656 0.057490 0.157527
H6    H     H_    0.861670 0.934462 0.942425 0.157447
H7    H     H_    0.362121 0.566569 0.943322 0.156376
H8    H     H_    0.638516 0.434907 0.057780 0.151889
C37   C     C_2   0.150851 0.940944 0.931715 -0.342609
C38   C     C_2   0.849124 0.059155 0.068211 -0.345262
C39   C     C_2   0.349705 0.441847 0.069055 -0.292877
C40   C     C_2   0.650801 0.559355 0.931857 -0.342233
C41   C     C_2   0.996366 0.965574 0.965501 -0.136185
C42   C     C_2   0.003603 0.034543 0.034414 -0.136624
C43   C     C_2   0.504005 0.466294 0.035028 -0.129578
C44   C     C_2   0.496631 0.535196 0.966092 -0.135988
H9    H     H_    0.714907 0.027911 0.044550 0.125888
H10   H     H_    0.285070 0.972186 0.955376 0.125269
H11   H     H_    0.784851 0.527891 0.955250 0.125416
H12   H     H_    0.215648 0.473297 0.045647 0.118000
O21   O     O_3   0.964002 0.268771 0.465076 -0.643496
H13   H     H_    0.911794 0.330016 0.482174 0.295262
O22   O     O_3   0.038794 0.731233 0.535012 -0.643550
H14   H     H_    0.090751 0.670081 0.517581 0.296850
O23   O     O_3   0.531359 0.769082 0.534249 -0.644054
H15   H     H_    0.578184 0.831403 0.516619 0.296443
O24   O     O_3   0.463757 0.231372 0.464712 -0.638968
H16   H     H_    0.412101 0.169920 0.481770 0.296331
C45   C     C_3   0.031280 0.345786 0.629532 -0.750100
H17   H     H_    0.137189 0.379353 0.595414 0.216355
H18   H     H_    0.894582 0.381066 0.611743 0.202385
H19   H     H_    0.073734 0.359923 0.695749 0.211207
C46   C     C_3   0.967372 0.653882 0.370751 -0.767811
H20   H     H_    0.863702 0.619844 0.405804 0.211944
H21   H     H_    0.922518 0.639559 0.304739 0.209767
H22   H     H_    0.105088 0.619212 0.387524 0.208320
C47   C     C_3   0.462404 0.844967 0.368866 -0.756479
H23   H     H_    0.355802 0.878333 0.402615 0.218223
H24   H     H_    0.598546 0.881032 0.386582 0.205877
H25   H     H_    0.420129 0.858205 0.302505 0.211455
C48   C     C_3   0.530575 0.154248 0.629213 -0.749832
H26   H     H_    0.636759 0.120801 0.595241 0.216306
H27   H     H_    0.572538 0.140113 0.695453 0.211478
H28   H     H_    0.393928 0.118850 0.611220 0.202608
O25   O     O_3   0.040827 0.016810 0.730650 -0.664617
H29   H     H_    0.044129 0.055434 0.781436 0.278161
O26   O     O_3   0.950253 0.982717 0.269123 -0.664154
H30   H     H_    0.944574 0.943996 0.218295 0.279158
O27   O     O_3   0.478264 0.520723 0.268891 -0.659504
H31   H     H_    0.607538 0.495367 0.273716 0.283402
O28   O     O_3   0.541128 0.483257 0.730489 -0.664033
H32   H     H_    0.544416 0.444632 0.781266 0.277660

loop_
_geom_bond_atom_site_label_1
_geom_bond_atom_site_label_2
_ccdc_geom_bond_type
C13   C45   S    
O24   H16   S    
O1    C5    A    
C48   H26   S    
C12   C32   A    
C27   C31   A    
C10   O22   S    
C14   C46   S    
O13   V1    S    
C41   C42   S    
C7    C37   S    
O3    C7    A    
O28   H32   S    
C40   C44   D    
O15   V3    S    
C47   H23   S    
C8    C38   S    
C29   C34   A    
O23   H15   S    
H8    C43   S    
C31   C36   A    
C46   H20   S    
C5    C39   S    
C32   C35   A    
C12   O24   S    
O20   V1    S    
O9    C4    A    
C10   C14   A    
C40   H11   S    
O10   C3    A    
O16   V4    S    
O4    C8    A    
O11   C2    A    
H4    C19   S    
C14   C18   A    
C10   C30   A    
C25   C33   A    
O16   C8    A    
C27   C35   A    
C38   C42   D    
O26   H30   S    
C28   C36   A    
C37   C41   D    
O14   V2    S    
C45   H18   S    
O5    C1    A    
O4    V1    S    
O9    V1    S    
O17   V4    S    
O7    C3    A    
O11   V3    S    
O18   V3    S    
C48   H27   S    
O12   V4    S    
C38   H9    S    
H1    C18   S    
C9    O21   S    
C37   H10   S    
C4    C34   S    
H3    C20   S    
C6    C40   S    
C39   H12   S    
C47   H24   S    
O21   H13   S    
O5    V1    S    
O7    V3    S    
O8    V4    S    
C25   C29   A    
C19   C23   A    
C26   C34   A    
C24   O28   S    
H6    C41   S    
O1    V4    S    
O13   C5    A    
H5    C42   S    
C28   C32   A    
O2    V3    S    
O3    V2    S    
O15   C7    A    
C43   C44   S    
O2    C6    A    
O6    C2    A    
O10   V2    S    
O22   H14   S    
C1    C35   S    
C17   C21   A    
C11   C31   A    
C3    C33   S    
H2    C17   S    
C22   C26   A    
C45   H19   S    
C2    C36   S    
O6    V2    S    
C46   H22   S    
C22   O26   S    
C11   O23   S    
C47   H25   S    
C26   C30   A    
O14   C6    A    
C21   O25   S    
C15   C47   S    
C11   C15   A    
C16   C48   S    
C48   H28   S    
O25   H29   S    
C18   C22   A    
C23   O27   S    
O27   H31   S    
C39   C43   D    
C46   H21   S    
C30   C33   A    
C21   C25   A    
C23   C27   A    
C9    C13   A    
C16   C20   A    
C12   C16   A    
O12   C1    A    
O8    C4    A    
C13   C17   A    
H7    C44   S    
C45   H17   S    
C20   C24   A    
C15   C19   A    
C9    C29   A    
C24   C28   A    
O19   V2    S    
