data_mof_unit_54008.cif
_audit_creation_date              2012-12-10T19:44:28-0500
_audit_creation_method            fapswitch 2.2
_symmetry_space_group_name_H-M    P1
_symmetry_Int_Tables_number       1
_space_group_crystal_system       triclinic
_cell_length_a                    10.866748
_cell_length_b                    12.29767
_cell_length_c                    13.261645
_cell_angle_alpha                 116.469038
_cell_angle_beta                  77.478223
_cell_angle_gamma                 100.645894
_cell_volume                      1540.82882745

loop_
_atom_site_label
_atom_site_type_symbol
_atom_type_description
_atom_site_fract_x
_atom_site_fract_y
_atom_site_fract_z
_atom_type_partial_charge
C1    C     C_R   0.516846 0.854771 0.286075 0.764329
C2    C     C_R   0.678698 0.743235 0.743321 -0.193470
C3    C     C_R   0.041291 0.938338 0.551139 -0.236220
C4    C     C_R   0.129506 0.002203 0.497819 -0.086392
C5    C     C_R   0.087518 0.068776 0.450165 -0.005079
C6    C     C_R   0.958338 0.067708 0.456270 -0.230346
C7    C     C_R   0.869905 0.002045 0.507858 -0.083818
C8    C     C_R   0.911795 0.937256 0.557663 0.034228
C9    C     C_R   0.170032 0.265150 0.433957 -0.166446
C10   C     C_R   0.244604 0.330200 0.374856 -0.142645
C11   C     C_R   0.323183 0.269519 0.272858 -0.114971
C12   C     C_R   0.736740 0.001177 0.503728 0.781732
C13   C     C_R   0.325738 0.143286 0.228774 -0.134633
C14   C     C_R   0.250133 0.077507 0.286983 -0.097623
C15   C     C_R   0.172912 0.138306 0.390803 0.128298
C16   C     C_R   0.563791 0.277656 0.005304 -0.215836
C17   C     C_R   0.483962 0.228085 0.832677 -0.038293
C18   C     C_R   0.464032 0.818080 0.100088 -0.197112
C19   C     C_R   0.428883 0.738403 0.994688 -0.170864
C20   C     C_R   0.438616 0.613767 0.951913 -0.179339
C21   C     C_R   0.492246 0.567173 0.011064 0.085358
C22   C     C_R   0.536774 0.651212 0.114327 0.089896
C23   C     C_R   0.481792 0.145193 0.712982 0.786420
C24   C     C_R   0.503732 0.440467 0.972041 0.079893
C25   C     C_R   0.559450 0.401934 0.036606 0.159628
C26   C     C_R   0.617401 0.487843 0.127787 -0.237434
C27   C     C_R   0.609511 0.611140 0.163924 -0.196866
C28   C     C_R   0.466960 0.350860 0.869053 -0.227482
C29   C     C_R   0.524142 0.190850 0.904398 -0.208838
C30   C     C_R   0.511899 0.774722 0.163773 -0.090449
C31   C     C_R   0.717070 0.355850 0.345632 -0.272894
C32   C     C_R   0.323766 0.758221 0.641404 0.079860
C33   C     C_R   0.285972 0.662018 0.673418 -0.264440
C34   C     C_R   0.263023 0.000062 0.498069 0.789808
C35   C     C_R   0.353565 0.559874 0.622476 -0.212156
C36   C     C_R   0.460785 0.553392 0.538999 -0.013371
C37   C     C_R   0.497002 0.655366 0.511001 0.293661
C38   C     C_R   0.533417 0.450129 0.481740 -0.008357
C39   C     C_R   0.644575 0.455097 0.404251 0.212629
C40   C     C_R   0.682274 0.558843 0.384819 -0.301499
C41   C     C_R   0.606601 0.653651 0.432775 -0.184884
C42   C     C_R   0.501150 0.341295 0.497041 0.078980
C43   C     C_R   0.679364 0.251180 0.363605 0.088322
C44   C     C_R   0.663008 0.865118 0.775562 -0.234945
C45   C     C_R   0.737735 0.928759 0.714917 -0.087819
C46   C     C_R   0.826866 0.869550 0.619563 0.040827
C47   C     C_R   0.843258 0.747310 0.589185 -0.252146
C48   C     C_R   0.769580 0.684696 0.650918 0.659711
Cu1   Cu    Cu3+1 0.529370 0.098270 0.475420 0.953737
Cu2   Cu    Cu3+1 0.470630 0.901730 0.524580 0.931279
H1    H     H_    0.621190 0.694404 0.790486 0.166792
H2    H     H_    0.381444 0.320255 0.227716 0.141545
H3    H     H_    0.385317 0.096551 0.148827 0.114777
H4    H     H_    0.250626 0.979412 0.251223 0.107507
H5    H     H_    0.534379 0.095988 0.878344 0.142286
H6    H     H_    0.672646 0.458443 0.167800 0.148459
H7    H     H_    0.602988 0.248061 0.056427 0.131700
H8    H     H_    0.431815 0.374345 0.812058 0.134325
H9    H     H_    0.448877 0.913094 0.133975 0.143620
H10   H     H_    0.404334 0.557025 0.872223 0.126875
H11   H     H_    0.389589 0.772883 0.947504 0.141362
H12   H     H_    0.593801 0.910204 0.848463 0.144723
H13   H     H_    0.664507 0.676173 0.227902 0.130432
H14   H     H_    0.735257 0.174290 0.319680 0.117439
H15   H     H_    0.769217 0.565296 0.328499 0.145126
H16   H     H_    0.802045 0.359203 0.286200 0.129301
H17   H     H_    0.419131 0.329816 0.555110 0.112334
H18   H     H_    0.270662 0.837040 0.681417 0.125074
H19   H     H_    0.320575 0.488008 0.650341 0.134049
H20   H     H_    0.203949 0.666582 0.737764 0.152626
H21   H     H_    0.636863 0.724148 0.405682 0.201961
H22   H     H_    0.726823 0.023987 0.742170 0.128511
H23   H     H_    0.913102 0.700455 0.517410 0.154656
H24   H     H_    0.073277 0.890724 0.591119 0.158543
H25   H     H_    0.927134 0.116566 0.417043 0.165581
H26   H     H_    0.109543 0.313384 0.512969 0.146528
H27   H     H_    0.241522 0.427728 0.408140 0.154151
N1    N     N_R   0.573890 0.246290 0.438210 -0.182632
N2    N     N_R   0.426890 0.754320 0.561170 -0.203313
O1    O     O_R   0.536940 0.972510 0.318130 -0.584724
O2    O     O_R   0.487330 0.806530 0.359650 -0.586568
O3    O     O_R   0.705160 0.082990 0.479250 -0.578752
O4    O     O_R   0.655550 0.917010 0.520760 -0.599356
O5    O     O_R   0.512670 0.193470 0.640350 -0.573264
O6    O     O_R   0.463060 0.027490 0.681870 -0.592188
O7    O     O_R   0.344450 0.082990 0.479240 -0.582352
O8    O     O_R   0.294840 0.917010 0.520750 -0.591629
F1    F     F_    0.786426 0.567092 0.621121 -0.677436

loop_
_geom_bond_atom_site_label_1
_geom_bond_atom_site_label_2
_ccdc_geom_bond_type
C31   H16   S    
C17   C29   A    
C35   C36   A    
Cu2   N2    S    
C7    C8    A    
C45   C46   A    
C43   N1    A    
C37   N2    A    
C26   C27   A    
C17   C23   S    
C31   C43   A    
Cu1   O5    S    
C36   C37   A    
C38   C42   A    
C5    C6    A    
C1    O2    A    
Cu1   N1    S    
C18   C19   A    
C34   O7    A    
C3    H24   S    
C11   H2    S    
Cu2   O6    S    
C19   C20   A    
C2    C44   A    
Cu2   O4    S    
C48   F1    S    
C18   C30   A    
C9    H26   S    
C20   H10   S    
C9    C10   A    
C32   H18   S    
C21   C22   A    
C45   H22   S    
C25   C26   A    
C10   H27   S    
C43   H14   S    
C13   H3    S    
C7    C12   S    
C4    C34   S    
C23   O5    A    
C6    H25   S    
C24   C25   A    
C47   H23   S    
C3    C8    A    
C2    H1    S    
C39   C40   A    
C29   H5    S    
C2    C48   A    
C16   C29   A    
C12   O4    A    
Cu1   O3    S    
C34   O8    A    
C47   C48   A    
C12   O3    A    
C27   H13   S    
Cu2   O8    S    
C33   H20   S    
C40   C41   A    
C14   H4    S    
C42   N1    A    
C22   C27   A    
C42   H17   S    
C3    C4    A    
C44   C45   A    
C16   C25   A    
C46   C47   A    
C22   C30   A    
C17   C28   A    
Cu1   O7    S    
C24   C28   A    
C4    C5    A    
C26   H6    S    
C6    C7    A    
C28   H8    S    
Cu1   O1    S    
C41   H21   S    
C40   H15   S    
C44   H12   S    
C32   C33   A    
C36   C38   A    
C9    C15   A    
C32   N2    A    
C11   C13   A    
C38   C39   A    
C19   H11   S    
C1    C30   S    
C33   C35   A    
C31   C39   A    
C16   H7    S    
C37   C41   A    
C8    C46   S    
C5    C15   S    
C10   C11   A    
C18   H9    S    
C20   C21   A    
C35   H19   S    
Cu1   Cu2   S    
C23   O6    A    
C21   C24   A    
C1    O1    A    
C14   C15   A    
C13   C14   A    
Cu2   O2    S    
