data_mof_unit_33630.cif
_audit_creation_date              2012-12-11T14:44:14-0500
_audit_creation_method            fapswitch 2.2
_symmetry_space_group_name_H-M    P1
_symmetry_Int_Tables_number       1
_space_group_crystal_system       triclinic
_cell_length_a                    19.066262
_cell_length_b                    11.147001
_cell_length_c                    18.741419
_cell_angle_alpha                 90.075096
_cell_angle_beta                  90.005955
_cell_angle_gamma                 89.974713
_cell_volume                      3983.14071517

loop_
_atom_site_label
_atom_site_type_symbol
_atom_type_description
_atom_site_fract_x
_atom_site_fract_y
_atom_site_fract_z
_atom_type_partial_charge
Br1   Br    Br    0.604422 0.845364 0.071314 -0.503140
Br2   Br    Br    0.395431 0.844768 0.928552 -0.502831
Br3   Br    Br    0.104415 0.345352 0.071311 -0.503109
Br4   Br    Br    0.895433 0.344793 0.928554 -0.501908
C1    C     C_R   0.731814 0.383009 0.148551 0.549480
C2    C     C_R   0.999156 0.991056 0.037257 -0.090572
C3    C     C_R   0.995915 0.775055 0.038187 0.007066
C4    C     C_R   0.494638 0.058786 0.036416 -0.120229
C5    C     C_R   0.505048 0.058761 0.963575 -0.120081
C6    C     C_R   0.994628 0.558780 0.036419 -0.120250
C7    C     C_R   0.005053 0.558759 0.963579 -0.120222
C8    C     C_R   0.500986 0.491048 0.963377 -0.090872
C9    C     C_R   0.499183 0.491062 0.037243 -0.090871
C10   C     C_R   0.676493 0.937219 0.024395 0.135999
C11   C     C_R   0.323392 0.936884 0.975553 0.135999
C12   C     C_R   0.176505 0.437171 0.024394 0.135948
C13   C     C_R   0.823400 0.436915 0.975557 0.135954
C14   C     C_R   0.681265 0.926063 0.949937 -0.100528
C15   C     C_R   0.318639 0.925835 0.050001 -0.100710
C16   C     C_R   0.181277 0.426046 0.949939 -0.100382
C17   C     C_R   0.268172 0.383091 0.851429 0.550006
C18   C     C_R   0.818651 0.425874 0.050004 -0.100724
C19   C     C_R   0.744891 0.947880 0.916083 -0.025680
C20   C     C_R   0.254991 0.947578 0.083880 -0.025390
C21   C     C_R   0.244917 0.447851 0.916096 -0.025323
C22   C     C_R   0.755005 0.447617 0.083882 -0.025431
C23   C     C_R   0.793718 0.020357 0.950967 -0.092448
C24   C     C_R   0.206084 0.019938 0.049049 -0.092398
C25   C     C_R   0.293765 0.520299 0.950980 -0.092388
C26   C     C_R   0.706100 0.519979 0.049045 -0.092421
C27   C     C_R   0.785779 0.048076 0.022181 0.068811
C28   C     C_R   0.231809 0.882999 0.148550 0.550019
C29   C     C_R   0.214071 0.047778 0.977894 0.068360
C30   C     C_R   0.285809 0.548002 0.022192 0.068453
C31   C     C_R   0.714082 0.547811 0.977896 0.068239
C32   C     C_R   0.730045 0.998949 0.061992 0.029468
C33   C     C_R   0.269841 0.998684 0.938030 0.029049
C34   C     C_R   0.230064 0.498869 0.061991 0.029008
C35   C     C_R   0.769847 0.498713 0.938035 0.028848
C36   C     C_R   0.471745 0.066926 0.454000 -0.135554
C37   C     C_R   0.462689 0.062687 0.526681 -0.128935
C38   C     C_R   0.969954 0.568349 0.453471 -0.130687
C39   C     C_R   0.768168 0.883097 0.851425 0.553171
C40   C     C_R   0.960361 0.564118 0.526142 -0.124578
C41   C     C_R   0.480737 0.161729 0.569397 0.033645
C42   C     C_R   0.501079 0.168856 0.422970 0.033035
C43   C     C_R   0.979944 0.661913 0.569169 0.033941
C44   C     C_R   0.000842 0.669271 0.422851 0.032833
C45   C     C_R   0.530959 0.155259 0.146997 0.554784
C46   C     C_R   0.469000 0.155292 0.853044 0.556880
C47   C     C_R   0.030955 0.655259 0.146999 0.554514
C48   C     C_R   0.968999 0.655293 0.853046 0.557304
C49   C     C_R   0.504388 0.267859 0.537932 -0.133819
C50   C     C_R   0.512319 0.385595 0.926237 0.113579
C51   C     C_R   0.514949 0.271321 0.464636 -0.127600
C52   C     C_R   0.005084 0.767289 0.538069 -0.146504
C53   C     C_R   0.015797 0.770935 0.464821 -0.136771
C54   C     C_R   0.816974 0.931864 0.456070 -0.135683
C55   C     C_R   0.205526 0.012969 0.528332 -0.131743
C56   C     C_R   0.294620 0.512646 0.471728 -0.126717
C57   C     C_R   0.713678 0.526837 0.525927 -0.128881
C58   C     C_R   0.822299 0.921234 0.528871 -0.127914
C59   C     C_R   0.205534 0.003345 0.455412 -0.135947
C60   C     C_R   0.294673 0.502943 0.544640 -0.129938
C61   C     C_R   0.487683 0.385668 0.074203 0.113941
C62   C     C_R   0.712799 0.512825 0.453052 -0.134228
C63   C     C_R   0.762684 0.894594 0.570142 0.035074
C64   C     C_R   0.249662 0.920326 0.422183 0.034974
C65   C     C_R   0.250412 0.420219 0.577807 0.034663
C66   C     C_R   0.750758 0.419377 0.421953 0.029811
C67   C     C_R   0.698426 0.871510 0.537183 -0.147766
C68   C     C_R   0.299396 0.856373 0.462303 -0.141283
C69   C     C_R   0.200444 0.356806 0.537649 -0.131430
C70   C     C_R   0.795200 0.347279 0.463772 -0.139934
C71   C     C_R   0.692817 0.883891 0.463813 -0.138981
C72   C     C_R   0.012307 0.885608 0.926249 0.113739
C73   C     C_R   0.300898 0.868917 0.536004 -0.147505
C74   C     C_R   0.198706 0.369777 0.463979 -0.134744
C75   C     C_R   0.796930 0.362695 0.537166 -0.148482
C76   C     C_R   0.751648 0.919230 0.423604 0.030117
C77   C     C_R   0.252676 0.945301 0.569382 0.036491
C78   C     C_R   0.247220 0.445524 0.430629 0.035428
C79   C     C_R   0.754216 0.449856 0.568591 0.032151
C80   C     C_R   0.727519 0.019122 0.139976 0.592411
C81   C     C_R   0.272433 0.019061 0.860093 0.592622
C82   C     C_R   0.227537 0.519058 0.139957 0.592709
C83   C     C_R   0.987652 0.885660 0.074216 0.114521
C84   C     C_R   0.772421 0.519027 0.860084 0.592791
C85   C     C_R   0.730410 0.378907 0.351667 0.543552
C86   C     C_R   0.269662 0.379118 0.648338 0.544698
C87   C     C_R   0.230364 0.879236 0.351637 0.543875
C88   C     C_R   0.772791 0.872396 0.645346 0.545106
C89   C     C_R   0.532061 0.157526 0.352819 0.549805
C90   C     C_R   0.463553 0.156105 0.644507 0.550615
C91   C     C_R   0.032020 0.657573 0.352795 0.549539
C92   C     C_R   0.963247 0.656097 0.644368 0.548716
C93   C     C_R   0.741703 0.970179 0.353512 0.559167
C94   C     C_R   0.000968 0.991055 0.963393 -0.090762
C95   C     C_R   0.259436 0.975807 0.644111 0.557914
C96   C     C_R   0.240528 0.475992 0.355913 0.559536
C97   C     C_R   0.759881 0.477431 0.643657 0.556998
C98   C     C_R   0.501339 0.164806 0.924729 -0.001285
C99   C     C_R   0.498481 0.164808 0.075394 -0.000995
C100  C     C_R   0.001337 0.664811 0.924734 -0.001596
C101  C     C_R   0.998466 0.664804 0.075400 -0.000765
C102  C     C_R   0.503941 0.275039 0.962095 0.006264
C103  C     C_R   0.495936 0.275057 0.038178 0.006719
C104  C     C_R   0.003926 0.775046 0.962104 0.006154
Cr1   Cr    Cr6+3 0.772000 0.169640 0.250110 1.063564
Cr2   Cr    Cr6+3 0.383330 0.010620 0.749160 1.071044
Cr3   Cr    Cr6+3 0.116670 0.510620 0.250840 1.073847
Cr4   Cr    Cr6+3 0.883330 0.510620 0.749160 1.072716
Cr5   Cr    Cr6+3 0.228000 0.169640 0.749890 1.064199
Cr6   Cr    Cr6+3 0.272000 0.669640 0.250110 1.063243
Cr7   Cr    Cr6+3 0.728000 0.669640 0.749890 1.064448
Cr8   Cr    Cr6+3 0.614960 0.323350 0.249260 1.053719
Cr9   Cr    Cr6+3 0.385040 0.323350 0.750740 1.055505
Cr10  Cr    Cr6+3 0.114960 0.823350 0.249260 1.050861
Cr11  Cr    Cr6+3 0.885040 0.823350 0.750740 1.052150
Cr12  Cr    Cr6+3 0.616670 0.010620 0.250840 1.070608
H1    H     H_    0.488388 0.974024 0.063233 0.209648
H2    H     H_    0.167361 0.055082 0.425600 0.131307
H3    H     H_    0.332987 0.554398 0.574479 0.134216
H4    H     H_    0.678995 0.570354 0.421582 0.134999
H5    H     H_    0.652747 0.846241 0.568070 0.125882
H6    H     H_    0.334462 0.792554 0.437313 0.122363
H7    H     H_    0.165315 0.293183 0.562576 0.125972
H8    H     H_    0.825054 0.274280 0.440585 0.139258
H9    H     H_    0.641664 0.873249 0.439462 0.138695
H10   H     H_    0.339240 0.819148 0.566697 0.118124
H11   H     H_    0.160074 0.320605 0.433279 0.124972
H12   H     H_    0.511257 0.973954 0.936655 0.209960
H13   H     H_    0.830498 0.305850 0.569277 0.127969
H14   H     H_    0.998020 0.075008 0.934990 0.202081
H15   H     H_    0.002105 0.075010 0.065794 0.201740
H16   H     H_    0.498036 0.574995 0.934969 0.201936
H17   H     H_    0.502131 0.575018 0.065779 0.201570
H18   H     H_    0.637934 0.891574 0.919414 0.175923
H19   H     H_    0.362022 0.891522 0.080486 0.175377
H20   H     H_    0.137945 0.391567 0.919413 0.175867
H21   H     H_    0.862035 0.391559 0.080487 0.175306
H22   H     H_    0.841080 0.049828 0.924321 0.194108
H23   H     H_    0.988370 0.474016 0.063235 0.209577
H24   H     H_    0.158673 0.049366 0.075697 0.193611
H25   H     H_    0.341158 0.549766 0.924343 0.193904
H26   H     H_    0.658691 0.549409 0.075688 0.193552
H27   H     H_    0.459752 0.987679 0.422718 0.132487
H28   H     H_    0.441058 0.981306 0.549217 0.139041
H29   H     H_    0.957061 0.489886 0.421874 0.133872
H30   H     H_    0.937309 0.483708 0.548484 0.141142
H31   H     H_    0.516071 0.346324 0.569968 0.134770
H32   H     H_    0.537871 0.351213 0.441486 0.142371
H33   H     H_    0.017851 0.844942 0.570366 0.130255
H34   H     H_    0.011280 0.473953 0.936658 0.209901
H35   H     H_    0.039823 0.850117 0.441978 0.139873
H36   H     H_    0.863112 0.957164 0.425848 0.138661
H37   H     H_    0.169056 0.075722 0.552182 0.131126
H38   H     H_    0.331226 0.575058 0.447927 0.132705
H39   H     H_    0.682863 0.599077 0.548647 0.139521
H40   H     H_    0.873635 0.933351 0.552588 0.141981
I1    I     I_    0.564086 0.405955 0.825007 -0.259668
I2    I     I_    0.435962 0.406295 0.175477 -0.261995
I3    I     I_    0.064073 0.905983 0.825016 -0.260596
I4    I     I_    0.935945 0.906289 0.175505 -0.270016
I5    I     I_    0.866623 0.153067 0.063609 -0.332361
I6    I     I_    0.133356 0.153119 0.936550 -0.331439
I7    I     I_    0.366643 0.653044 0.063625 -0.332476
I8    I     I_    0.633369 0.653151 0.936544 -0.331709
O1    O     O_R   0.787540 0.042690 0.170470 -0.455785
O2    O     O_R   0.454130 0.051100 0.669160 -0.525693
O3    O     O_R   0.045870 0.551100 0.330840 -0.520158
O4    O     O_R   0.954130 0.551100 0.669160 -0.522800
O5    O     O_R   0.681340 0.959300 0.325510 -0.504307
O6    O     O_R   0.318660 0.959300 0.674490 -0.505426
O7    O     O_R   0.181340 0.459300 0.325510 -0.499458
O8    O     O_R   0.818660 0.459300 0.674490 -0.505036
O9    O     O_3   0.667880 0.167870 0.250070 -0.295232
O10   O     O_3   0.332120 0.167870 0.749930 -0.299011
O11   O     O_3   0.167880 0.667870 0.250070 -0.296454
O12   O     O_R   0.212460 0.042690 0.829530 -0.453983
O13   O     O_3   0.832120 0.667870 0.749930 -0.302343
O14   O     O_R   0.765660 0.292160 0.175050 -0.492651
O15   O     O_R   0.234340 0.292160 0.824950 -0.492233
O16   O     O_R   0.265660 0.792160 0.175050 -0.492628
O17   O     O_R   0.734340 0.792160 0.824950 -0.491119
O18   O     O_R   0.670190 0.408980 0.168550 -0.514161
O19   O     O_R   0.329810 0.408980 0.831450 -0.514162
O20   O     O_R   0.170190 0.908980 0.168550 -0.513704
O21   O     O_R   0.829810 0.908980 0.831450 -0.511844
O22   O     O_R   0.556580 0.251450 0.175160 -0.480113
O23   O     O_R   0.287540 0.542690 0.170470 -0.454284
O24   O     O_R   0.443420 0.251450 0.824840 -0.479471
O25   O     O_R   0.056580 0.751450 0.175160 -0.479912
O26   O     O_R   0.943420 0.751450 0.824840 -0.478742
O27   O     O_R   0.545920 0.049510 0.170320 -0.490802
O28   O     O_R   0.454080 0.049510 0.829680 -0.489346
O29   O     O_R   0.045920 0.549510 0.170320 -0.491304
O30   O     O_R   0.954080 0.549510 0.829680 -0.488964
O31   O     O_R   0.681390 0.957840 0.176710 -0.445127
O32   O     O_R   0.318610 0.957840 0.823290 -0.443527
O33   O     O_R   0.181390 0.457840 0.176710 -0.444098
O34   O     O_R   0.712460 0.542690 0.829530 -0.453661
O35   O     O_R   0.818610 0.457840 0.823290 -0.442525
O36   O     O_R   0.787500 0.044280 0.330990 -0.511688
O37   O     O_R   0.212500 0.044280 0.669010 -0.513117
O38   O     O_R   0.287500 0.544280 0.330990 -0.512824
O39   O     O_R   0.712500 0.544280 0.669010 -0.511250
O40   O     O_R   0.765610 0.293630 0.323860 -0.510382
O41   O     O_R   0.234390 0.293630 0.676140 -0.511965
O42   O     O_R   0.265610 0.793630 0.323860 -0.512343
O43   O     O_R   0.734390 0.793630 0.676140 -0.511387
O44   O     O_R   0.670140 0.410570 0.329080 -0.518802
O45   O     O_R   0.556540 0.252920 0.323970 -0.494858
O46   O     O_R   0.329860 0.410570 0.670920 -0.517363
O47   O     O_R   0.170140 0.910570 0.329080 -0.520967
O48   O     O_R   0.829860 0.910570 0.670920 -0.520443
O49   O     O_R   0.443460 0.252920 0.676030 -0.490464
O50   O     O_R   0.056540 0.752920 0.323970 -0.496867
O51   O     O_R   0.943460 0.752920 0.676030 -0.497745
O52   O     O_R   0.545870 0.051100 0.330840 -0.524301

loop_
_geom_bond_atom_site_label_1
_geom_bond_atom_site_label_2
_ccdc_geom_bond_type
Cr1   O14   S    
C54   C58   A    
Cr11  O51   S    
C44   C91   S    
Cr7   O39   S    
C76   C93   S    
Cr10  O25   S    
C47   O29   A    
C10   C14   A    
C29   I6    S    
C86   O46   A    
C50   I1    S    
C74   H11   S    
C17   O19   A    
Cr12  O31   S    
C55   C77   A    
C44   C53   A    
C9    C61   A    
C11   C15   A    
C53   H35   S    
C52   H33   S    
C82   O23   A    
C68   C73   A    
C17   C21   S    
C58   C63   A    
C34   C82   S    
C89   O52   A    
Cr3   O7    S    
C2    C94   A    
C33   C81   S    
C12   C16   A    
C56   H38   S    
C57   H39   S    
C10   C32   A    
C28   O20   A    
Cr7   O17   S    
C4    H1    S    
C92   O4    A    
C85   O40   A    
C102  C103  A    
C39   O17   A    
C72   C94   A    
Cr7   O34   S    
C23   H22   S    
C19   C39   S    
C52   C53   A    
C13   C35   A    
C14   H18   S    
C38   H29   S    
C11   C33   A    
C87   O47   A    
C97   O39   A    
C7    H34   S    
C6    C101  A    
C71   H9    S    
C56   C78   A    
C57   C62   A    
C3    C83   A    
C27   I5    S    
C5    C98   A    
C75   C79   A    
C42   C51   A    
C66   C70   A    
C35   C84   S    
C69   C74   A    
C3    C101  A    
C65   C69   A    
C7    C100  A    
C24   H24   S    
C19   C23   A    
C46   O24   A    
C71   C76   A    
C88   O48   A    
Cr3   O3    S    
C40   C43   A    
C54   C76   A    
C6    H23   S    
Cr10  O11   S    
C49   C51   A    
Cr5   O10   S    
C41   C49   A    
Cr11  O48   S    
C72   C104  A    
C8    C50   A    
Cr8   O9    S    
Cr3   O11   S    
Cr3   O33   S    
C38   C40   A    
C1    O18   A    
C87   O42   A    
C41   C90   S    
Cr4   O30   S    
Cr7   O13   S    
Cr1   O1    S    
C26   H26   S    
C85   O44   A    
C27   C32   A    
Cr2   O6    S    
C80   O31   A    
C21   C25   A    
C75   H13   S    
C70   H8    S    
Cr12  O27   S    
C93   O5    A    
C50   C102  A    
C23   C27   A    
C14   C19   A    
C20   C24   A    
C51   H32   S    
C48   O26   A    
C80   O1    A    
Cr9   O19   S    
C43   C92   S    
Cr10  O20   S    
C4    C5    A    
C45   O22   A    
C45   O27   A    
C12   C34   A    
C69   H7    S    
Cr8   O18   S    
C25   C30   A    
C90   O49   A    
C29   C33   A    
C2    C83   A    
Cr6   O38   S    
C68   H6    S    
C64   C68   A    
Cr5   O15   S    
Cr5   O37   S    
C61   I2    S    
Cr1   O40   S    
C31   C35   A    
Cr12  O9    S    
C20   C28   S    
Cr10  O50   S    
C2    H15   S    
Cr9   O24   S    
C74   C78   A    
C81   O32   A    
C73   C77   A    
C64   C87   S    
Cr12  O52   S    
C96   O7    A    
C31   I8    S    
C38   C44   A    
C60   C65   A    
Cr9   O49   S    
Br2   C11   S    
C82   O33   A    
Cr10  O47   S    
C54   H36   S    
Br4   C13   S    
C26   C31   A    
C36   C37   A    
Cr4   O8    S    
C95   O37   A    
C24   C29   A    
C46   C98   S    
C70   C75   A    
C8    H16   S    
C62   H4    S    
C58   H40   S    
C89   O45   A    
C66   C85   S    
C48   O30   A    
C36   C42   A    
C93   O36   A    
C65   C86   S    
C92   O51   A    
Cr2   O2    S    
C1    O14   A    
C100  C104  A    
C59   H2    S    
Cr9   O10   S    
C5    H12   S    
C17   O15   A    
Cr8   O22   S    
C59   C64   A    
C48   C100  S    
C96   O38   A    
Cr6   O23   S    
C79   C97   S    
C36   H27   S    
C95   O6    A    
C30   C34   A    
C78   C96   S    
C28   O16   A    
Cr1   O36   S    
Cr11  O21   S    
Cr8   O45   S    
C97   O8    A    
C94   H14   S    
C45   C99   S    
C86   O41   A    
C91   O50   A    
Cr11  O13   S    
Cr4   O13   S    
C57   C79   A    
C60   H3    S    
C77   C95   S    
C62   C66   A    
C55   C59   A    
C13   C18   A    
Cr2   O32   S    
Cr7   O43   S    
C56   C60   A    
Cr11  O26   S    
C16   H20   S    
C15   C20   A    
Cr5   O41   S    
Cr8   O44   S    
C47   O25   A    
C37   C41   A    
C90   O2    A    
C67   C71   A    
C55   H37   S    
Cr6   O42   S    
Cr4   O4    S    
C42   C89   S    
C32   C80   S    
C81   O12   A    
Cr6   O16   S    
C18   H21   S    
C63   C88   S    
C83   I4    S    
Cr2   O28   S    
C63   C67   A    
C73   H10   S    
C84   O35   A    
Cr9   O46   S    
C4    C99   A    
C40   H30   S    
C47   C101  S    
C6    C7    A    
C88   O43   A    
C18   C22   A    
C1    C22   S    
Cr1   O9    S    
Cr12  O5    S    
Cr5   O12   S    
C8    C9    A    
C39   O21   A    
C15   H19   S    
Cr6   O11   S    
C16   C21   A    
C98   C102  A    
C46   O28   A    
C49   H31   S    
Cr2   O10   S    
C3    C104  A    
C67   H5    S    
C72   I3    S    
C99   C103  A    
Br1   C10   S    
Cr4   O35   S    
C84   O34   A    
C91   O3    A    
C61   C103  A    
Cr3   O29   S    
Br3   C12   S    
C30   I7    S    
C25   H25   S    
C9    H17   S    
C43   C52   A    
C22   C26   A    
C37   H28   S    
