data_mof_unit_27195.cif
_audit_creation_date              2012-12-10T18:56:23-0500
_audit_creation_method            fapswitch 2.2
_symmetry_space_group_name_H-M    P1
_symmetry_Int_Tables_number       1
_space_group_crystal_system       triclinic
_cell_length_a                    10.714768
_cell_length_b                    9.89411
_cell_length_c                    19.150933
_cell_angle_alpha                 90.029995
_cell_angle_beta                  91.103272
_cell_angle_gamma                 90.030427
_cell_volume                      2029.87269035

loop_
_atom_site_label
_atom_site_type_symbol
_atom_type_description
_atom_site_fract_x
_atom_site_fract_y
_atom_site_fract_z
_atom_type_partial_charge
C1    C     C_R   0.872392 0.500594 0.501147 -0.011316
C2    C     C_R   0.127478 0.500025 0.502471 0.000207
C3    C     C_R   0.450668 0.611793 0.961088 -0.185240
C4    C     C_R   0.367938 0.385610 0.034600 -0.187427
C5    C     C_R   0.455007 0.612422 0.033308 -0.183770
C6    C     C_R   0.365054 0.384443 0.962034 -0.188612
C7    C     C_R   0.415542 0.498619 0.070535 0.110935
C8    C     C_R   0.408258 0.496881 0.925283 0.106817
C9    C     C_R   0.260036 0.500010 0.500914 0.823476
C10   C     C_R   0.739920 0.500159 0.500271 0.858078
C11   C     C_R   0.497657 0.499901 0.365519 0.836460
C12   C     C_R   0.496746 0.499803 0.634224 0.857920
C13   C     C_R   0.063023 0.380848 0.486899 -0.208965
C14   C     C_R   0.936504 0.619430 0.518442 -0.183855
C15   C     C_R   0.935405 0.381603 0.485147 -0.212183
C16   C     C_R   0.064580 0.619193 0.518943 -0.218616
C17   C     C_R   0.513687 0.388051 0.749261 -0.188189
C18   C     C_R   0.433972 0.615165 0.256328 -0.193129
C19   C     C_R   0.502164 0.381580 0.251512 -0.166742
C20   C     C_R   0.404804 0.602551 0.738306 -0.216989
C21   C     C_R   0.486997 0.384608 0.819869 -0.182775
C22   C     C_R   0.408342 0.613015 0.185267 -0.189211
C23   C     C_R   0.478635 0.380116 0.179934 -0.182013
C24   C     C_R   0.378791 0.599559 0.808847 -0.183990
C25   C     C_R   0.421021 0.491377 0.849931 0.121210
C26   C     C_R   0.431753 0.496090 0.146456 0.117896
C27   C     C_R   0.561318 0.072921 0.551743 0.357572
C28   C     C_R   0.443377 0.928021 0.446695 0.377575
C29   C     C_R   0.445061 0.071954 0.446099 0.366984
C30   C     C_R   0.557136 0.927710 0.553423 0.349787
C31   C     C_R   0.474648 0.498422 0.708631 -0.030073
C32   C     C_R   0.480613 0.499572 0.289957 -0.049235
H1    H     H_    0.110492 0.287632 0.475345 0.137746
H2    H     H_    0.888096 0.711808 0.531730 0.168243
H3    H     H_    0.886560 0.289785 0.470597 0.145636
H4    H     H_    0.113905 0.711335 0.532613 0.142840
H5    H     H_    0.565973 0.305761 0.726633 0.177262
H6    H     H_    0.414929 0.706676 0.284860 0.211590
H7    H     H_    0.537973 0.291093 0.276597 0.186124
H8    H     H_    0.368886 0.685110 0.706814 0.142254
H9    H     H_    0.521365 0.301265 0.851458 0.130736
H10   H     H_    0.370442 0.702974 0.160620 0.133514
H11   H     H_    0.499545 0.289523 0.150644 0.132017
H12   H     H_    0.326815 0.681956 0.831597 0.130191
H13   H     H_    0.486301 0.698396 0.933143 0.130912
H14   H     H_    0.335407 0.297654 0.062559 0.130420
H15   H     H_    0.494399 0.699666 0.059867 0.132119
H16   H     H_    0.331650 0.295357 0.934567 0.131263
N1    N     N_R   0.500000 0.857200 0.500000 -0.198679
N2    N     N_R   0.500000 0.142800 0.500000 -0.199116
O1    O     O_R   0.316770 0.614620 0.500000 -0.632778
O2    O     O_R   0.683230 0.385380 0.500000 -0.605220
O3    O     O_R   0.683230 0.614620 0.500000 -0.593176
O4    O     O_R   0.316770 0.385380 0.500000 -0.627408
O5    O     O_R   0.500030 0.614710 0.398180 -0.568635
O6    O     O_R   0.499970 0.385290 0.601820 -0.566792
O7    O     O_R   0.499970 0.614710 0.601820 -0.576328
O8    O     O_R   0.500030 0.385290 0.398180 -0.570704
Zn1   Zn    Zn3+2 0.500000 0.653120 0.500000 1.005654
Zn2   Zn    Zn3+2 0.500000 0.346880 0.500000 1.004380
O9    O     O_3   0.628726 0.145456 0.601264 -0.579009
C33   C     C_3   0.757626 0.127191 0.590390 -0.251445
H17   H     H_    0.808675 0.214018 0.613973 0.176783
H18   H     H_    0.781578 0.123417 0.534060 0.134728
H19   H     H_    0.791664 0.034208 0.616936 0.179274
O10   O     O_3   0.395768 0.859505 0.389383 -0.566983
C34   C     C_3   0.267136 0.833420 0.397661 -0.234711
H20   H     H_    0.248767 0.725586 0.385456 0.183160
H21   H     H_    0.212457 0.892584 0.358721 0.142680
H22   H     H_    0.230832 0.855171 0.450742 0.115124
O11   O     O_3   0.409978 0.139219 0.385699 -0.557494
C35   C     C_3   0.280033 0.162121 0.383538 -0.197626
H23   H     H_    0.262729 0.272499 0.382684 0.178305
H24   H     H_    0.227560 0.115983 0.427272 0.087875
H25   H     H_    0.241367 0.121777 0.333616 0.155372
O12   O     O_3   0.618799 0.855747 0.605535 -0.566929
C36   C     C_3   0.566287 0.884561 0.671016 -0.246513
H26   H     H_    0.590399 0.800911 0.707314 0.179933
H27   H     H_    0.462555 0.892669 0.668296 0.125223
H28   H     H_    0.607205 0.977583 0.694226 0.185601

loop_
_geom_bond_atom_site_label_1
_geom_bond_atom_site_label_2
_ccdc_geom_bond_type
O5    Zn1   S    
C28   O10   S    
C9    O1    A    
C10   O2    A    
O3    Zn1   S    
O4    Zn2   S    
C36   H26   S    
C5    H15   S    
C7    C26   S    
C6    H16   S    
C28   C29   A    
C35   H25   S    
C4    H14   S    
O7    Zn1   S    
O8    Zn2   S    
C23   H11   S    
C23   C26   A    
C10   O3    A    
C2    C13   A    
C33   H18   S    
O2    Zn2   S    
C20   C24   A    
C1    C15   A    
C11   O8    A    
C2    C16   A    
C27   N2    A    
O10   C34   S    
C27   C30   A    
C8    C25   S    
C4    C7    A    
C19   C32   A    
C15   H3    S    
C29   N2    A    
C36   H27   S    
C34   H20   S    
O12   C36   S    
C35   H24   S    
C3    C8    A    
C5    C7    A    
C6    C8    A    
C3    H13   S    
C17   C21   A    
O6    Zn2   S    
C34   H21   S    
C27   O9    S    
C19   C23   A    
C13   H1    S    
C33   H17   S    
C30   O12   S    
C28   N1    A    
C20   H8    S    
C17   H5    S    
C24   C25   A    
C12   O6    A    
C19   H7    S    
C21   H9    S    
C12   O7    A    
C4    C6    A    
C30   N1    A    
C11   C32   S    
C13   C15   A    
C12   C31   S    
C24   H12   S    
C14   C16   A    
O1    Zn1   S    
C11   O5    A    
C36   H28   S    
C21   C25   A    
C33   H19   S    
C18   C22   A    
C1    C10   S    
C35   H23   S    
C3    C5    A    
C14   H2    S    
C9    O4    A    
N1    Zn1   S    
C34   H22   S    
N2    Zn2   S    
C18   H6    S    
O11   C35   S    
C16   H4    S    
C22   H10   S    
C17   C31   A    
O9    C33   S    
C18   C32   A    
C22   C26   A    
C1    C14   A    
C2    C9    S    
C29   O11   S    
C20   C31   A    
