data_mof_unit_40385.cif
_audit_creation_date              2013-03-05T15:48:22-0500
_audit_creation_method            fapswitch 2.2
_symmetry_space_group_name_H-M    P1
_symmetry_Int_Tables_number       1
_space_group_crystal_system       triclinic
_cell_length_a                    8.386977
_cell_length_b                    19.222231
_cell_length_c                    19.075711
_cell_angle_alpha                 98.367234
_cell_angle_beta                  94.797739
_cell_angle_gamma                 91.961307
_cell_volume                      3028.56324413

loop_
_atom_site_label
_atom_site_type_symbol
_atom_site_description
_atom_site_fract_x
_atom_site_fract_y
_atom_site_fract_z
_atom_type_partial_charge
P1    P     P_3+3 0.945400 0.662120 0.569160 0.491648
O1    O     O_2   0.116570 0.673370 0.549300 -0.360128
O2    O     O_3   0.869340 0.584760 0.542960 -0.370239
O3    O     O_3   0.352540 0.630870 0.419750 -0.376226
O4    O     O_2   0.263893 0.754167 0.470637 -0.451824
O5    O     O_3   0.962395 0.682497 0.662244 -0.566770
O6    O     O_3   0.321999 0.744634 0.335055 -0.565048
H1    H     H_    0.316403 0.639270 0.288533 0.059361
C1    C     C_3   0.277258 0.704055 0.207720 -0.801799
H2    H     H_    0.145378 0.698381 0.206595 0.274632
H3    H     H_    0.312036 0.756880 0.195664 0.293625
P2    P     P_3+3 0.355390 0.445380 0.336430 0.494176
P3    P     P_3+3 0.909644 0.593509 0.289623 0.489939
O7    O     O_2   0.181320 0.466870 0.327560 -0.411970
O8    O     O_3   0.937730 0.595370 0.381630 -0.386882
O9    O     O_2   0.054018 0.558618 0.255670 -0.440031
O10   O     O_3   0.347599 0.355325 0.300074 -0.598705
O11   O     O_3   0.915082 0.680678 0.271011 -0.486044
C2    C     C_3   0.940377 0.728903 0.334685 0.360710
H4    H     H_    0.063562 0.727804 0.357443 0.127335
H5    H     H_    0.866580 0.715770 0.376631 0.082225
C3    C     C_3   0.902145 0.803889 0.322053 -0.072058
H6    H     H_    0.952226 0.842145 0.368698 0.053867
C4    C     C_3   0.800964 0.382658 0.308735 0.337021
H7    H     H_    0.669573 0.386495 0.306507 0.093496
H8    H     H_    0.859973 0.431428 0.339463 0.038209
C5    C     C_3   0.854165 0.377397 0.233673 0.085574
H9    H     H_    0.839389 0.428507 0.214500 0.035101
H10   H     H_    0.983830 0.367233 0.235329 0.082876
Ba1   Ba    Ba6+2 0.152000 0.534910 0.469330 1.618361
C6    C     C_3   0.010724 0.624779 0.693758 0.445026
H11   H     H_    0.132719 0.611965 0.679874 0.097209
H12   H     H_    0.924013 0.579297 0.677419 0.143099
C7    C     C_3   0.014499 0.644340 0.774066 -0.993924
H13   H     H_    0.102509 0.688995 0.792940 0.275990
H14   H     H_    0.049460 0.598890 0.800614 0.223685
H15   H     H_    0.893954 0.659721 0.788999 0.275581
C8    C     C_3   0.249136 0.313466 0.334430 0.804223
H16   H     H_    0.149021 0.342913 0.356781 -0.010344
C9    C     C_3   0.176601 0.250268 0.281314 -0.949903
H17   H     H_    0.090141 0.267301 0.240965 0.227422
H18   H     H_    0.112461 0.212452 0.309520 0.235530
H19   H     H_    0.272699 0.222752 0.253070 0.280204
P4    P     P_3+3 0.864900 0.337880 0.430780 0.525864
O12   O     O_2   0.693730 0.326590 0.450680 -0.256633
O13   O     O_3   0.940960 0.415230 0.456980 -0.372199
O14   O     O_3   0.457750 0.369120 0.580200 -0.257243
O15   O     O_3   0.841818 0.321723 0.337318 -0.560105
P5    P     P_3+3 0.896571 0.410370 0.712977 0.521770
O16   O     O_3   0.373690 0.535540 0.586160 -0.343464
O17   O     O_3   0.872560 0.404620 0.618320 -0.294408
O18   O     O_2   0.763852 0.455853 0.743751 -0.368672
O19   O     O_3   0.844823 0.329116 0.737549 -0.533569
Ba2   Ba    Ba6+2 0.658180 0.465080 0.530610 1.682851
P6    P     P_3+3 0.381854 0.720851 0.419362 0.444127
C10   C     C_3   0.360040 0.692264 0.279615 0.775739
H20   H     H_    0.314939 0.664204 0.164746 0.196816
O20   O     O_3   0.436600 0.464450 0.413780 -0.344232
C11   C     C_3   0.512159 0.679768 0.638075 0.421224
H21   H     H_    0.630884 0.661980 0.623325 0.082312
H22   H     H_    0.420559 0.665223 0.592139 0.126736
C12   C     C_3   0.521407 0.759622 0.656683 -0.962265
H23   H     H_    0.615180 0.776709 0.701062 0.274130
H24   H     H_    0.551502 0.783888 0.610038 0.210918
H25   H     H_    0.404155 0.778314 0.672590 0.268756
P7    P     P_3+3 0.453018 0.558857 0.675539 0.474663
O21   O     O_2   0.628980 0.533090 0.672420 -0.358932
O22   O     O_3   0.470468 0.650559 0.697584 -0.567724
H26   H     H_    0.770314 0.808411 0.317137 0.158261
C13   C     C_3   0.910819 0.275278 0.693040 0.278118
H27   H     H_    0.862492 0.274456 0.636703 0.103434
H28   H     H_    0.042676 0.284022 0.696768 0.033011
C14   C     C_3   0.864549 0.204414 0.716139 -0.102679
H29   H     H_    0.777010 0.174282 0.674835 0.120766
H30   H     H_    0.804609 0.212521 0.766325 0.164893
P8    P     P_3+3 0.427220 0.279451 0.580897 0.516982
C15   C     C_3   0.405956 0.283812 0.714525 0.406079
H31   H     H_    0.291466 0.251868 0.703652 0.073379
O23   O     O_2   0.540918 0.248136 0.526736 -0.365278
O24   O     O_3   0.510115 0.260519 0.662841 -0.532860
H32   H     H_    0.383905 0.341075 0.716020 0.092679
H33   H     H_    0.392046 0.286209 0.827886 0.228333
C16   C     C_3   0.479429 0.272632 0.787651 -0.874893
H34   H     H_    0.590340 0.306901 0.803122 0.273227
H35   H     H_    0.508306 0.216245 0.786710 0.259164
C17   C     C_R   0.934912 0.196790 0.468280 -0.283486
H36   H     H_    0.835672 0.175897 0.430535 0.175635
C18   C     C_R   0.981957 0.269109 0.471547 0.173155
C19   C     C_R   0.143275 0.187720 0.561782 -0.406817
H37   H     H_    0.186575 0.168042 0.609358 0.178758
C20   C     C_R   0.216952 0.249980 0.547597 0.248029
C21   C     C_R   0.654656 0.815918 0.448989 -0.381247
H38   H     H_    0.604924 0.841099 0.405745 0.164307
C22   C     C_R   0.587634 0.749783 0.455498 0.373790
C23   C     C_R   0.860634 0.801039 0.540667 -0.295700
H39   H     H_    0.953866 0.820513 0.582108 0.168461
C24   C     C_R   0.823174 0.727484 0.528178 0.257031
C25   C     C_R   0.012981 0.153619 0.515999 0.109227
C26   C     C_R   0.130254 0.290917 0.504918 -0.231565
H40   H     H_    0.175288 0.342244 0.498302 0.199673
C27   C     C_R   0.784193 0.847434 0.496805 0.060429
C28   C     C_R   0.679838 0.703592 0.489113 -0.429579
H41   H     H_    0.637731 0.649385 0.486497 0.158006
C29   C     C_R   0.224613 0.033519 0.560387 -0.095271
C30   C     C_R   0.318970 0.979963 0.579385 -0.101280
C31   C     C_R   0.270560 0.910989 0.554630 -0.106819
C32   C     C_R   0.121742 0.896451 0.517355 -0.158323
C33   C     C_R   0.006317 0.947671 0.517190 0.050762
C34   C     C_R   0.062367 0.020469 0.532013 0.127801
C35   C     C_R   0.841293 0.926166 0.499943 -0.043432
C36   C     C_R   0.734616 0.981515 0.489993 0.104368
C37   C     C_R   0.791285 0.054184 0.503100 0.050595
C38   C     C_R   0.956519 0.075627 0.518666 -0.016092
C39   C     C_R   0.569445 0.968218 0.467721 -0.169103
C40   C     C_R   0.472205 0.020968 0.449782 -0.118470
C41   C     C_R   0.522478 0.090084 0.471875 -0.057610
C42   C     C_R   0.676115 0.105516 0.504604 -0.156039
H42   H     H_    0.289631 0.082465 0.565621 0.116926
H43   H     H_    0.438912 0.992174 0.604849 0.140333
H44   H     H_    0.351844 0.869383 0.560764 0.150802
H45   H     H_    0.094422 0.844366 0.489951 0.177195
H46   H     H_    0.505655 0.919539 0.467685 0.144180
H47   H     H_    0.349729 0.008287 0.427811 0.149285
H48   H     H_    0.438470 0.130767 0.467215 0.181486
H49   H     H_    0.707482 0.157879 0.530758 0.174190
C43   C     C_R   0.617463 0.523036 0.300971 -0.457634
C44   C     C_R   0.464567 0.493617 0.277369 0.302788
C45   C     C_R   0.409674 0.489045 0.205370 -0.258541
C46   C     C_R   0.506298 0.514911 0.156995 -0.000736
C47   C     C_R   0.660486 0.544530 0.181850 -0.239352
C48   C     C_R   0.716534 0.547879 0.253580 0.351387
C49   C     C_R   0.472955 0.566857 0.043480 -0.168588
C50   C     C_R   0.418723 0.562153 0.971482 -0.163669
C51   C     C_R   0.337867 0.500481 0.934720 0.174881
C52   C     C_R   0.310754 0.443967 0.972197 -0.174398
C53   C     C_R   0.364430 0.448795 0.044309 -0.180993
C54   C     C_R   0.447059 0.510141 0.080664 0.162876
C55   C     C_R   0.137884 0.459337 0.828704 -0.328548
C56   C     C_R   0.093108 0.451456 0.755311 0.133288
C57   C     C_R   0.339169 0.515769 0.738154 0.141248
C58   C     C_R   0.384654 0.523768 0.811217 -0.273444
C59   C     C_R   0.286006 0.494411 0.857276 0.041485
C60   C     C_R   0.196841 0.478308 0.711504 -0.012578
H50   H     H_    0.497247 0.551664 0.831573 0.158478
H51   H     H_    0.439121 0.607164 0.944719 0.135497
H52   H     H_    0.533669 0.615269 0.070352 0.161814
H53   H     H_    0.292369 0.464647 0.187083 0.147671
H54   H     H_    0.251269 0.395291 0.945372 0.128628
H55   H     H_    0.344294 0.403870 0.071276 0.121208
H56   H     H_    0.057700 0.438835 0.863188 0.164826
H57   H     H_    0.737142 0.564766 0.145793 0.150949
H58   H     H_    0.660862 0.525977 0.356420 0.164977
O25   O     O_3   0.759905 0.324879 0.187475 -0.600503
C61   C     C_3   0.824916 0.313048 0.120871 0.235169
H59   H     H_    0.924442 0.276522 0.124134 0.110561
H60   H     H_    0.872176 0.362561 0.104271 0.073726
C62   C     C_3   0.694049 0.279769 0.063935 -0.262465
H61   H     H_    0.643446 0.230812 0.079861 0.223857
H62   H     H_    0.595688 0.316815 0.059771 0.197873
C63   C     C_3   0.759354 0.262125 0.991139 -0.956092
H63   H     H_    0.811861 0.310266 0.974181 0.262898
H64   H     H_    0.660285 0.239816 0.950733 0.279008
H65   H     H_    0.853008 0.222718 0.993532 0.277656
N1    N     N_R   0.348425 0.289599 0.391143 0.192802
O26   O     O_R   0.404758 0.337852 0.442398 -0.351757
O27   O     O_R   0.420608 0.230532 0.380758 -0.404100
N2    N     N_R   0.533013 0.693064 0.276481 0.193543
O28   O     O_R   0.603671 0.716996 0.225929 -0.384463
O29   O     O_R   0.617329 0.667881 0.325864 -0.517780
N3    N     N_R   0.004620 0.163191 0.727352 0.235656
O30   O     O_R   0.103155 0.180791 0.784025 -0.398711
O31   O     O_R   0.014296 0.102124 0.689019 -0.404787
N4    N     N_R   0.166156 0.459239 0.637625 0.245604
O32   O     O_R   0.078131 0.497463 0.600750 -0.352293
O33   O     O_R   0.177405 0.393550 0.613810 -0.487592
N5    N     N_R   0.966271 0.822245 0.258055 0.292333
O34   O     O_R   0.118884 0.836543 0.257653 -0.365223
O35   O     O_R   0.869023 0.833197 0.204369 -0.305338

loop_
_geom_bond_atom_site_label_1
_geom_bond_atom_site_label_2
_geom_bond_distance
_ccdc_geom_bond_type
C5    O25   1.410900 S    
P7    O22   1.749785 S    
C62   H61   1.111512 S    
C5    H10   1.110140 S    
C7    H15   1.111224 S    
C14   H29   1.112032 S    
C2    H4    1.088784 S    
C4    C5    1.525560 S    
O6    P6    1.772577 S    
C45   C46   1.409442 A    
H1    C10   1.111713 S    
C39   C40   1.386097 A    
C52   C53   1.399966 A    
N2    O29   1.290933 A    
P2    C44   1.840096 S    
C15   H31   1.109666 S    
C55   H56   1.082401 S    
Ba1   Ba2   4.605161 S    
O16   Ba2   2.979388 S    
P3    O11   1.762466 S    
N1    O26   1.291634 A    
C2    H5    1.103619 S    
C4    H8    1.107762 S    
O14   P8    1.736007 S    
C7    H13   1.110635 S    
C29   C34   1.421778 A    
O2    Ba2   2.824518 S    
C17   C18   1.423096 A    
C31   C32   1.382517 A    
C15   C16   1.524551 S    
C40   C41   1.374571 A    
C33   C34   1.441052 A    
P1    O1    1.531276 D    
C35   C36   1.436667 A    
C21   H38   1.077581 S    
C12   H24   1.106036 S    
C36   C37   1.439665 A    
C56   C60   1.392148 A    
C9    H19   1.112874 S    
O25   C61   1.415457 S    
C6    H11   1.105114 S    
C49   C50   1.399235 A    
P5    O17   1.786816 S    
P2    O10   1.765527 S    
C32   C33   1.404338 A    
P8    O23   1.536939 D    
C13   H27   1.114090 S    
C19   C20   1.399624 A    
C1    H2    1.105825 S    
C3    H26   1.109255 S    
C61   H60   1.116279 S    
C24   C28   1.387146 A    
C34   C38   1.443009 A    
C31   H44   1.081328 S    
C8    N1    1.447140 S    
P7    O21   1.575739 D    
Ba1   O16   2.778733 S    
C11   H21   1.108947 S    
C62   H62   1.113395 S    
C14   H30   1.111732 S    
C43   H58   1.082248 S    
O6    C10   1.414981 S    
O7    Ba1   2.861552 S    
P6    C22   1.840329 S    
O19   C13   1.400110 S    
C21   C22   1.398638 A    
C29   C30   1.390589 A    
P4    O13   1.591505 S    
C53   H55   1.082930 S    
C29   H42   1.058757 S    
N4    O33   1.287649 A    
C8    H16   1.108789 S    
C11   H22   1.112482 S    
C40   H47   1.082277 S    
P1    O5    1.754447 S    
C4    O15   1.403136 S    
C63   H65   1.112480 S    
C2    C3    1.535672 S    
C57   C58   1.398693 A    
C61   C62   1.530958 S    
C55   C59   1.420345 A    
C58   H50   1.083252 S    
P1    C24   1.865637 S    
N2    O28   1.303370 A    
C17   H36   1.079433 S    
O11   C2    1.412577 S    
C25   C38   1.565885 S    
Ba2   O21   2.861857 S    
C27   C35   1.562859 S    
N4    O32   1.296286 A    
P1    O2    1.591673 S    
C63   H64   1.113839 S    
O2    Ba1   2.971829 S    
C12   H23   1.110463 S    
P4    Ba2   3.478228 S    
C11   O22   1.401622 S    
C51   C59   1.491348 S    
C1    H3    1.108128 S    
C16   H34   1.114385 S    
P3    O8    1.746181 S    
C15   H32   1.119051 S    
P5    O18   1.540956 D    
O13   Ba2   2.972684 S    
C13   C14   1.538623 S    
C6    H12   1.108883 S    
P3    C48   1.845584 S    
C6    C7    1.520734 S    
C46   C54   1.487411 S    
C1    C10   1.535013 S    
C4    H7    1.104638 S    
C57   C60   1.391036 A    
O16   P7    1.765756 S    
C61   H59   1.112535 S    
C21   C27   1.416929 A    
O14   Ba2   2.772113 S    
N5    O34   1.300793 A    
C16   H35   1.116608 S    
P2    O7    1.533278 D    
O12   Ba2   2.906798 S    
C52   H54   1.082677 S    
C62   C63   1.531731 S    
P5    C56   1.869635 S    
O3    P6    1.739846 S    
C50   C51   1.407295 A    
C50   H51   1.082355 S    
C60   N4    1.403301 S    
C44   C45   1.400826 A    
C47   H57   1.082791 S    
P4    O12   1.531650 D    
O8    Ba1   2.754047 S    
C46   C47   1.410579 A    
Ba2   O20   2.778179 S    
C15   O24   1.406417 S    
C9    H17   1.105294 S    
C11   C12   1.522100 S    
C41   H48   1.078598 S    
C12   H25   1.109323 S    
P2    Ba1   3.457341 S    
O4    P6    1.539002 D    
P8    O24   1.749351 S    
C53   C54   1.406200 A    
C3    N5    1.458197 S    
C23   C24   1.419011 A    
C45   H53   1.083031 S    
C51   C52   1.406832 A    
C30   C31   1.376422 A    
C26   H40   1.072715 S    
Ba1   O13   2.823920 S    
C19   C25   1.418194 A    
O1    Ba1   2.906437 S    
O17   Ba2   2.754730 S    
C49   H52   1.083114 S    
C63   H63   1.112632 S    
N1    O27   1.302506 A    
C47   C48   1.400727 A    
C14   N3    1.457640 S    
P2    O20   1.559740 S    
P4    O15   1.757691 S    
C58   C59   1.417342 A    
C8    C9    1.536412 S    
C37   C42   1.403247 A    
N3    O31   1.298396 A    
C43   C48   1.399949 A    
C43   C44   1.395193 A    
P5    O19   1.745930 S    
Ba1   O20   2.980170 S    
C10   N2    1.456589 S    
C9    H18   1.114785 S    
P1    Ba1   3.477780 S    
C7    H14   1.107773 S    
C33   C35   1.428221 A    
C41   C42   1.386906 A    
O5    C6    1.393103 S    
C36   C39   1.417941 A    
C1    H20   1.111671 S    
O10   C8    1.399064 S    
C28   H41   1.081501 S    
C17   C25   1.450270 A    
C18   C26   1.371896 A    
C55   C56   1.403724 A    
P8    C20   1.863842 S    
C39   H46   1.061742 S    
C37   C38   1.426529 A    
P7    C57   1.857138 S    
C22   C28   1.388283 A    
H33   C16   1.114979 S    
N3    O30   1.300425 A    
P3    O9    1.547843 D    
C23   H39   1.080232 S    
C32   H45   1.067760 S    
C3    H6    1.111218 S    
C30   H43   1.082543 S    
C13   H28   1.107673 S    
C49   C54   1.404801 A    
C20   C26   1.391868 A    
C19   H37   1.073672 S    
P4    C18   1.891140 S    
C42   H49   1.070035 S    
O3    Ba1   2.772587 S    
C23   C27   1.439786 A    
N5    O35   1.301201 A    
C5    H9    1.104385 S    
