data_mof_unit_38217.cif
_audit_creation_date              2012-12-11T17:06:35-0500
_audit_creation_method            fapswitch 2.2
_symmetry_space_group_name_H-M    P1
_symmetry_Int_Tables_number       1
_space_group_crystal_system       triclinic
_cell_length_a                    6.984147
_cell_length_b                    14.505456
_cell_length_c                    15.975731
_cell_angle_alpha                 90.401841
_cell_angle_beta                  89.906573
_cell_angle_gamma                 89.887332
_cell_volume                      1618.42802017

loop_
_atom_site_label
_atom_site_type_symbol
_atom_type_description
_atom_site_fract_x
_atom_site_fract_y
_atom_site_fract_z
_atom_type_partial_charge
O1    O     O_R   0.494400 0.415450 0.412630 -0.542294
O2    O     O_R   0.823940 0.405730 0.586760 -0.530022
O3    O     O_R   0.994240 0.584550 0.587370 -0.522119
C1    C     C_R   0.655215 0.383548 0.615150 0.747390
O4    O     O_R   0.824110 0.404430 0.413240 -0.555644
O5    O     O_R   0.994420 0.583240 0.412620 -0.551930
C2    C     C_R   0.655275 0.380997 0.385384 0.693222
O6    O     O_R   0.494230 0.416760 0.587380 -0.541148
O7    O     O_3   0.660800 0.558670 0.500000 -0.372185
V1    V     V_3+5 0.935650 0.489120 0.500000 1.424745
O8    O     O_R   0.324140 0.594270 0.413240 -0.533610
C3    C     C_R   0.154660 0.618394 0.386330 0.665353
O9    O     O_R   0.323960 0.595570 0.586760 -0.545578
C4    C     C_R   0.155024 0.617204 0.615786 0.732586
V2    V     V_3+5 0.435660 0.510880 0.500000 1.434207
O10   O     O_3   0.160640 0.441330 0.500000 -0.383475
C5    C     C_3   0.053091 0.669224 0.772817 0.053204
C6    C     C_3   0.225669 0.715339 0.816285 -0.207539
H1    H     H_    0.301613 0.688761 0.872174 0.104066
C7    C     C_3   0.121419 0.808803 0.810533 -0.016325
C8    C     C_3   0.947514 0.762549 0.768353 -0.176874
C9    C     C_3   0.039796 0.779772 0.681347 -0.158797
C10   C     C_3   0.213169 0.826986 0.724395 -0.116929
C11   C     C_3   0.317430 0.732658 0.729166 -0.124826
C12   C     C_3   0.143979 0.686103 0.686624 -0.020369
H2    H     H_    0.794895 0.774564 0.784749 0.113041
H3    H     H_    0.963545 0.806186 0.625481 0.120317
H4    H     H_    0.279510 0.892884 0.704753 0.111139
H5    H     H_    0.470015 0.720425 0.712882 0.119768
C13   C     C_R   0.251915 0.741554 0.182376 0.083243
C14   C     C_R   0.117216 0.812841 0.180699 -0.123096
C15   C     C_R   0.982182 0.816487 0.246242 -0.148598
H6    H     H_    0.874416 0.870338 0.245495 0.166501
C16   C     C_R   0.995428 0.756896 0.316327 -0.023862
C17   C     C_R   0.140956 0.687559 0.318313 -0.165120
C18   C     C_R   0.261315 0.679841 0.248302 0.095689
C19   C     C_3   0.474461 0.673969 0.242691 -0.392352
C20   C     C_3   0.463859 0.742316 0.170956 -0.375046
H7    H     H_    0.523863 0.604327 0.222656 0.151181
H8    H     H_    0.546207 0.701908 0.299308 0.216454
H9    H     H_    0.508011 0.712075 0.109777 0.152579
H10   H     H_    0.528703 0.810307 0.186360 0.207633
C21   C     C_R   0.491934 0.314815 0.740226 0.106953
C22   C     C_R   0.647600 0.317164 0.684945 -0.085135
C23   C     C_R   0.800021 0.255782 0.699851 -0.142235
H11   H     H_    0.923239 0.255071 0.658901 0.132663
C24   C     C_R   0.788797 0.190072 0.764071 -0.174751
H12   H     H_    0.904492 0.141103 0.771048 0.129197
C25   C     C_R   0.624430 0.183593 0.814974 -0.108915
C26   C     C_R   0.480428 0.249570 0.803606 0.101676
C27   C     C_3   0.271377 0.235942 0.789991 -0.414338
C28   C     C_3   0.283920 0.307329 0.721147 -0.397353
H13   H     H_    0.184696 0.259249 0.844614 0.181865
H14   H     H_    0.238503 0.165514 0.766285 0.169287
H15   H     H_    0.205289 0.372027 0.736097 0.213936
H16   H     H_    0.257683 0.278521 0.657521 0.174879
C29   C     C_R   0.475658 0.299156 0.271271 0.047387
C30   C     C_R   0.644854 0.312254 0.316328 -0.055590
C31   C     C_R   0.798703 0.253682 0.296649 -0.152486
H17   H     H_    0.922033 0.253496 0.336237 0.104444
C32   C     C_R   0.786762 0.189316 0.230428 -0.149279
H18   H     H_    0.901988 0.141987 0.218919 0.101566
C33   C     C_R   0.620037 0.179985 0.182780 -0.050929
C34   C     C_R   0.462623 0.233003 0.207337 0.056231
C35   C     C_3   0.269065 0.202084 0.235988 -0.236013
C36   C     C_3   0.281850 0.276299 0.304654 -0.247036
H19   H     H_    0.162179 0.218807 0.187170 0.094211
H20   H     H_    0.182645 0.335178 0.294434 0.094977
O11   O     O_R   0.771650 0.079500 0.908680 -0.541410
O12   O     O_R   0.441690 0.091800 0.082800 -0.531007
O13   O     O_R   0.271460 0.912980 0.083410 -0.524045
C37   C     C_R   0.609972 0.112667 0.112673 0.743537
O14   O     O_R   0.441930 0.090510 0.909280 -0.543076
O15   O     O_R   0.271690 0.911670 0.908660 -0.539591
C38   C     C_R   0.610939 0.112491 0.880693 0.690153
O16   O     O_R   0.771410 0.080810 0.083440 -0.550029
O17   O     O_3   0.605100 0.937580 0.996050 -0.371237
V3    V     V_3+5 0.330220 0.007110 0.996030 1.427887
O18   O     O_R   0.941980 0.900620 0.909250 -0.544075
C39   C     C_R   0.110898 0.878655 0.880508 0.677864
O19   O     O_R   0.941740 0.901920 0.082770 -0.547867
C40   C     C_R   0.110392 0.880476 0.111788 0.713990
V4    V     V_3+5 0.830220 0.985300 0.996000 1.400371
O20   O     O_3   0.105210 0.054870 0.996020 -0.375108
C41   C     C_2   0.960788 0.582874 0.803976 0.298035
H21   H     H_    0.902491 0.581278 0.866903 0.043568
O21   O     O_2   0.950233 0.514458 0.759434 -0.543289
C42   C     C_2   0.253906 0.103587 0.268124 0.506181
H22   H     H_    0.128750 0.083695 0.303884 0.030444
O22   O     O_2   0.379794 0.046370 0.256827 -0.517010
C43   C     C_2   0.280431 0.243096 0.394789 0.420875
H23   H     H_    0.169345 0.267155 0.437115 0.042749
O23   O     O_2   0.400947 0.189202 0.420658 -0.518288
C44   C     C_2   0.869213 0.774678 0.389801 0.363965
H24   H     H_    0.894244 0.740549 0.448907 0.052049
O24   O     O_2   0.737240 0.829858 0.385924 -0.525430

loop_
_geom_bond_atom_site_label_1
_geom_bond_atom_site_label_2
_ccdc_geom_bond_type
C36   H20   S    
C8    H2    S    
O12   V3    S    
C17   C18   A    
C29   C36   S    
C37   O16   A    
O19   C40   A    
C24   C25   A    
O17   V3    S    
C14   C40   S    
C29   C34   A    
C5    C41   S    
C18   C19   S    
C20   H10   S    
C19   H8    S    
O5    C3    A    
C13   C14   A    
C21   C28   S    
O17   V4    S    
V2    O10   S    
C13   C20   S    
C16   C17   A    
C32   C33   A    
C11   H5    S    
O8    V2    S    
V4    O20   S    
C35   H19   S    
C9    C12   S    
O14   V3    S    
C25   C38   S    
O1    V2    S    
O7    V1    S    
C2    C30   S    
C28   H15   S    
C1    O6    A    
O13   C40   A    
C41   O21   D    
C31   H17   S    
O15   C39   A    
C8    C9    S    
O14   C38   A    
C44   H24   S    
O16   V4    S    
O19   V4    S    
C26   C27   S    
C23   C24   A    
C31   C32   A    
C7    C39   S    
C27   C28   S    
C11   C12   S    
C20   H9    S    
C43   H23   S    
O4    C2    A    
C6    H1    S    
C1    C22   S    
C30   C31   A    
C23   H11   S    
C5    C8    S    
O18   C39   A    
C27   H13   S    
C15   C16   A    
O2    C1    A    
C21   C22   A    
C19   C20   S    
O11   V4    S    
C43   O23   D    
C24   H12   S    
C7    C10   S    
C10   C11   S    
C7    C8    S    
C5    C6    S    
C10   H4    S    
C33   C37   S    
C3    C17   S    
C44   O24   D    
C41   H21   S    
O3    C4    A    
C42   O22   D    
C35   C36   S    
O6    V2    S    
C9    H3    S    
O9    V2    S    
C6    C11   S    
O2    V1    S    
C22   C23   A    
C35   C42   S    
O1    C2    A    
C14   C15   A    
C16   C44   S    
O5    V1    S    
O8    C3    A    
C21   C26   A    
C36   C43   S    
C13   C18   A    
C27   H14   S    
C5    C12   S    
C15   H6    S    
O7    V2    S    
O4    V1    S    
C19   H7    S    
O3    V1    S    
V1    O10   S    
C34   C35   S    
O18   V4    S    
C29   C30   A    
O11   C38   A    
C6    C7    S    
C4    C12   S    
C32   H18   S    
C33   C34   A    
V3    O20   S    
C42   H22   S    
C25   C26   A    
O15   V3    S    
C9    C10   S    
O12   C37   A    
O9    C4    A    
O13   V3    S    
C28   H16   S    
