data_mof_unit_39936.cif
_audit_creation_date              2012-10-26T20:00:52-0400
_audit_creation_method            fapswitch 2.2
_symmetry_space_group_name_H-M    P1
_symmetry_Int_Tables_number       1
_space_group_crystal_system       triclinic
_cell_length_a                    11.671546
_cell_length_b                    13.069183
_cell_length_c                    13.352918
_cell_angle_alpha                 92.373131
_cell_angle_beta                  76.297123
_cell_angle_gamma                 100.299753
_cell_volume                      1946.95958409

loop_
_atom_site_label
_atom_site_type_symbol
_atom_type_description
_atom_site_fract_x
_atom_site_fract_y
_atom_site_fract_z
_atom_type_partial_charge
C1    C     C_R   0.522416 0.700938 0.497787 0.567495
C2    C     C_R   0.396718 0.497440 0.808930 -0.045404
C3    C     C_R   0.468866 0.185742 0.493530 0.024746
C4    C     C_R   0.435745 0.493916 0.696234 0.596678
C5    C     C_R   0.537063 0.814567 0.491536 -0.031967
C6    C     C_R   0.659149 0.985255 0.497483 0.297623
C7    C     C_R   0.646290 0.877208 0.498274 0.319907
C8    C     C_R   0.442030 0.861336 0.477146 0.186574
C9    C     C_R   0.451049 0.969362 0.484646 -0.125206
C10   C     C_R   0.560949 0.032180 0.491606 -0.059666
C11   C     C_R   0.569966 0.140419 0.492476 0.354306
C12   C     C_R   0.442949 0.492081 0.977750 -0.055283
C13   C     C_R   0.359196 0.122040 0.490654 0.301387
C14   C     C_R   0.351199 0.015144 0.484759 -0.099330
C15   C     C_R   0.951116 0.605603 0.586117 -0.137520
C16   C     C_R   0.479298 0.299105 0.497491 0.623908
C17   C     C_R   0.829225 0.592811 0.582282 0.447732
C18   C     C_R   0.854743 0.453339 0.463807 0.058264
C19   C     C_R   0.975680 0.461510 0.469061 -0.052935
C20   C     C_R   0.024526 0.539018 0.530431 -0.055683
C21   C     C_R   0.145615 0.547420 0.535363 0.009942
C22   C     C_R   0.169499 0.404852 0.420439 0.440373
C23   C     C_R   0.458613 0.457830 0.873800 -0.095590
C24   C     C_R   0.048301 0.393543 0.415049 -0.130187
C25   C     C_R   0.563634 0.502245 0.303826 0.587500
C26   C     C_R   0.672413 0.367196 0.057546 -0.097460
C27   C     C_R   0.596794 0.482269 0.193220 0.023825
C28   C     C_R   0.305372 0.553735 0.851291 -0.196276
C29   C     C_R   0.277271 0.574295 0.956330 0.283322
C30   C     C_R   0.343697 0.542420 0.019768 0.445289
C31   C     C_3   0.783529 0.058876 0.598618 0.033313
C32   C     C_3   0.899455 0.134004 0.598248 -0.292823
C33   C     C_3   0.354236 0.796338 0.347935 0.003053
C34   C     C_R   0.523289 0.469666 0.035985 -0.037114
C35   C     C_3   0.246147 0.726485 0.322039 -0.300192
C36   C     C_3   0.254166 0.331095 0.267821 0.005308
C37   C     C_3   0.341367 0.258641 0.221251 -0.348367
C38   C     C_3   0.745049 0.653077 0.741902 0.001139
C39   C     C_3   0.651956 0.716800 0.797621 -0.357217
C40   C     C_3   0.588069 0.172445 0.890344 0.005650
C41   C     C_3   0.664026 0.090917 0.897241 -0.385798
C42   C     C_3   0.221667 0.730909 0.997666 -0.005522
C43   C     C_3   0.118361 0.784861 0.050914 -0.349338
C44   C     C_R   0.598398 0.395299 0.997932 -0.131982
C45   C     C_R   0.596599 0.347805 0.902096 0.285344
C46   C     C_R   0.531007 0.381497 0.839089 0.387832
C47   C     C_R   0.533652 0.519629 0.130029 0.351260
C48   C     C_R   0.669062 0.408041 0.155714 0.295633
Cu1   Cu    Cu3+1 0.386470 0.492430 0.492410 1.058244
Cu2   Cu    Cu3+1 0.613530 0.507570 0.507590 1.143103
F1    F     F_    0.730753 0.370428 0.216067 -0.622420
F2    F     F_    0.258958 0.162245 0.493756 -0.600604
F3    F     F_    0.742657 0.834472 0.503355 -0.583368
F4    F     F_    0.489965 0.608514 0.159457 -0.616626
F5    F     F_    0.300879 0.551790 0.122628 -0.610846
F6    F     F_    0.530626 0.331764 0.747770 -0.615266
F7    F     F_    0.677256 0.201725 0.491867 -0.591523
H1    H     H_    0.265522 0.968250 0.481926 0.195632
H2    H     H_    0.896369 0.210324 0.566248 0.203939
H3    H     H_    0.911900 0.145706 0.678063 0.106344
H4    H     H_    0.976813 0.102278 0.550407 0.205463
H5    H     H_    0.435641 0.763376 0.310283 0.192790
H6    H     H_    0.361426 0.874842 0.315131 0.118615
H7    H     H_    0.251775 0.730341 0.238099 0.161057
H8    H     H_    0.244426 0.644783 0.342493 0.204346
H9    H     H_    0.162195 0.752010 0.364831 0.153228
H10   H     H_    0.292838 0.410168 0.236127 0.214180
H11   H     H_    0.168808 0.302607 0.244356 0.132451
H12   H     H_    0.183571 0.606410 0.583309 0.147449
H13   H     H_    0.302699 0.177673 0.247799 0.179074
H14   H     H_    0.359535 0.261122 0.135811 0.089186
H15   H     H_    0.426987 0.282797 0.245285 0.162950
H16   H     H_    0.830535 0.684838 0.763925 0.111844
H17   H     H_    0.714842 0.570864 0.768511 0.141761
H18   H     H_    0.566006 0.690842 0.774662 0.150591
H19   H     H_    0.636653 0.707091 0.882269 0.113560
H20   H     H_    0.683679 0.800414 0.777802 0.152275
H21   H     H_    0.540553 0.150301 0.827570 0.183152
H22   H     H_    0.520399 0.171403 0.965341 0.106245
H23   H     H_    0.988494 0.667626 0.631477 0.102134
H24   H     H_    0.707827 0.108992 0.962732 0.165718
H25   H     H_    0.606613 0.012894 0.909678 0.091381
H26   H     H_    0.734129 0.089615 0.825079 0.148279
H27   H     H_    0.255044 0.760525 0.917067 0.108507
H28   H     H_    0.294443 0.751472 0.039864 0.151743
H29   H     H_    0.083988 0.757558 0.131942 0.179100
H30   H     H_    0.044786 0.767416 0.009799 0.166926
H31   H     H_    0.149495 0.870286 0.050764 0.095703
H32   H     H_    0.010092 0.330290 0.371457 0.133520
H33   H     H_    0.817134 0.394964 0.415129 0.209268
H34   H     H_    0.729165 0.309856 0.030407 0.196960
H35   H     H_    0.256313 0.583238 0.802615 0.141823
H36   H     H_    0.787988 0.983963 0.633059 0.151994
H37   H     H_    0.708076 0.092921 0.647503 0.153059
N1    N     N_R   0.215880 0.481050 0.481000 -0.229273
N2    N     N_R   0.784100 0.518950 0.519000 -0.224206
O1    O     O_R   0.419710 0.645650 0.494620 -0.493928
O2    O     O_3   0.339599 0.801611 0.456202 -0.553975
O3    O     O_3   0.237482 0.331109 0.375966 -0.474387
O4    O     O_3   0.757463 0.660862 0.634448 -0.476477
O5    O     O_3   0.663282 0.270299 0.867899 -0.530836
O6    O     O_3   0.180750 0.622500 0.998372 -0.509485
O7    O     O_R   0.611450 0.658430 0.507430 -0.411476
O8    O     O_R   0.357340 0.490460 0.641450 -0.526334
O9    O     O_R   0.549080 0.503250 0.654260 -0.446295
O10   O     O_R   0.388550 0.341570 0.492570 -0.410915
O11   O     O_R   0.580290 0.354350 0.505380 -0.427248
O12   O     O_R   0.450920 0.496750 0.345740 -0.484620
O13   O     O_R   0.642660 0.509540 0.358550 -0.476200
O14   O     O_3   0.770506 0.044120 0.496283 -0.453827

loop_
_geom_bond_atom_site_label_1
_geom_bond_atom_site_label_2
_ccdc_geom_bond_type
C27   C48   A    
C18   N2    A    
C22   N1    A    
C19   C20   A    
C24   H32   S    
Cu1   O8    S    
C36   H10   S    
C26   C44   A    
C45   C46   A    
C12   C23   A    
C1    C5    S    
C43   H31   S    
C39   H20   S    
C28   C29   A    
C32   H4    S    
C33   O2    S    
C38   C39   S    
C35   H8    S    
C41   H26   S    
C18   C19   A    
C8    O2    S    
C16   O11   A    
C40   O5    S    
C48   F1    S    
C31   C32   S    
C8    C9    A    
Cu2   O9    S    
C35   H7    S    
C39   H18   S    
C9    C10   A    
C1    O7    A    
C3    C13   A    
C16   O10   A    
Cu2   O7    S    
C23   C46   A    
C13   C14   A    
C6    O14   S    
C42   O6    S    
Cu1   O12   S    
C15   C20   A    
C14   H1    S    
C18   H33   S    
C42   H27   S    
C38   O4    S    
C1    O1    A    
C17   N2    A    
C33   H5    S    
C21   N1    A    
C35   H9    S    
C26   H34   S    
C31   H36   S    
Cu2   O13   S    
C21   H12   S    
C2    C4    S    
C9    C14   A    
C29   C30   A    
C25   O13   A    
C13   F2    S    
C15   H23   S    
C33   H6    S    
C41   H24   S    
C40   H22   S    
C34   C44   A    
C28   H35   S    
C42   H28   S    
C39   H19   S    
Cu1   N1    S    
C6    C7    A    
C45   O5    S    
C47   F4    S    
C40   C41   S    
C37   H14   S    
Cu2   O11   S    
C22   C24   A    
C42   C43   S    
C32   H3    S    
C12   C34   A    
C44   C45   A    
C5    C7    A    
C38   H17   S    
C4    O9    A    
C27   C47   A    
C15   C17   A    
C36   C37   S    
C22   O3    S    
C12   C30   A    
C43   H29   S    
C6    C10   A    
C5    C8    A    
C36   H11   S    
Cu1   O10   S    
C26   C48   A    
C25   C27   S    
C31   H37   S    
C30   F5    S    
C43   H30   S    
C19   C24   A    
Cu2   N2    S    
C41   H25   S    
C4    O8    A    
C33   C35   S    
C31   O14   S    
C29   O6    S    
C36   O3    S    
C40   H21   S    
C17   O4    S    
C3    C11   A    
C10   C11   A    
Cu1   O1    S    
C20   C21   A    
Cu1   Cu2   S    
C37   H15   S    
C46   F6    S    
C2    C23   A    
C7    F3    S    
C2    C28   A    
C34   C47   A    
C32   H2    S    
C11   F7    S    
C37   H13   S    
C3    C16   S    
C25   O12   A    
C38   H16   S    
