data_mof_unit_26318.cif
_audit_creation_date              2012-12-11T17:25:09-0500
_audit_creation_method            fapswitch 2.2
_symmetry_space_group_name_H-M    P1
_symmetry_Int_Tables_number       1
_space_group_crystal_system       triclinic
_cell_length_a                    6.948422
_cell_length_b                    20.527541
_cell_length_c                    24.391701
_cell_angle_alpha                 90.415952
_cell_angle_beta                  90.027772
_cell_angle_gamma                 89.068256
_cell_volume                      3478.53438862

loop_
_atom_site_label
_atom_site_type_symbol
_atom_type_description
_atom_site_fract_x
_atom_site_fract_y
_atom_site_fract_z
_atom_type_partial_charge
O1    O     O_R   0.507280 0.423750 0.460310 -0.534703
O2    O     O_R   0.171030 0.555650 0.437630 -0.529258
O3    O     O_R   0.004080 0.576250 0.539690 -0.537341
C1    C     C_R   0.339102 0.575664 0.421815 0.702698
O4    O     O_R   0.177330 0.422980 0.453960 -0.538310
O5    O     O_R   0.010420 0.442640 0.556140 -0.537191
C2    C     C_R   0.347079 0.398723 0.443790 0.692347
O6    O     O_R   0.500930 0.557360 0.443860 -0.541045
O7    O     O_3   0.340310 0.506600 0.533500 -0.360503
V1    V     V_3+5 0.064140 0.498780 0.493780 1.456088
O8    O     O_R   0.680890 0.444350 0.562370 -0.526430
C3    C     C_R   0.850464 0.424582 0.578277 0.725189
O9    O     O_R   0.674590 0.577020 0.546040 -0.533674
C4    C     C_R   0.840769 0.601245 0.557221 0.702715
V2    V     V_3+5 0.564550 0.501220 0.506220 1.469015
O10   O     O_3   0.838250 0.493400 0.466500 -0.366648
C5    C     C_R   0.985795 0.835571 0.912591 -0.081848
C6    C     C_R   0.830187 0.661115 0.592130 -0.070842
C7    C     C_R   0.109709 0.724102 0.908260 0.033567
C8    C     C_R   0.085732 0.783561 0.936015 -0.143838
C9    C     C_R   0.903308 0.827166 0.860565 -0.155339
C10   C     C_R   0.918568 0.766532 0.831504 0.124923
C11   C     C_R   0.041573 0.716949 0.853107 0.014896
C12   C     C_R   0.822864 0.756041 0.780059 0.010228
C13   C     C_R   0.887052 0.704595 0.744227 0.022383
C14   C     C_R   0.002417 0.653699 0.767419 -0.085477
C15   C     C_R   0.090512 0.662177 0.819412 -0.102402
C16   C     C_R   0.655092 0.792508 0.765047 -0.094783
C17   C     C_R   0.591425 0.792162 0.710150 -0.092891
C18   C     C_R   0.684275 0.751714 0.670763 0.045427
C19   C     C_R   0.828601 0.705731 0.687201 0.107037
C20   C     C_R   0.625358 0.753615 0.615379 -0.129899
C21   C     C_R   0.694149 0.708458 0.577365 -0.153168
C22   C     C_R   0.908563 0.663477 0.645413 -0.164820
H1    H     H_    0.028085 0.630922 0.652891 0.128687
H2    H     H_    0.631701 0.708063 0.536623 0.110042
H3    H     H_    0.142219 0.789067 0.977255 0.130609
H4    H     H_    0.835977 0.869382 0.841947 0.107305
H5    H     H_    0.516841 0.787864 0.601174 0.139694
H6    H     H_    0.641099 0.236487 0.818578 0.158950
C23   C     C_R   0.730977 0.288455 0.745904 -0.023554
C24   C     C_R   0.883147 0.296222 0.707578 0.054946
C25   C     C_R   0.053118 0.258895 0.713681 -0.138657
H7    H     H_    0.170471 0.264188 0.684899 0.130204
C26   C     C_R   0.074482 0.214481 0.756728 -0.093243
H8    H     H_    0.207287 0.186448 0.760352 0.122153
C27   C     C_R   0.925976 0.206312 0.794674 0.108697
C28   C     C_R   0.755737 0.243368 0.789152 -0.172121
C29   C     C_1   0.871534 0.342077 0.662156 0.021245
C30   C     C_1   0.946828 0.159750 0.839189 -0.019629
C31   C     C_1   0.961159 0.121143 0.876619 -0.166069
C32   C     C_1   0.862021 0.379884 0.624054 -0.143419
H9    H     H_    0.664345 0.731903 0.317937 0.146515
C33   C     C_R   0.578229 0.784692 0.245634 0.472038
C34   C     C_R   0.433934 0.794297 0.205967 0.003716
C35   C     C_R   0.262270 0.759538 0.210190 -0.234819
H10   H     H_    0.151114 0.767749 0.179694 0.196690
C36   C     C_R   0.231532 0.714834 0.253208 -0.010879
C37   C     C_R   0.378287 0.705145 0.293106 -0.016056
C38   C     C_R   0.550014 0.739951 0.288420 -0.255481
C39   C     C_1   0.458920 0.840419 0.161162 0.039020
C40   C     C_1   0.360788 0.659006 0.338313 0.035545
C41   C     C_1   0.348554 0.620869 0.376183 -0.155142
C42   C     C_1   0.474917 0.878838 0.123635 -0.174865
C43   C     C_R   0.471407 0.162744 0.087775 -0.069545
C44   C     C_R   0.357947 0.338057 0.411588 -0.067400
C45   C     C_R   0.541258 0.278083 0.092116 0.007120
C46   C     C_R   0.524728 0.220037 0.062230 -0.192668
C47   C     C_R   0.430347 0.163013 0.143900 -0.189806
C48   C     C_R   0.453455 0.220095 0.176585 0.079491
C49   C     C_R   0.514521 0.277581 0.149990 0.011383
C50   C     C_R   0.424753 0.221153 0.234874 0.015628
C51   C     C_R   0.452735 0.280184 0.265728 -0.023767
C52   C     C_R   0.535250 0.334340 0.238789 0.384612
C53   C     C_R   0.564626 0.331641 0.181911 -0.240254
C54   C     C_R   0.374715 0.164310 0.263683 -0.159864
C55   C     C_R   0.351519 0.164633 0.320106 -0.197992
C56   C     C_R   0.364364 0.222228 0.350095 0.130968
C57   C     C_R   0.406353 0.281421 0.323263 0.107407
C58   C     C_R   0.330124 0.221164 0.406823 -0.157435
C59   C     C_R   0.329727 0.278619 0.437445 -0.165245
C60   C     C_R   0.390773 0.339581 0.354891 -0.154237
H11   H     H_    0.641854 0.370634 0.162986 0.154462
H12   H     H_    0.391472 0.386742 0.336197 0.142634
H13   H     H_    0.302622 0.276919 0.481149 0.112110
H14   H     H_    0.317207 0.119391 0.340309 0.120420
H15   H     H_    0.552448 0.219360 0.018464 0.141330
H16   H     H_    0.387948 0.117106 0.160701 0.090516
H17   H     H_    0.356040 0.117713 0.244175 0.117802
H18   H     H_    0.301297 0.175765 0.427457 0.118962
O11   O     O_R   0.323320 0.942780 0.056240 -0.536743
O12   O     O_R   0.647300 0.077050 0.046060 -0.538126
O13   O     O_R   0.813840 0.057330 0.943840 -0.535064
C61   C     C_R   0.477879 0.101430 0.056242 0.701266
O14   O     O_R   0.653250 0.944380 0.062400 -0.533565
O15   O     O_R   0.819830 0.923720 0.960300 -0.527679
C62   C     C_R   0.485130 0.924345 0.078206 0.722988
O16   O     O_R   0.317330 0.076390 0.039790 -0.536761
O17   O     O_3   0.483830 0.993470 0.966560 -0.365038
V3    V     V_3+5 0.760140 0.001210 0.006210 1.456468
O18   O     O_R   0.149290 0.922840 0.953850 -0.538296
C63   C     C_R   0.982467 0.898910 0.942534 0.701663
O19   O     O_R   0.143340 0.055500 0.937510 -0.537715
C64   C     C_R   0.973745 0.075616 0.921839 0.728198
V4    V     V_3+5 0.259690 0.998600 0.993650 1.451045
O20   O     O_3   0.986130 0.006520 0.033440 -0.369122
C65   C     C_2   0.253704 0.618068 0.834420 0.871630
O21   O     O_2   0.226873 0.560168 0.842456 -0.500921
O22   O     O_R   0.438307 0.643507 0.839666 -0.631919
H19   H     H_    0.538171 0.609175 0.849973 0.329821
C66   C     C_2   0.545511 0.325978 0.742285 0.776627
O23   O     O_2   0.436608 0.328131 0.781688 -0.533138
O24   O     O_R   0.492510 0.358147 0.694110 -0.666489
H20   H     H_    0.362991 0.381372 0.697205 0.312261
O25   O     O_3   0.753693 0.814700 0.239739 -0.541732
C67   C     C_3   0.767333 0.865306 0.278916 0.083654
H21   H     H_    0.764598 0.845838 0.321400 0.115263
H22   H     H_    0.647738 0.901607 0.273714 0.108991
C68   C     C_3   0.957028 0.899983 0.270974 -0.700736
H23   H     H_    0.965532 0.919562 0.228722 0.223348
H24   H     H_    0.967808 0.940937 0.300752 0.171937
H25   H     H_    0.079420 0.865501 0.277734 0.220027
C69   C     C_2   0.046393 0.679009 0.254625 0.803475
O26   O     O_2   0.943825 0.677432 0.213862 -0.538303
O27   O     O_R   0.987043 0.647488 0.302190 -0.675569
H26   H     H_    0.859118 0.625075 0.297493 0.286323
C70   C     C_2   0.583342 0.338345 0.061146 0.776705
O28   O     O_2   0.692573 0.335940 0.021836 -0.534687
O29   O     O_R   0.492152 0.397306 0.075414 -0.660857
H27   H     H_    0.531266 0.434509 0.050907 0.319792
O30   O     O_3   0.622864 0.383234 0.269279 -0.555603
C71   C     C_3   0.565601 0.446017 0.250990 0.080441
H28   H     H_    0.407115 0.449412 0.244041 0.124941
H29   H     H_    0.642677 0.458889 0.212810 0.151460
C72   C     C_3   0.619402 0.496597 0.294096 -0.681695
H30   H     H_    0.777104 0.494815 0.301558 0.230208
H31   H     H_    0.578170 0.545996 0.279487 0.183343
H32   H     H_    0.543433 0.487487 0.333220 0.198666
C73   C     C_2   0.416232 0.830344 0.695060 0.805965
O31   O     O_2   0.430821 0.880469 0.668728 -0.546907
O32   O     O_R   0.235585 0.808942 0.711666 -0.661476
H33   H     H_    0.126953 0.838925 0.699256 0.299820
C74   C     C_2   0.185241 0.669270 0.941522 0.784851
O33   O     O_2   0.331715 0.675834 0.968715 -0.527477
O34   O     O_R   0.083359 0.611181 0.943818 -0.636785
H34   H     H_    0.147663 0.577668 0.968395 0.328482
C75   C     C_2   0.001394 0.586968 0.743205 0.791435
O35   O     O_2   0.152543 0.558318 0.732335 -0.536114
O36   O     O_R   0.825462 0.557899 0.731294 -0.640045
H35   H     H_    0.842064 0.513053 0.714071 0.304335
C76   C     C_2   0.527288 0.822422 0.807911 0.792765
O37   O     O_2   0.489169 0.791666 0.849164 -0.527896
O38   O     O_R   0.452079 0.885499 0.801318 -0.659947
H36   H     H_    0.367323 0.899852 0.833160 0.293355

loop_
_geom_bond_atom_site_label_1
_geom_bond_atom_site_label_2
_ccdc_geom_bond_type
C13   C19   A    
C72   H32   S    
C49   C53   A    
C34   C35   A    
O18   C63   A    
O15   C63   A    
C23   C24   A    
C4    C6    S    
O2    C1    A    
C7    C8    A    
C1    O6    A    
C21   H2    S    
O34   H34   S    
C69   O26   D    
C33   C38   A    
C26   H8    S    
C67   H21   S    
C1    C41   S    
C36   C69   S    
C17   C18   A    
O16   V4    S    
C9    C10   A    
C16   C17   A    
C75   O36   S    
O29   H27   S    
O5    C3    A    
C18   C19   A    
C56   C58   A    
C69   O27   S    
C61   O16   A    
C74   O33   D    
C34   C39   S    
C5    C8    A    
C35   H10   S    
C74   O34   S    
C22   H1    S    
C51   C52   A    
C20   H5    S    
O11   V4    S    
O8    V2    S    
C9    H4    S    
C75   O35   D    
C35   C36   A    
C71   H28   S    
C76   O37   D    
C48   C49   A    
O1    V2    S    
C11   C15   A    
O7    V1    S    
C50   C54   A    
C54   H17   S    
C43   C46   A    
C26   C27   A    
C37   C38   A    
O1    C2    A    
C52   O30   S    
C58   H18   S    
C65   O22   S    
C47   C48   A    
C17   C73   S    
O13   C64   A    
C3    C32   S    
H9    C38   S    
C27   C30   S    
C54   C55   A    
C68   H24   S    
O18   V4    S    
O17   V4    S    
C73   O31   D    
C52   C53   A    
C45   C46   A    
C67   C68   S    
C72   H30   S    
C12   C13   A    
C66   O24   S    
O4    C2    A    
C56   C57   A    
C50   C51   A    
C31   C64   S    
C55   C56   A    
C5    C9    A    
C39   C42   T    
C7    C11   A    
C5    C63   S    
C70   O29   S    
C40   C41   T    
C45   C70   S    
C44   C60   A    
C6    C22   A    
C27   C28   A    
C15   C65   S    
C65   O21   D    
C29   C32   T    
C33   O25   S    
O12   C61   A    
C30   C31   T    
C14   C15   A    
C19   C22   A    
O19   V4    S    
O11   C62   A    
C25   C26   A    
O13   V3    S    
C47   H16   S    
C43   C61   S    
C55   H14   S    
O6    V2    S    
C60   H12   S    
O32   H33   S    
C25   H7    S    
O27   H26   S    
C10   C12   A    
C36   C37   A    
C24   C25   A    
O30   C71   S    
O2    V1    S    
O12   V3    S    
O24   H20   S    
C68   H25   S    
C72   H31   S    
C33   C34   A    
C42   C62   S    
C37   C40   S    
C7    C74   S    
C66   O23   D    
O14   V3    S    
C12   C16   A    
C58   C59   A    
C51   C57   A    
O5    V1    S    
C57   C60   A    
C68   H23   S    
O14   C62   A    
O3    C4    A    
V4    O20   S    
V3    O20   S    
O17   V3    S    
C20   C21   A    
O9    V2    S    
C13   C14   A    
O4    V1    S    
O3    V1    S    
V1    O10   S    
O36   H35   S    
C2    C44   S    
C18   C20   A    
C8    H3    S    
C73   O32   S    
C53   H11   S    
O25   C67   S    
C71   C72   S    
C43   C47   A    
V2    O10   S    
O15   V3    S    
C23   C28   A    
C67   H22   S    
C45   C49   A    
C76   O38   S    
O7    V2    S    
C14   C75   S    
C6    C21   A    
C24   C29   S    
C16   C76   S    
C71   H29   S    
C23   C66   S    
O22   H19   S    
O19   C64   A    
C46   H15   S    
C10   C11   A    
C48   C50   A    
O38   H36   S    
O9    C4    A    
H6    C28   S    
C59   H13   S    
C70   O28   D    
O8    C3    A    
C44   C59   A    
