data_mof_unit_28372.cif
_audit_creation_date              2012-12-10T17:52:33-0500
_audit_creation_method            fapswitch 2.2
_symmetry_space_group_name_H-M    P1
_symmetry_Int_Tables_number       1
_space_group_crystal_system       triclinic
_cell_length_a                    14.694193
_cell_length_b                    14.602211
_cell_length_c                    23.531056
_cell_angle_alpha                 76.80756
_cell_angle_beta                  102.670995
_cell_angle_gamma                 114.53082
_cell_volume                      4427.58121144

loop_
_atom_site_label
_atom_site_type_symbol
_atom_type_description
_atom_site_fract_x
_atom_site_fract_y
_atom_site_fract_z
_atom_type_partial_charge
C1    C     C_R   0.880819 0.311841 0.507536 0.819912
C2    C     C_R   0.119189 0.688170 0.492426 0.819776
C3    C     C_R   0.073589 0.481980 0.773928 -0.109848
C4    C     C_R   0.074590 0.474939 0.253160 -0.108560
C5    C     C_R   0.073796 0.481081 0.714889 -0.216537
C6    C     C_R   0.074642 0.476059 0.312267 -0.194884
C7    C     C_R   0.999004 0.500873 0.671326 -0.039735
C8    C     C_R   0.000940 0.498934 0.328696 -0.039777
C9    C     C_R   0.924002 0.521496 0.687956 -0.196477
C10   C     C_R   0.927383 0.520712 0.284963 -0.219217
C11   C     C_R   0.923942 0.522263 0.747107 -0.102794
C12   C     C_R   0.927530 0.519544 0.225949 -0.105500
C13   C     C_R   0.998746 0.502545 0.790239 0.364984
C14   C     C_R   0.001018 0.496619 0.209857 0.364586
C15   C     C_R   0.814237 0.203275 0.507562 -0.134937
C16   C     C_R   0.185798 0.796776 0.492210 -0.135103
C17   C     C_R   0.778973 0.026475 0.504750 -0.221278
C18   C     C_R   0.221069 0.973758 0.494524 -0.221372
C19   C     C_R   0.848267 0.127256 0.503932 -0.016983
C20   C     C_R   0.151780 0.872943 0.495579 -0.017299
C21   C     C_R   0.711679 0.176428 0.509687 -0.251366
C22   C     C_R   0.288343 0.823543 0.490075 -0.251516
C23   C     C_R   0.999588 0.500155 0.608959 0.813581
C24   C     C_R   0.000400 0.499818 0.391044 0.813450
C25   C     C_R   0.640020 0.077300 0.505046 0.096807
C26   C     C_R   0.359993 0.922794 0.494357 0.096765
C27   C     C_R   0.675934 0.001460 0.504356 0.133429
C28   C     C_R   0.324089 0.998724 0.494879 0.133535
C29   C     C_R   0.534085 0.051567 0.501005 0.071435
C30   C     C_R   0.465918 0.948555 0.498259 0.071401
C31   C     C_R   0.506132 0.874608 0.500468 -0.215185
C32   C     C_R   0.493876 0.125592 0.498589 -0.215282
C33   C     C_R   0.608776 0.901095 0.502686 -0.209912
C34   C     C_R   0.391233 0.099147 0.496335 -0.209973
C35   C     C_R   0.719149 0.675330 0.406045 -0.316429
C36   C     C_R   0.280826 0.324632 0.593923 -0.315746
C37   C     C_R   0.799202 0.643061 0.419838 0.103305
C38   C     C_R   0.200794 0.356929 0.580154 0.103257
C39   C     C_R   0.713669 0.507173 0.490646 0.016467
C40   C     C_R   0.286316 0.492810 0.509339 0.016282
C41   C     C_R   0.628812 0.535386 0.478217 -0.019998
C42   C     C_R   0.371150 0.464565 0.521741 -0.020086
C43   C     C_R   0.634119 0.622327 0.435272 0.158678
C44   C     C_R   0.365840 0.377615 0.564679 0.158120
C45   C     C_R   0.075555 0.571042 0.120279 0.535326
C46   C     C_R   0.925087 0.426933 0.880083 0.535107
C47   C     C_R   0.540388 0.481979 0.507082 0.080604
C48   C     C_R   0.459559 0.517951 0.492859 0.080743
C49   C     C_R   0.470081 0.606190 0.450473 -0.237499
C50   C     C_R   0.529847 0.393714 0.549449 -0.237675
C51   C     C_R   0.555274 0.656641 0.422175 -0.198508
C52   C     C_R   0.444660 0.343268 0.577752 -0.197886
C53   C     C_R   0.925369 0.420042 0.121296 0.516423
C54   C     C_R   0.073799 0.579374 0.878727 0.517295
C55   C     C_R   0.921979 0.418023 0.060738 -0.039401
C56   C     C_R   0.078506 0.580042 0.939615 -0.039133
C57   C     C_R   0.999656 0.497222 0.030448 -0.041826
C58   C     C_R   0.000908 0.500767 0.969919 -0.041953
C59   C     C_R   0.076475 0.573290 0.060658 -0.031654
C60   C     C_R   0.924230 0.424575 0.939732 -0.031415
C61   C     C_R   0.845073 0.341451 0.029009 0.078342
C62   C     C_R   0.156325 0.655713 0.971558 0.079529
C63   C     C_R   0.848158 0.346576 0.969312 -0.193546
C64   C     C_R   0.153195 0.650633 0.031246 -0.193437
Cu1   Cu    Cu3+1 0.081740 0.475680 0.515360 0.970737
Cu2   Cu    Cu3+1 0.918260 0.524320 0.484640 0.970857
H1    H     H_    0.804832 0.967728 0.502851 0.156788
H2    H     H_    0.195221 0.032597 0.496259 0.156755
H3    H     H_    0.460908 0.794739 0.500831 0.141964
H4    H     H_    0.539118 0.205513 0.497992 0.142173
H5    H     H_    0.559715 0.723904 0.389824 0.148772
H6    H     H_    0.440208 0.275990 0.610090 0.149228
H7    H     H_    0.282115 0.555437 0.475922 0.117587
H8    H     H_    0.717877 0.444563 0.524075 0.117435
H9    H     H_    0.134500 0.315174 0.602060 0.130345
H10   H     H_    0.865504 0.684824 0.397939 0.129705
H11   H     H_    0.724117 0.741977 0.373109 0.146095
H12   H     H_    0.275855 0.257977 0.626851 0.147225
H13   H     H_    0.413671 0.638881 0.438120 0.130136
H14   H     H_    0.586232 0.360990 0.561776 0.130212
H15   H     H_    0.790177 0.287846 0.945629 0.184207
H16   H     H_    0.212617 0.707841 0.055336 0.183783
H17   H     H_    0.131467 0.466470 0.807134 0.134401
H18   H     H_    0.131508 0.457004 0.240939 0.140969
H19   H     H_    0.132526 0.464943 0.703436 0.160965
H20   H     H_    0.132206 0.458940 0.344994 0.168376
H21   H     H_    0.865453 0.537020 0.655359 0.167581
H22   H     H_    0.869710 0.538668 0.296261 0.160794
H23   H     H_    0.865992 0.538415 0.759486 0.142426
H24   H     H_    0.870659 0.536654 0.192604 0.138242
H25   H     H_    0.635798 0.842133 0.503147 0.155195
H26   H     H_    0.364209 0.158180 0.495704 0.155084
H27   H     H_    0.310201 0.764658 0.484808 0.148324
H28   H     H_    0.689812 0.235113 0.515285 0.148173
N1    N     N_R   0.000901 0.495635 0.149018 -0.462498
N2    N     N_R   0.998895 0.503223 0.851131 -0.462601
N3    N     N_R   0.795430 0.560810 0.461550 -0.174734
N4    N     N_R   0.204570 0.439190 0.538450 -0.174919
O1    O     O_R   0.977900 0.338110 0.520250 -0.563386
O2    O     O_R   0.022100 0.661890 0.479750 -0.563487
O3    O     O_R   0.839850 0.379180 0.494310 -0.594119
O4    O     O_R   0.160150 0.620820 0.505690 -0.594090
O5    O     O_R   0.069020 0.479430 0.595090 -0.593445
O6    O     O_R   0.930980 0.520570 0.404910 -0.593320
O7    O     O_R   0.930970 0.520500 0.569150 -0.566332
O8    O     O_R   0.069030 0.479500 0.430850 -0.566545
O9    O     O_2   0.148309 0.644418 0.149420 -0.549200
O10   O     O_2   0.852977 0.352965 0.851092 -0.549315
O11   O     O_2   0.854970 0.347761 0.152962 -0.558611
O12   O     O_2   0.141944 0.653862 0.846531 -0.556152
C65   C     C_3   0.758596 0.251793 0.055514 -0.344593
C66   C     C_3   0.793612 0.166615 0.090040 -0.300118
C67   C     C_3   0.709676 0.080879 0.121369 -0.808863
H29   H     H_    0.687835 0.110119 0.153718 0.272947
H30   H     H_    0.642477 0.047721 0.088899 0.244494
H31   H     H_    0.736694 0.019939 0.145287 0.240633
H32   H     H_    0.815777 0.135005 0.058982 0.205125
H33   H     H_    0.860700 0.196428 0.123226 0.252854
H34   H     H_    0.721908 0.276561 0.082158 0.239658
H35   H     H_    0.696769 0.218979 0.020086 0.166988
C68   C     C_3   0.245863 0.742139 0.945818 -0.339733
C69   C     C_3   0.326220 0.703951 0.940714 -0.310068
C70   C     C_3   0.411610 0.788374 0.909874 -0.807972
H36   H     H_    0.381818 0.814702 0.864324 0.272864
H37   H     H_    0.448471 0.853786 0.934726 0.245468
H38   H     H_    0.469076 0.758980 0.907500 0.240509
H39   H     H_    0.358243 0.677258 0.985630 0.205423
H40   H     H_    0.292667 0.638545 0.915940 0.246679
H41   H     H_    0.221156 0.782915 0.903505 0.242976
H42   H     H_    0.282569 0.802023 0.974760 0.167040
C71   C     C_2   0.046923 0.851284 0.503043 0.862138
O13   O     O_2   0.005726 0.783251 0.541312 -0.575061
O14   O     O_R   0.997053 0.912411 0.468073 -0.758639
H43   H     H_    0.926290 0.891024 0.477512 0.335253
C72   C     C_2   0.953142 0.149059 0.496429 0.861592
O15   O     O_2   0.994378 0.217368 0.458286 -0.576483
O16   O     O_R   0.002982 0.087761 0.531202 -0.757566
H44   H     H_    0.073756 0.109265 0.521748 0.335261

loop_
_geom_bond_atom_site_label_1
_geom_bond_atom_site_label_2
_ccdc_geom_bond_type
C53   N1    A    
Cu1   O8    S    
C65   C66   S    
C68   H42   S    
C38   N4    A    
C1    O1    A    
C37   N3    A    
C19   C72   S    
C72   O15   D    
C39   C41   A    
C27   C33   A    
C15   C19   A    
C10   H22   S    
C59   C64   A    
C51   H5    S    
C63   H15   S    
C60   C63   A    
Cu2   N3    S    
C12   H24   S    
C35   C37   A    
Cu1   N4    S    
C29   C32   A    
C33   H25   S    
C40   N4    A    
C66   H32   S    
C39   N3    A    
C21   H28   S    
C2    O4    A    
C18   H2    S    
C23   O7    A    
C40   H7    S    
C54   O12   S    
C65   H34   S    
C39   H8    S    
Cu2   O2    S    
C69   H39   S    
C61   C63   A    
C62   C64   A    
C70   H37   S    
C17   C19   A    
C23   O5    A    
C49   C51   A    
C46   O10   S    
C50   C52   A    
C31   C33   A    
C1    C15   S    
C2    C16   S    
C54   N2    A    
C3    C13   A    
C67   H31   S    
C5    H19   S    
C44   C52   A    
C40   C42   A    
C28   C34   A    
C4    C14   A    
C41   C43   A    
Cu2   O3    S    
C42   C44   A    
Cu1   O4    S    
C66   C67   S    
C47   C50   A    
C38   H9    S    
C53   C55   A    
C25   C29   A    
C54   C56   A    
C17   H1    S    
C13   N2    S    
C17   C27   A    
Cu2   O6    S    
C70   H36   S    
C18   C28   A    
Cu1   O1    S    
C4    C6    A    
C5    C7    A    
C70   H38   S    
C32   H4    S    
C3    C5    A    
C35   H11   S    
C49   H13   S    
C65   H35   S    
C24   O6    A    
C32   C34   A    
C29   C30   A    
C52   H6    S    
C11   H23   S    
C47   C48   A    
C4    H18   S    
C15   C21   A    
C16   C20   A    
C41   C47   A    
C42   C48   A    
C9    C11   A    
C64   H16   S    
C68   C69   S    
C10   C12   A    
C48   C49   A    
C37   H10   S    
C12   C14   A    
C26   C30   A    
C55   C57   A    
C3    H17   S    
O14   H43   S    
C22   H27   S    
C56   C62   A    
C36   C44   A    
C24   O8    A    
Cu1   O5    S    
C20   C71   S    
C71   O13   D    
C45   N1    A    
C1    O3    A    
C14   N1    S    
C35   C43   A    
C67   H29   S    
C53   O11   S    
C72   O16   S    
C21   C25   A    
C45   C59   A    
C16   C22   A    
C46   C60   A    
C68   H41   S    
C71   O14   S    
C50   H14   S    
C6    C8    A    
C25   C27   A    
O16   H44   S    
C26   C28   A    
C6    H20   S    
C36   C38   A    
C36   H12   S    
C9    H21   S    
C66   H33   S    
C11   C13   A    
C43   C51   A    
C57   C58   A    
C30   C31   A    
C7    C23   S    
C55   C61   A    
C8    C24   S    
C56   C58   A    
C18   C20   A    
C69   H40   S    
C34   H26   S    
C57   C59   A    
C2    O2    A    
C7    C9    A    
C31   H3    S    
C46   N2    A    
C8    C10   A    
Cu1   Cu2   S    
C22   C26   A    
Cu2   O7    S    
C69   C70   S    
C58   C60   A    
C62   C68   S    
C45   O9    S    
C67   H30   S    
C61   C65   S    
