data_mof_unit_24342.cif
_audit_creation_date              2012-12-10T17:52:20-0500
_audit_creation_method            fapswitch 2.2
_symmetry_space_group_name_H-M    P1
_symmetry_Int_Tables_number       1
_space_group_crystal_system       triclinic
_cell_length_a                    19.24875
_cell_length_b                    10.615819
_cell_length_c                    9.964086
_cell_angle_alpha                 89.886982
_cell_angle_beta                  90.048132
_cell_angle_gamma                 93.389596
_cell_volume                      2032.50731337

loop_
_atom_site_label
_atom_site_type_symbol
_atom_type_description
_atom_site_fract_x
_atom_site_fract_y
_atom_site_fract_z
_atom_type_partial_charge
C1    C     C_R   0.501370 0.261066 0.500091 0.907376
C2    C     C_R   0.290242 0.500088 0.497032 -0.084428
C3    C     C_R   0.930045 0.493300 0.496347 0.308018
C4    C     C_R   0.070012 0.495621 0.490832 0.346689
C5    C     C_R   0.821391 0.545692 0.608911 -0.181866
C6    C     C_R   0.749594 0.549951 0.611860 0.366926
C7    C     C_R   0.709900 0.502325 0.501746 -0.127939
C8    C     C_R   0.743314 0.451370 0.391125 -0.207617
C9    C     C_R   0.815107 0.447026 0.389590 -0.135789
C10   C     C_R   0.854473 0.494555 0.498361 0.009236
C11   C     C_R   0.624229 0.143204 0.592603 -0.151275
C12   C     C_R   0.365808 0.500680 0.499581 0.961678
C13   C     C_R   0.682782 0.082994 0.635370 -0.129079
C14   C     C_R   0.682727 0.951934 0.633037 -0.075228
C15   C     C_R   0.624014 0.880743 0.588412 -0.106848
C16   C     C_R   0.563908 0.940372 0.545900 0.032944
C17   C     C_R   0.564233 0.072270 0.547368 0.085102
C18   C     C_R   0.504688 0.129176 0.500187 -0.139483
C19   C     C_R   0.446703 0.060292 0.450631 -0.206178
C20   C     C_R   0.445636 0.931231 0.450196 0.375150
C21   C     C_R   0.503623 0.872107 0.498990 -0.177889
C22   C     C_R   0.422718 0.314413 0.147605 -0.111102
C23   C     C_R   0.500578 0.739222 0.499761 0.935964
C24   C     C_R   0.400330 0.201525 0.089985 -0.232477
C25   C     C_R   0.404773 0.188152 0.953329 -0.155678
C26   C     C_R   0.425203 0.291894 0.872756 0.421798
C27   C     C_R   0.462226 0.402391 0.929958 0.045954
C28   C     C_R   0.461778 0.406861 0.074581 0.047260
C29   C     C_R   0.537718 0.588331 0.070093 0.436064
C30   C     C_R   0.536550 0.589405 0.927729 -0.101972
C31   C     C_R   0.634276 0.502466 0.500422 0.857003
C32   C     C_R   0.252618 0.503934 0.616797 -0.102732
C33   C     C_R   0.180654 0.502201 0.613018 -0.185986
C34   C     C_R   0.145493 0.496820 0.489656 -0.025381
C35   C     C_R   0.183233 0.494726 0.368733 0.420546
C36   C     C_R   0.255263 0.495845 0.373425 -0.193253
H1    H     H_    0.626722 0.245103 0.594099 0.139188
H2    H     H_    0.728487 0.138237 0.669372 0.157963
H3    H     H_    0.728453 0.905346 0.665062 0.183487
H4    H     H_    0.626470 0.779330 0.585943 0.162797
H5    H     H_    0.408708 0.326422 0.249822 0.205179
H6    H     H_    0.375055 0.127263 0.150336 0.197283
H7    H     H_    0.380935 0.102527 0.909726 0.204012
H8    H     H_    0.566643 0.662243 0.873556 0.205890
H9    H     H_    0.283763 0.494336 0.279766 0.197066
H10   H     H_    0.713853 0.413446 0.306152 0.191842
H11   H     H_    0.839686 0.407455 0.302855 0.177700
H12   H     H_    0.401732 0.107333 0.414584 0.175835
N1    N     N_R   0.031604 0.426720 0.400212 -0.088833
N2    N     N_R   0.962670 0.425942 0.402551 -0.147557
N3    N     N_R   0.968575 0.560774 0.588020 -0.155842
N4    N     N_R   0.037431 0.561783 0.585476 -0.150700
N5    N     N_R   0.499340 0.498800 0.142780 -0.147103
N6    N     N_R   0.499320 0.498720 0.857170 -0.134053
O1    O     O_R   0.500000 0.316780 0.614690 -0.579955
O2    O     O_R   0.499990 0.316750 0.385360 -0.649711
O3    O     O_R   0.398140 0.500000 0.614700 -0.566470
O4    O     O_R   0.398130 0.499970 0.385370 -0.646106
O5    O     O_R   0.500010 0.683250 0.614640 -0.630308
O6    O     O_R   0.500000 0.683220 0.385310 -0.535390
O7    O     O_R   0.601870 0.500030 0.614630 -0.584122
O8    O     O_R   0.601860 0.500000 0.385300 -0.583814
Zn1   Zn    Zn3+2 0.500000 0.500020 0.653130 1.018737
Zn2   Zn    Zn3+2 0.500000 0.499980 0.346870 1.018917
H13   H     H_    0.278603 0.508005 0.713279 0.200247
Cl1   Cl    Cl    0.369935 0.846390 0.391744 -0.590283
Cl2   Cl    Cl    0.591591 0.703095 0.151693 -0.544838
Cl3   Cl    Cl    0.373622 0.279773 0.728296 -0.627673
H14   H     H_    0.152340 0.503969 0.706882 0.191147
Cl4   Cl    Cl    0.143664 0.498137 0.209157 -0.552261
H15   H     H_    0.851282 0.582756 0.693722 0.195417
Cl5   Cl    Cl    0.713547 0.619753 0.754412 -0.633195

loop_
_geom_bond_atom_site_label_1
_geom_bond_atom_site_label_2
_ccdc_geom_bond_type
C23   O5    A    
C28   N5    A    
O2    Zn2   S    
C16   C21   A    
C9    H11   S    
C29   C30   A    
C30   N6    A    
C9    C10   A    
C31   O7    A    
C7    C8    A    
O5    Zn1   S    
C35   C36   A    
C14   C15   A    
C33   H14   S    
C4    N1    A    
O6    Zn2   S    
C26   Cl3   S    
C32   C33   A    
C25   H7    S    
C19   C20   A    
O7    Zn1   S    
C17   C18   A    
C26   C27   A    
C27   N6    A    
C12   O4    A    
C36   H9    S    
C5    H15   S    
C3    C10   S    
C22   C28   A    
C13   C14   A    
C24   C25   A    
C6    Cl5   S    
C11   C13   A    
C31   O8    A    
C30   H8    S    
C13   H2    S    
C6    C7    A    
C32   H13   S    
C29   N5    A    
C4    N4    A    
C5    C6    A    
C12   O3    A    
C20   Cl1   S    
C1    O2    A    
C33   C34   A    
O3    Zn1   S    
C4    C34   S    
C21   C23   S    
O4    Zn2   S    
C23   O6    A    
C34   C35   A    
N5    Zn2   S    
C22   C24   A    
C15   H4    S    
C22   H5    S    
C7    C31   S    
N6    Zn1   S    
C2    C12   S    
O8    Zn2   S    
C15   C16   A    
C5    C10   A    
C24   H6    S    
C20   C21   A    
C2    C32   A    
N1    N2    A    
C2    C36   A    
C27   C28   A    
C11   H1    S    
C18   C19   A    
C1    C18   S    
C19   H12   S    
C8    C9    A    
C3    N3    A    
C8    H10   S    
C25   C26   A    
C29   Cl2   S    
C3    N2    A    
C11   C17   A    
N3    N4    A    
C35   Cl4   S    
C14   H3    S    
C16   C17   A    
C1    O1    A    
O1    Zn1   S    
