data_mof_unit_50697.cif
_audit_creation_date              2012-12-11T14:46:10-0500
_audit_creation_method            fapswitch 2.2
_symmetry_space_group_name_H-M    P1
_symmetry_Int_Tables_number       1
_space_group_crystal_system       triclinic
_cell_length_a                    10.805203
_cell_length_b                    11.014187
_cell_length_c                    18.933637
_cell_angle_alpha                 90.952292
_cell_angle_beta                  90.048289
_cell_angle_gamma                 119.493658
_cell_volume                      1960.92078411

loop_
_atom_site_label
_atom_site_type_symbol
_atom_type_description
_atom_site_fract_x
_atom_site_fract_y
_atom_site_fract_z
_atom_type_partial_charge
C1    C     C_R   0.867496 0.637973 0.604642 0.548240
C2    C     C_R   0.953097 0.203749 0.721112 -0.007658
C3    C     C_R   0.915687 0.114665 0.778889 0.013711
C4    C     C_R   0.271166 0.632543 0.603661 0.527578
C5    C     C_R   0.701309 0.151975 0.709879 0.036196
C6    C     C_R   0.672907 0.079711 0.773929 -0.020942
C7    C     C_R   0.579048 0.151873 0.676563 0.282572
C8    C     C_R   0.440577 0.055358 0.693995 -0.073105
C9    C     C_R   0.416618 0.992963 0.757656 -0.171682
C10   C     C_R   0.531362 0.017063 0.799159 -0.110649
C11   C     C_R   0.846160 0.216217 0.683133 -0.024860
C12   C     C_R   0.473154 0.723148 0.773985 -0.123891
C13   C     C_R   0.706008 0.588029 0.707748 -0.103810
C14   C     C_R   0.690799 0.583745 0.780879 -0.125611
C15   C     C_R   0.811510 0.653677 0.824863 0.026333
C16   C     C_R   0.879404 0.278126 0.611989 0.537717
C17   C     C_R   0.946798 0.722109 0.795202 -0.154904
C18   C     C_R   0.961361 0.726363 0.722969 -0.144799
C19   C     C_R   0.841785 0.655278 0.678639 0.037597
C20   C     C_R   0.406469 0.616984 0.294353 0.211891
C21   C     C_R   0.429395 0.630513 0.222526 -0.090630
C22   C     C_R   0.379166 0.702981 0.181610 -0.027431
C23   C     C_R   0.446295 0.710440 0.701691 -0.131722
C24   C     C_R   0.316269 0.773064 0.214173 -0.160118
C25   C     C_R   0.292490 0.759873 0.286596 -0.171823
C26   C     C_R   0.331947 0.676794 0.326615 0.022287
C27   C     C_R   0.717114 0.096762 0.293516 -0.122464
C28   C     C_R   0.865604 0.636416 0.397090 0.562654
C29   C     C_R   0.704652 0.075486 0.221343 -0.088788
C30   C     C_R   0.826146 0.135297 0.178616 0.060951
C31   C     C_R   0.961155 0.212159 0.208750 -0.077696
C32   C     C_R   0.973995 0.232717 0.281526 -0.098286
C33   C     C_R   0.851366 0.177782 0.323775 0.015924
C34   C     C_R   0.307469 0.660350 0.677753 0.032783
C35   C     C_R   0.898627 0.780619 0.296187 -0.109282
C36   C     C_R   0.903739 0.794202 0.224277 0.177025
C37   C     C_R   0.817548 0.676371 0.179888 0.023571
C38   C     C_R   0.739394 0.543764 0.209989 0.175359
C39   C     C_R   0.748021 0.530703 0.282570 -0.057284
C40   C     C_R   0.271478 0.633587 0.396664 0.573565
C41   C     C_R   0.826468 0.649621 0.325717 -0.021428
C42   C     C_R   0.765033 0.037245 0.887714 0.534093
C43   C     C_R   0.396191 0.700543 0.896386 0.525355
C44   C     C_R   0.796755 0.690780 0.897118 0.531292
C45   C     C_R   0.783604 0.071499 0.811583 -0.031739
C46   C     C_R   0.805452 0.103254 0.103872 0.570823
C47   C     C_R   0.405180 0.708975 0.106151 0.544141
C48   C     C_R   0.798182 0.699371 0.105959 0.595618
C49   C     C_R   0.863052 0.229333 0.395539 0.544182
C50   C     C_R   0.195425 0.618278 0.725834 -0.143871
C51   C     C_R   0.222427 0.632580 0.798124 -0.145994
C52   C     C_R   0.361879 0.687585 0.822007 0.032702
C53   C     C_R   0.014428 0.074907 0.803141 -0.085465
C54   C     C_R   0.154255 0.140924 0.780069 -0.120186
C55   C     C_R   0.198098 0.247601 0.732289 -0.099600
C56   C     C_R   0.098551 0.278200 0.703252 -0.084917
Cl1   Cl    Cl    0.573455 0.292531 0.638091 -0.637883
Cl2   Cl    Cl    0.467970 0.519288 0.340714 -0.590463
Cl3   Cl    Cl    0.030355 0.962063 0.195732 -0.591017
Cl4   Cl    Cl    0.639136 0.390611 0.158701 -0.562273
Cr1   Cr    Cr6+3 0.791660 0.390250 0.499930 1.115561
Cr2   Cr    Cr6+3 0.098520 0.708290 0.500540 1.033286
Cr3   Cr    Cr6+3 0.109770 0.401430 0.499480 1.072015
Cr4   Cr    Cr6+3 0.874790 0.925890 0.000070 1.067557
Cr5   Cr    Cr6+3 0.574120 0.948670 0.999300 1.044749
Cr6   Cr    Cr6+3 0.551420 0.625320 0.000920 1.075843
H1    H     H_    0.086460 0.569091 0.707016 0.109062
H2    H     H_    0.055254 0.256734 0.176217 0.162626
H3    H     H_    0.079032 0.297986 0.304144 0.172660
H4    H     H_    0.962887 0.872504 0.328925 0.184652
H5    H     H_    0.696397 0.427469 0.304883 0.199015
H6    H     H_    0.532536 0.738805 0.664889 0.114772
H7    H     H_    0.137617 0.363450 0.668629 0.167848
H8    H     H_    0.501869 0.982219 0.850145 0.195795
H9    H     H_    0.612419 0.541580 0.674145 0.172391
H10   H     H_    0.485817 0.582254 0.198440 0.194089
H11   H     H_    0.235173 0.807580 0.310258 0.172769
H12   H     H_    0.350235 0.048790 0.665511 0.153589
H13   H     H_    0.599305 0.012295 0.198763 0.155721
H14   H     H_    0.581339 0.764047 0.792829 0.097643
H15   H     H_    0.229095 0.111739 0.800749 0.116896
H16   H     H_    0.308416 0.305033 0.716680 0.154945
H17   H     H_    0.984600 0.990780 0.838678 0.166185
H18   H     H_    0.309315 0.934409 0.777443 0.109701
H19   H     H_    0.584746 0.534331 0.802624 0.145574
H20   H     H_    0.041405 0.779353 0.827800 0.124367
H21   H     H_    0.067893 0.782342 0.701979 0.141596
H22   H     H_    0.281353 0.833075 0.183544 0.179616
H23   H     H_    0.135557 0.599077 0.834980 0.122802
H24   H     H_    0.621953 0.054487 0.325287 0.144788
O1    O     O_R   0.766500 0.250040 0.579790 -0.452239
O2    O     O_R   0.413330 0.603360 0.920440 -0.499799
O3    O     O_R   0.676110 0.626250 0.926750 -0.496991
O4    O     O_R   0.798570 0.516780 0.574780 -0.443218
O5    O     O_R   0.895350 0.809870 0.080950 -0.454466
O6    O     O_R   0.872490 0.049760 0.073800 -0.462156
O7    O     O_R   0.691680 0.088070 0.079070 -0.485260
O8    O     O_R   0.451720 0.825250 0.074050 -0.500337
O9    O     O_R   0.413580 0.606370 0.080960 -0.500142
O10   O     O_R   0.676340 0.629040 0.075550 -0.461905
O11   O     O_3   0.666780 0.833290 0.000090 -0.300289
O12   O     O_R   0.218690 0.701900 0.425960 -0.516620
O13   O     O_R   0.984000 0.732950 0.581090 -0.526916
O14   O     O_R   0.218600 0.700890 0.574760 -0.501179
O15   O     O_R   0.249390 0.515350 0.579940 -0.527837
O16   O     O_R   0.982790 0.280900 0.573700 -0.509816
O17   O     O_R   0.766600 0.251130 0.419260 -0.505384
O18   O     O_R   0.798660 0.517790 0.425980 -0.479259
O19   O     O_R   0.984100 0.734040 0.420570 -0.524373
O20   O     O_R   0.249490 0.516440 0.419420 -0.446995
O21   O     O_R   0.982880 0.281910 0.424890 -0.498885
O22   O     O_3   0.999980 0.499990 0.499980 -0.292495
O23   O     O_R   0.895110 0.806860 0.920430 -0.553043
O24   O     O_R   0.872260 0.046970 0.925000 -0.501090
O25   O     O_R   0.691430 0.085060 0.918550 -0.508267
O26   O     O_R   0.451490 0.822460 0.925250 -0.551043

loop_
_geom_bond_atom_site_label_1
_geom_bond_atom_site_label_2
_ccdc_geom_bond_type
C55   C56   A    
C6    C45   A    
C27   C29   A    
C3    C53   A    
C35   C36   A    
Cr5   O11   S    
C36   Cl3   S    
C7    C8    A    
C39   C41   A    
C53   C54   A    
C27   C33   A    
C21   H10   S    
C29   C30   A    
C47   O8    A    
C25   H11   S    
C36   C37   A    
C48   O5    A    
Cr5   O8    S    
C5    C11   A    
C5    C6    A    
C43   C52   S    
C33   C49   S    
C12   H14   S    
C28   C41   S    
C47   O9    A    
C27   H24   S    
C18   C19   A    
Cr6   O10   S    
Cr3   O22   S    
Cr1   O18   S    
C44   O3    A    
C42   O24   A    
C13   H9    S    
C35   H4    S    
C1    O4    A    
C29   H13   S    
Cr4   O23   S    
Cr3   O15   S    
C9    C10   A    
C1    O13   A    
C16   O16   A    
C49   O21   A    
Cr2   O22   S    
C22   C47   S    
C13   C14   A    
C8    H12   S    
Cr5   O25   S    
Cr6   O11   S    
C31   H2    S    
C35   C41   A    
C2    C11   A    
C12   C52   A    
C50   C51   A    
Cr2   O14   S    
Cr4   O11   S    
C48   O10   A    
C4    C34   S    
C1    C19   S    
Cr4   O24   S    
C13   C19   A    
C17   H20   S    
C38   C39   A    
C24   C25   A    
Cr4   O6    S    
C49   O17   A    
C5    C7    A    
Cr1   O4    S    
C8    C9    A    
Cr6   O2    S    
C25   C26   A    
C3    C45   A    
C51   C52   A    
Cr3   O16   S    
C42   C45   S    
Cr6   O9    S    
C6    C10   A    
C37   C38   A    
C43   O26   A    
C11   C16   S    
C31   C32   A    
C12   C23   A    
C23   C34   A    
C17   C18   A    
C14   H19   S    
C55   H16   S    
C24   H22   S    
Cr6   O3    S    
C38   Cl4   S    
C46   O7    A    
C44   O23   A    
Cr5   O26   S    
C22   C24   A    
C20   Cl2   S    
Cr2   O13   S    
C50   H1    S    
C15   C17   A    
C54   C55   A    
C56   H7    S    
C23   H6    S    
C30   C46   S    
C43   O2    A    
Cr4   O5    S    
C15   C44   S    
C34   C50   A    
C40   O20   A    
C32   H3    S    
C28   O19   A    
C4    O15   A    
C18   H21   S    
C53   H17   S    
C32   C33   A    
Cr3   O20   S    
C2    C3    A    
Cr5   O7    S    
C2    C56   A    
C51   H23   S    
C37   C48   S    
C10   H8    S    
C26   C40   S    
C30   C31   A    
Cr2   O19   S    
C20   C26   A    
C28   O18   A    
C4    O14   A    
Cr3   O21   S    
Cr1   O17   S    
C9    H18   S    
C40   O12   A    
C42   O25   A    
C46   O6    A    
C20   C21   A    
C16   O1    A    
C39   H5    S    
C14   C15   A    
C21   C22   A    
Cr1   O22   S    
C7    Cl1   S    
C54   H15   S    
Cr1   O1    S    
Cr2   O12   S    
