data_mof_unit_23090.cif
_audit_creation_date              2012-12-10T17:46:19-0500
_audit_creation_method            fapswitch 2.2
_symmetry_space_group_name_H-M    P1
_symmetry_Int_Tables_number       1
_space_group_crystal_system       triclinic
_cell_length_a                    14.132952
_cell_length_b                    10.71568
_cell_length_c                    9.942092
_cell_angle_alpha                 89.947825
_cell_angle_beta                  89.285622
_cell_angle_gamma                 93.025466
_cell_volume                      1503.45471221

loop_
_atom_site_label
_atom_site_type_symbol
_atom_type_description
_atom_site_fract_x
_atom_site_fract_y
_atom_site_fract_z
_atom_type_partial_charge
C1    C     C_R   0.512102 0.261961 0.500191 0.919883
C2    C     C_1   0.772168 0.500384 0.497898 -0.222358
C3    C     C_R   0.563765 0.119239 0.746578 -0.123349
C4    C     C_R   0.546967 0.057681 0.868671 -0.193412
C5    C     C_R   0.493052 0.945620 0.872394 -0.119123
C6    C     C_R   0.465501 0.888291 0.752468 -0.063238
C7    C     C_R   0.495157 0.940940 0.626889 0.090212
C8    C     C_R   0.530285 0.065115 0.625283 0.056518
C9    C     C_R   0.530061 0.130262 0.501900 -0.279790
C10   C     C_R   0.530955 0.064659 0.379883 0.497862
C11   C     C_R   0.513269 0.937237 0.381405 -0.286865
C12   C     C_R   0.329404 0.501664 0.500461 0.915812
C13   C     C_R   0.494296 0.874681 0.503273 -0.220979
C14   C     C_R   0.394526 0.317082 0.149373 -0.175974
C15   C     C_R   0.361621 0.205955 0.091732 0.472843
C16   C     C_R   0.366810 0.194409 0.954663 -0.280464
C17   C     C_R   0.394939 0.297010 0.873866 0.284103
C18   C     C_R   0.447147 0.404901 0.930488 -0.020597
C19   C     C_R   0.447608 0.408426 0.075231 0.033901
C20   C     C_R   0.550229 0.587942 0.070462 -0.241013
C21   C     C_R   0.552396 0.586976 0.926456 0.509674
C22   C     C_R   0.494847 0.740144 0.500714 0.891238
C23   C     C_R   0.670690 0.500651 0.499251 0.864803
C24   C     C_1   0.227883 0.501875 0.501212 -0.164013
C25   C     C_1   0.142586 0.501536 0.500819 -0.010984
C26   C     C_1   0.042671 0.500893 0.499700 0.002724
C27   C     C_1   0.957369 0.500487 0.498674 0.005140
C28   C     C_1   0.857459 0.500302 0.497852 -0.020286
H1    H     H_    0.335456 0.109196 0.911350 0.203498
H2    H     H_    0.604222 0.207806 0.747803 0.151284
H3    H     H_    0.571171 0.099950 0.960956 0.168591
H4    H     H_    0.473851 0.902235 0.967983 0.156105
H5    H     H_    0.420681 0.803716 0.760180 0.154784
H6    H     H_    0.515770 0.887817 0.286448 0.184062
H7    H     H_    0.589628 0.660455 0.124740 0.152905
H8    H     H_    0.377715 0.328077 0.252586 0.211352
N1    N     N_R   0.499190 0.498800 0.142780 -0.109700
N2    N     N_R   0.499160 0.498720 0.857170 -0.131180
O1    O     O_R   0.500000 0.316780 0.614690 -0.593678
O2    O     O_R   0.499990 0.316750 0.385360 -0.586635
O3    O     O_R   0.373720 0.500010 0.614690 -0.549967
O4    O     O_R   0.373710 0.499990 0.385360 -0.631402
O5    O     O_R   0.500010 0.683250 0.614640 -0.579049
O6    O     O_R   0.500000 0.683220 0.385310 -0.615972
O7    O     O_R   0.626290 0.500010 0.614640 -0.586765
O8    O     O_R   0.626280 0.499990 0.385310 -0.612870
Zn1   Zn    Zn3+2 0.500010 0.500020 0.653130 0.990694
Zn2   Zn    Zn3+2 0.499990 0.499980 0.346870 0.932107
O9    O     O_3   0.548403 0.125104 0.258502 -0.609050
C29   C     C_3   0.646386 0.124935 0.227064 0.047656
H9    H     H_    0.658391 0.044684 0.159382 0.147890
H10   H     H_    0.692429 0.115995 0.316923 0.115214
C30   C     C_3   0.677250 0.247606 0.156249 -0.299113
H11   H     H_    0.625059 0.271041 0.078893 0.220195
H12   H     H_    0.680132 0.324206 0.231210 0.241282
C31   C     C_3   0.774542 0.240514 0.089453 -0.995127
H13   H     H_    0.828229 0.217830 0.165128 0.270893
H14   H     H_    0.795752 0.332096 0.042749 0.268083
H15   H     H_    0.772251 0.167979 0.009607 0.267070
Br1   Br    Br    0.314022 0.279049 0.721642 -0.564149
O10   O     O_3   0.602602 0.679285 0.853362 -0.617424
C32   C     C_3   0.698512 0.693483 0.893004 0.082952
H16   H     H_    0.743571 0.682178 0.801882 0.170114
H17   H     H_    0.720501 0.622059 0.966589 0.111129
C33   C     C_3   0.718447 0.825344 0.948375 -0.361692
H18   H     H_    0.707299 0.894727 0.867721 0.241407
H19   H     H_    0.668531 0.842838 0.032543 0.206819
C34   C     C_3   0.819732 0.843515 0.998709 -0.965428
H20   H     H_    0.831872 0.776988 0.081716 0.268442
H21   H     H_    0.831805 0.940195 0.037242 0.264870
H22   H     H_    0.871084 0.828595 0.915521 0.270546
O11   O     O_3   0.327606 0.105025 0.168433 -0.620337
C35   C     C_3   0.242963 0.131810 0.237792 0.051064
H23   H     H_    0.184839 0.069545 0.197057 0.167843
H24   H     H_    0.220768 0.229746 0.226013 0.115893
C36   C     C_3   0.254104 0.103134 0.387208 -0.308346
H25   H     H_    0.275340 0.005364 0.399447 0.233460
H26   H     H_    0.310832 0.166759 0.429283 0.237455
C37   C     C_3   0.161940 0.119476 0.465243 -0.905085
H27   H     H_    0.141388 0.217894 0.458835 0.273720
H28   H     H_    0.171685 0.095247 0.572578 0.291044
H29   H     H_    0.104153 0.056832 0.424346 0.250278

loop_
_geom_bond_atom_site_label_1
_geom_bond_atom_site_label_2
_ccdc_geom_bond_type
C23   O7    A    
C35   H23   S    
C36   C37   S    
C7    C8    A    
C30   H11   S    
C15   O11   S    
C26   C27   T    
C32   H16   S    
C36   H26   S    
C14   H8    S    
C5    C6    A    
C15   C16   A    
C31   H13   S    
C18   C19   A    
C12   O4    A    
C19   N1    A    
C1    O2    A    
C34   H20   S    
C20   H7    S    
C22   O6    A    
C21   N2    A    
C8    C9    A    
C33   H19   S    
C29   H10   S    
C9    C10   A    
C21   O10   S    
C5    H4    S    
C30   H12   S    
C23   O8    A    
C35   H24   S    
C17   C18   A    
O7    Zn1   S    
O8    Zn2   S    
C29   C30   S    
C1    C9    S    
C24   C25   T    
C3    C8    A    
C37   H28   S    
C4    C5    A    
C16   H1    S    
C3    H2    S    
C12   O3    A    
C22   O5    A    
C33   C34   S    
C29   H9    S    
O3    Zn1   S    
O4    Zn2   S    
C36   H25   S    
N1    Zn2   S    
N2    Zn1   S    
O9    C29   S    
C35   C36   S    
C3    C4    A    
C2    C23   S    
O1    Zn1   S    
C30   C31   S    
O2    Zn2   S    
C32   C33   S    
C14   C19   A    
C11   H6    S    
O11   C35   S    
C37   H29   S    
C31   H15   S    
C6    C7    A    
C12   C24   S    
C6    H5    S    
C32   H17   S    
C25   C26   S    
C20   N1    A    
C11   C13   A    
C16   C17   A    
C34   H22   S    
C31   H14   S    
C13   C22   S    
C18   N2    A    
O10   C32   S    
C4    H3    S    
C10   C11   A    
C1    O1    A    
C17   Br1   S    
C37   H27   S    
C7    C13   A    
C20   C21   A    
C34   H21   S    
C33   H18   S    
C27   C28   S    
C14   C15   A    
C2    C28   T    
C10   O9    S    
O5    Zn1   S    
O6    Zn2   S    
