data_mof_unit_5782.cif
_audit_creation_date              2012-12-10T18:04:24-0500
_audit_creation_method            fapswitch 2.2
_symmetry_space_group_name_H-M    P1
_symmetry_Int_Tables_number       1
_space_group_crystal_system       triclinic
_cell_length_a                    31.571639
_cell_length_b                    18.374659
_cell_length_c                    25.659095
_cell_angle_alpha                 89.781495
_cell_angle_beta                  144.478025
_cell_angle_gamma                 90.219828
_cell_volume                      8648.51829653

loop_
_atom_site_label
_atom_site_type_symbol
_atom_type_description
_atom_site_fract_x
_atom_site_fract_y
_atom_site_fract_z
_atom_type_partial_charge
Br1   Br    Br    0.059209 0.353975 0.624507 -0.019127
Br2   Br    Br    0.940790 0.646025 0.375492 -0.019127
Br3   Br    Br    0.559189 0.853967 0.624486 -0.019136
Br4   Br    Br    0.440811 0.146033 0.375513 -0.019138
C1    C     C_R   0.860112 0.640350 0.110561 0.534968
C2    C     C_R   0.197738 0.305285 0.447302 -0.044090
C3    C     C_R   0.322942 0.730720 0.583562 0.209279
C4    C     C_3   0.163818 0.597135 0.164825 -0.113092
C5    C     C_3   0.836182 0.402865 0.835175 -0.113090
C6    C     C_3   0.663807 0.097154 0.164814 -0.113089
C7    C     C_3   0.336193 0.902846 0.835186 -0.113088
C8    C     C_3   0.290681 0.392016 0.628272 -0.073009
C9    C     C_3   0.709315 0.607976 0.371732 -0.073007
C10   C     C_3   0.694303 0.425056 0.478853 -0.100304
C11   C     C_3   0.305689 0.574945 0.521132 -0.100301
C12   C     C_3   0.790685 0.892006 0.628284 -0.072941
C13   C     C_R   0.196154 0.696271 0.445524 -0.037312
C14   C     C_3   0.209310 0.107981 0.371726 -0.073008
C15   C     C_3   0.194302 0.925053 0.478857 -0.100304
C16   C     C_3   0.805689 0.074942 0.521137 -0.100280
C17   C     C_3   0.794650 0.678391 0.666798 -0.085078
C18   C     C_3   0.205373 0.321599 0.333221 -0.085053
C19   C     C_3   0.092865 0.803582 0.271696 -0.066313
C20   C     C_3   0.907140 0.196412 0.728304 -0.066300
C21   C     C_3   0.294633 0.178384 0.666779 -0.085047
C22   C     C_3   0.705364 0.821607 0.333217 -0.085045
C23   C     C_3   0.592866 0.303581 0.271695 -0.066308
C24   C     C_R   0.803846 0.303729 0.554475 -0.037310
C25   C     C_3   0.407141 0.696411 0.728302 -0.066306
C26   C     C_3   0.708035 0.613560 0.052050 -0.095747
C27   C     C_3   0.291965 0.386439 0.947949 -0.095747
C28   C     C_3   0.298467 0.607418 0.962204 -0.093657
C29   C     C_3   0.701533 0.392582 0.037796 -0.093658
C30   C     C_3   0.208035 0.113560 0.052050 -0.095748
C31   C     C_3   0.791965 0.886439 0.947950 -0.095749
C32   C     C_3   0.798467 0.107418 0.962204 -0.093656
C33   C     C_3   0.201533 0.892581 0.037796 -0.093655
C34   C     C_3   0.135271 0.385681 0.579924 -0.073628
C35   C     C_R   0.302261 0.194714 0.552698 -0.044095
C36   C     C_3   0.864732 0.614324 0.420082 -0.073625
C37   C     C_3   0.635254 0.885664 0.579906 -0.073633
C38   C     C_3   0.364752 0.114344 0.420106 -0.073635
C39   C     C_R   0.697735 0.805282 0.447299 -0.044085
C40   C     C_R   0.696155 0.196271 0.445524 -0.037315
C41   C     C_R   0.303846 0.803729 0.554476 -0.037309
C42   C     C_R   0.756515 0.703863 0.050298 0.252487
C43   C     C_R   0.243484 0.296137 0.949702 0.252487
C44   C     C_R   0.246593 0.701349 0.954315 0.250343
C45   C     C_R   0.139887 0.359649 0.889439 0.534968
C46   C     C_R   0.753407 0.298651 0.045685 0.250343
C47   C     C_R   0.256515 0.203863 0.050298 0.252487
C48   C     C_R   0.743484 0.796137 0.949702 0.252487
C49   C     C_R   0.746593 0.201349 0.954315 0.250343
C50   C     C_R   0.253407 0.798651 0.045685 0.250343
C51   C     C_R   0.203696 0.258317 0.996406 -0.165683
C52   C     C_R   0.796304 0.741682 0.003593 -0.165682
C53   C     C_R   0.798984 0.256196 0.007618 -0.163811
C54   C     C_R   0.201016 0.743803 0.992382 -0.163810
C55   C     C_R   0.703696 0.758318 0.996406 -0.165683
C56   C     C_R   0.140002 0.640145 0.889590 0.531292
C57   C     C_R   0.296304 0.241682 0.003593 -0.165682
C58   C     C_R   0.298984 0.756196 0.007618 -0.163811
C59   C     C_R   0.701016 0.243804 0.992382 -0.163811
C60   C     C_R   0.196150 0.303644 0.945252 0.004961
C61   C     C_R   0.803850 0.696356 0.054748 0.004961
C62   C     C_R   0.803547 0.303995 0.054383 0.001492
C63   C     C_R   0.196452 0.696005 0.945617 0.001492
C64   C     C_R   0.696150 0.803644 0.945252 0.004961
C65   C     C_R   0.303850 0.196356 0.054748 0.004962
C66   C     C_R   0.303547 0.803995 0.054383 0.001492
C67   C     C_R   0.859998 0.359855 0.110410 0.531291
C68   C     C_R   0.696453 0.196005 0.945617 0.001492
C69   C     C_R   0.032063 0.441089 0.505486 0.231741
C70   C     C_R   0.967937 0.558911 0.494514 0.231740
C71   C     C_R   0.532053 0.941084 0.505476 0.231744
C72   C     C_R   0.467947 0.058916 0.494525 0.231742
C73   C     C_R   0.028694 0.439894 0.556209 -0.018563
C74   C     C_R   0.971305 0.560107 0.443790 -0.018562
C75   C     C_R   0.528685 0.939889 0.556200 -0.018567
C76   C     C_R   0.471314 0.060111 0.443800 -0.018565
C77   C     C_R   0.998916 0.499798 0.552351 -0.005875
C78   C     C_R   0.360112 0.140350 0.110560 0.534968
C79   C     C_R   0.001083 0.500202 0.447649 -0.005875
C80   C     C_R   0.498917 0.999798 0.552351 -0.005871
C81   C     C_R   0.501083 0.000202 0.447648 -0.005872
C82   C     C_R   0.140518 0.360398 0.390396 0.543991
C83   C     C_R   0.859482 0.639602 0.609605 0.543974
C84   C     C_R   0.860066 0.359802 0.610030 0.554843
C85   C     C_R   0.139934 0.640198 0.389970 0.554841
C86   C     C_R   0.640517 0.860397 0.390395 0.543993
C87   C     C_R   0.359482 0.139602 0.609604 0.543979
C88   C     C_R   0.360066 0.859802 0.610030 0.554848
C89   C     C_R   0.639888 0.859649 0.889440 0.534967
C90   C     C_R   0.639934 0.140198 0.389970 0.554837
C91   C     C_R   0.000231 0.499382 0.391376 0.564140
C92   C     C_R   0.999769 0.500618 0.608624 0.564142
C93   C     C_R   0.500231 0.999383 0.391376 0.564141
C94   C     C_R   0.499769 0.000617 0.608624 0.564143
C95   C     C_R   0.999967 0.500174 0.108408 0.527519
C96   C     C_R   0.000032 0.499825 0.891592 0.527517
C97   C     C_R   0.499967 0.000174 0.108407 0.527517
C98   C     C_R   0.500033 0.999825 0.891593 0.527517
C99   C     C_3   0.999093 0.569941 0.015842 -0.138835
C100  C     C_R   0.640001 0.140145 0.889590 0.531291
C101  C     C_3   0.000907 0.430059 0.984158 -0.138834
C102  C     C_3   0.939263 0.534275 0.921588 -0.155423
C103  C     C_3   0.060736 0.465725 0.078412 -0.155421
C104  C     C_3   0.499086 0.069941 0.015835 -0.138834
C105  C     C_3   0.500914 0.930059 0.984165 -0.138835
C106  C     C_3   0.439260 0.034270 0.921585 -0.155421
C107  C     C_3   0.560740 0.965730 0.078415 -0.155422
C108  C     C_3   0.058355 0.534296 0.041296 0.284174
C109  C     C_3   0.941645 0.465704 0.958704 0.284174
C110  C     C_3   0.558352 0.034301 0.041293 0.284175
C111  C     C_R   0.359998 0.859855 0.110410 0.531292
C112  C     C_3   0.441649 0.965698 0.958707 0.284175
C113  C     C_3   0.999658 0.499359 0.948505 0.039834
C114  C     C_3   0.000341 0.500641 0.051495 0.039835
C115  C     C_3   0.499659 0.999359 0.948506 0.039834
C116  C     C_3   0.500341 0.000641 0.051494 0.039834
C117  C     C_R   0.243138 0.295966 0.536644 0.208470
C118  C     C_R   0.756858 0.704030 0.463354 0.208467
C119  C     C_R   0.730652 0.323363 0.472749 0.207501
C120  C     C_R   0.269348 0.676637 0.527248 0.207502
C121  C     C_R   0.743135 0.795964 0.536642 0.208494
C122  C     C_R   0.802261 0.694714 0.552699 -0.044094
C123  C     C_R   0.256860 0.204032 0.463355 0.208463
C124  C     C_R   0.230652 0.823363 0.472751 0.207503
C125  C     C_R   0.769348 0.176637 0.527250 0.207497
C126  C     C_R   0.792813 0.738530 0.587642 0.209137
C127  C     C_R   0.207187 0.261471 0.412358 0.209140
C128  C     C_R   0.177058 0.769280 0.416436 0.209275
C129  C     C_R   0.822942 0.230720 0.583564 0.209279
C130  C     C_R   0.292812 0.238528 0.587642 0.209142
C131  C     C_R   0.707184 0.761468 0.412356 0.209136
C132  C     C_R   0.677059 0.269279 0.416435 0.209279
H1    H     H_    0.999117 0.626814 0.030302 0.122614
H2    H     H_    0.830627 0.734041 0.004066 0.146089
H3    H     H_    0.148704 0.864846 0.992601 0.103813
H4    H     H_    0.153907 0.434103 0.576197 0.153367
H5    H     H_    0.155979 0.336552 0.580594 0.183865
H6    H     H_    0.160163 0.386488 0.644327 0.109936
H7    H     H_    0.844027 0.663455 0.419414 0.183854
H8    H     H_    0.846096 0.565904 0.423811 0.153379
H9    H     H_    0.839838 0.613516 0.355677 0.109936
H10   H     H_    0.653896 0.934087 0.576189 0.153352
H11   H     H_    0.655956 0.836535 0.580565 0.183859
H12   H     H_    0.660146 0.886460 0.644309 0.109946
H13   H     H_    0.835534 0.261888 0.011282 0.160041
H14   H     H_    0.344057 0.163467 0.419463 0.183856
H15   H     H_    0.346109 0.065915 0.423813 0.153361
H16   H     H_    0.339856 0.113563 0.355700 0.109956
H17   H     H_    0.164466 0.738111 0.988718 0.160041
H18   H     H_    0.669373 0.765959 0.995934 0.146088
H19   H     H_    0.330627 0.234041 0.004066 0.146089
H20   H     H_    0.335534 0.761888 0.011282 0.160042
H21   H     H_    0.664466 0.238112 0.988718 0.160042
H22   H     H_    0.185125 0.552512 0.211271 0.100482
H23   H     H_    0.134533 0.638118 0.159414 0.109037
H24   H     H_    0.211396 0.624821 0.194497 0.151482
H25   H     H_    0.000883 0.373186 0.969698 0.122617
H26   H     H_    0.865467 0.361882 0.840585 0.109038
H27   H     H_    0.814875 0.447488 0.788729 0.100481
H28   H     H_    0.788604 0.375179 0.805503 0.151482
H29   H     H_    0.685115 0.052536 0.211266 0.100480
H30   H     H_    0.634517 0.138138 0.159395 0.109039
H31   H     H_    0.711385 0.124841 0.194485 0.151482
H32   H     H_    0.365483 0.861862 0.840605 0.109040
H33   H     H_    0.314885 0.947465 0.788734 0.100481
H34   H     H_    0.288616 0.875159 0.805515 0.151482
H35   H     H_    0.291258 0.424606 0.592156 0.131392
H36   H     H_    0.889578 0.561365 0.856535 0.098819
H37   H     H_    0.345010 0.366934 0.689334 0.153020
H38   H     H_    0.280377 0.430150 0.650529 0.123342
H39   H     H_    0.654983 0.633056 0.310675 0.153011
H40   H     H_    0.708749 0.575383 0.407858 0.131398
H41   H     H_    0.719612 0.569844 0.349465 0.123350
H42   H     H_    0.646743 0.396869 0.449184 0.150373
H43   H     H_    0.679411 0.483111 0.458661 0.119172
H44   H     H_    0.742056 0.423006 0.553416 0.084909
H45   H     H_    0.320575 0.516887 0.541314 0.119177
H46   H     H_    0.353251 0.603128 0.550802 0.150371
H47   H     H_    0.110422 0.438635 0.143465 0.098820
H48   H     H_    0.257935 0.577001 0.446568 0.084908
H49   H     H_    0.791390 0.924500 0.592254 0.131189
H50   H     H_    0.844983 0.866921 0.689436 0.153093
H51   H     H_    0.780290 0.930236 0.650378 0.123405
H52   H     H_    0.154981 0.133065 0.310666 0.153019
H53   H     H_    0.208735 0.075394 0.407844 0.131388
H54   H     H_    0.219608 0.069843 0.349464 0.123361
H55   H     H_    0.146730 0.896875 0.449169 0.150387
H56   H     H_    0.179425 0.983113 0.458684 0.119173
H57   H     H_    0.242048 0.922987 0.553419 0.084904
H58   H     H_    0.499104 0.126814 0.030289 0.122616
H59   H     H_    0.820589 0.016889 0.541338 0.119199
H60   H     H_    0.853242 0.103132 0.550791 0.150351
H61   H     H_    0.757930 0.076983 0.446573 0.084909
H62   H     H_    0.785618 0.624970 0.638440 0.081247
H63   H     H_    0.741707 0.702134 0.626314 0.138095
H64   H     H_    0.827545 0.668236 0.735301 0.134831
H65   H     H_    0.214491 0.374998 0.361678 0.081183
H66   H     H_    0.172450 0.331817 0.264713 0.134820
H67   H     H_    0.258272 0.297802 0.373624 0.138168
H68   H     H_    0.033408 0.809964 0.205715 0.127923
H69   H     H_    0.500896 0.873186 0.969711 0.122616
H70   H     H_    0.111761 0.758270 0.265262 0.109151
H71   H     H_    0.119477 0.855350 0.286384 0.150440
H72   H     H_    0.888234 0.241714 0.734734 0.109138
H73   H     H_    0.966599 0.190042 0.794286 0.127923
H74   H     H_    0.880541 0.144636 0.713625 0.150449
H75   H     H_    0.327546 0.168181 0.735284 0.134825
H76   H     H_    0.285546 0.124980 0.638352 0.081196
H77   H     H_    0.241718 0.202157 0.626350 0.138146
H78   H     H_    0.714450 0.875012 0.361641 0.081199
H79   H     H_    0.672451 0.831807 0.264712 0.134826
H80   H     H_    0.389572 0.061354 0.856529 0.098819
H81   H     H_    0.758279 0.797832 0.373648 0.138144
H82   H     H_    0.533408 0.309960 0.205713 0.127924
H83   H     H_    0.611766 0.258273 0.265263 0.109145
H84   H     H_    0.619474 0.355352 0.286380 0.150443
H85   H     H_    0.388239 0.741714 0.734736 0.109142
H86   H     H_    0.466600 0.690036 0.794283 0.127924
H87   H     H_    0.380539 0.644636 0.713620 0.150447
H88   H     H_    0.720394 0.576074 0.097232 0.135619
H89   H     H_    0.700766 0.579720 0.009204 0.114609
H90   H     H_    0.656516 0.642300 0.010117 0.095991
H91   H     H_    0.610428 0.938646 0.143471 0.098819
H92   H     H_    0.299234 0.420280 0.990796 0.114610
H93   H     H_    0.279606 0.423926 0.902767 0.135618
H94   H     H_    0.343484 0.357700 0.989882 0.095992
H95   H     H_    0.289176 0.568199 0.920818 0.133575
H96   H     H_    0.301361 0.575587 0.002087 0.114210
H97   H     H_    0.351296 0.635154 0.007399 0.103815
H98   H     H_    0.698639 0.424413 0.997912 0.114210
H99   H     H_    0.710824 0.431801 0.079181 0.133576
H100  H     H_    0.648704 0.364847 0.992601 0.103814
H101  H     H_    0.220393 0.076074 0.097231 0.135619
H102  H     H_    0.169373 0.265958 0.995933 0.146089
H103  H     H_    0.200765 0.079719 0.009203 0.114610
H104  H     H_    0.156516 0.142299 0.010117 0.095991
H105  H     H_    0.799234 0.920280 0.990797 0.114610
H106  H     H_    0.779607 0.923926 0.902768 0.135617
H107  H     H_    0.843484 0.857700 0.989883 0.095991
H108  H     H_    0.789176 0.068199 0.920818 0.133576
H109  H     H_    0.801361 0.075587 0.002087 0.114209
H110  H     H_    0.851296 0.135154 0.007399 0.103813
H111  H     H_    0.198639 0.924413 0.997913 0.114210
H112  H     H_    0.210824 0.931801 0.079182 0.133576
O1    O     O_3   0.999990 0.500000 0.250040 -0.468417
O2    O     O_R   0.585480 0.853830 0.866170 -0.554083
O3    O     O_R   0.585480 0.146170 0.866170 -0.551674
O4    O     O_R   0.414520 0.853830 0.133830 -0.551674
O5    O     O_R   0.085470 0.353820 0.304740 -0.500883
O6    O     O_R   0.914530 0.646180 0.695260 -0.500888
O7    O     O_R   0.914530 0.353820 0.695260 -0.527776
O8    O     O_R   0.085470 0.646180 0.304740 -0.527779
O9    O     O_R   0.585470 0.853820 0.304740 -0.500898
O10   O     O_R   0.414530 0.146180 0.695260 -0.500889
O11   O     O_R   0.414530 0.853820 0.695260 -0.527779
O12   O     O_3   0.000010 0.500000 0.749960 -0.468417
O13   O     O_R   0.585470 0.146180 0.304740 -0.527777
O14   O     O_R   0.853810 0.414550 0.134600 -0.499448
O15   O     O_R   0.146190 0.585450 0.865400 -0.499448
O16   O     O_R   0.146190 0.414550 0.865400 -0.502830
O17   O     O_R   0.853810 0.585450 0.134600 -0.502830
O18   O     O_R   0.353810 0.914550 0.134600 -0.499447
O19   O     O_R   0.646190 0.085450 0.865400 -0.499447
O20   O     O_R   0.646190 0.914550 0.865400 -0.502830
O21   O     O_R   0.353810 0.085450 0.134600 -0.502830
O22   O     O_R   0.146170 0.585430 0.426970 -0.510437
O23   O     O_3   0.499990 1.000000 0.250040 -0.468421
O24   O     O_R   0.853830 0.414570 0.573030 -0.510436
O25   O     O_R   0.853830 0.585430 0.573030 -0.514696
O26   O     O_R   0.146170 0.414570 0.426970 -0.514695
O27   O     O_R   0.646170 0.085430 0.426970 -0.510429
O28   O     O_R   0.353830 0.914570 0.573030 -0.510432
O29   O     O_R   0.353830 0.085430 0.573030 -0.514691
O30   O     O_R   0.646170 0.914570 0.426970 -0.514648
O31   O     O_R   0.939250 0.500000 0.306600 -0.522971
O32   O     O_R   0.060750 0.500000 0.693400 -0.522970
O33   O     O_R   0.439250 1.000000 0.306600 -0.522968
O34   O     O_3   0.500010 1.000000 0.749960 -0.468418
O35   O     O_R   0.560750 0.000000 0.693400 -0.522966
O36   O     O_R   0.999990 0.560720 0.132740 -0.567665
O37   O     O_R   0.000010 0.439280 0.867260 -0.567664
O38   O     O_R   0.000010 0.560720 0.867260 -0.513539
O39   O     O_R   0.999990 0.439280 0.132740 -0.513535
O40   O     O_R   0.499990 0.060720 0.132740 -0.567666
O41   O     O_R   0.500010 0.939280 0.867260 -0.567665
O42   O     O_R   0.500010 0.060720 0.867260 -0.513532
O43   O     O_R   0.499990 0.939280 0.132740 -0.513533
O44   O     O_R   0.060720 0.500000 0.428060 -0.541381
O45   O     O_R   0.914520 0.646170 0.133830 -0.554082
O46   O     O_R   0.939280 0.500000 0.571940 -0.541384
O47   O     O_R   0.560720 0.000000 0.428060 -0.541388
O48   O     O_R   0.439280 1.000000 0.571940 -0.541387
O49   O     O_3   0.119120 0.569909 0.079975 -0.544068
O50   O     O_3   0.880880 0.430091 0.920025 -0.544068
O51   O     O_3   0.619114 0.069920 0.079969 -0.544067
O52   O     O_3   0.380886 0.930080 0.920031 -0.544067
O53   O     O_3   0.234873 0.339032 0.572094 -0.552025
O54   O     O_3   0.765121 0.660961 0.427903 -0.552021
O55   O     O_3   0.711228 0.395567 0.446617 -0.543903
O56   O     O_R   0.085480 0.353830 0.866170 -0.554083
O57   O     O_3   0.288772 0.604432 0.553377 -0.543905
O58   O     O_3   0.734866 0.839034 0.572086 -0.552039
O59   O     O_3   0.265120 0.160962 0.427902 -0.552042
O60   O     O_3   0.211228 0.895568 0.446622 -0.543901
O61   O     O_3   0.788772 0.104433 0.553382 -0.543887
O62   O     O_3   0.833400 0.726806 0.673007 -0.526066
O63   O     O_3   0.166604 0.273203 0.326997 -0.526039
O64   O     O_3   0.104755 0.788582 0.336937 -0.532342
O65   O     O_3   0.895246 0.211418 0.663061 -0.532339
O66   O     O_3   0.333393 0.226795 0.673002 -0.526037
O67   O     O_R   0.085480 0.646170 0.866170 -0.551672
O68   O     O_3   0.666602 0.773199 0.326995 -0.526031
O69   O     O_3   0.604755 0.288581 0.336935 -0.532338
O70   O     O_3   0.395246 0.711417 0.663058 -0.532341
O71   O     O_3   0.766613 0.662845 0.105216 -0.531398
O72   O     O_3   0.233387 0.337155 0.894784 -0.531398
O73   O     O_3   0.240182 0.657462 0.904389 -0.526911
O74   O     O_3   0.759817 0.342538 0.095611 -0.526912
O75   O     O_3   0.266613 0.162845 0.105215 -0.531399
O76   O     O_3   0.733387 0.837155 0.894784 -0.531399
O77   O     O_3   0.740182 0.157461 0.904389 -0.526910
O78   O     O_R   0.914520 0.353830 0.133830 -0.551675
O79   O     O_3   0.259818 0.842538 0.095611 -0.526910
O80   O     O_3   0.058433 0.381548 0.504892 -0.548978
O81   O     O_3   0.941570 0.618454 0.495111 -0.548982
O82   O     O_3   0.558415 0.881540 0.504874 -0.548981
O83   O     O_3   0.441591 0.118463 0.495133 -0.548989
O84   O     O_R   0.414520 0.146170 0.133830 -0.554082
Zn1   Zn    Zn3+2 0.000000 0.413230 0.206100 0.966749
Zn2   Zn    Zn3+2 0.086780 0.500000 0.792790 0.985063
Zn3   Zn    Zn3+2 0.413220 1.000000 0.207210 0.985062
Zn4   Zn    Zn3+2 0.586780 0.000000 0.792790 0.985063
Zn5   Zn    Zn3+2 0.086760 0.500000 0.380740 0.960494
Zn6   Zn    Zn3+2 0.913240 0.500000 0.619260 0.960489
Zn7   Zn    Zn3+2 0.586760 1.000000 0.380740 0.960507
Zn8   Zn    Zn3+2 0.413240 0.000000 0.619260 0.960495
Zn9   Zn    Zn3+2 0.000000 0.586770 0.793900 0.966741
Zn10  Zn    Zn3+2 1.000000 0.413230 0.793900 0.925050
Zn11  Zn    Zn3+2 1.000000 0.586770 0.206100 0.925051
Zn12  Zn    Zn3+2 0.500000 0.913230 0.206100 0.966744
Zn13  Zn    Zn3+2 0.500000 0.086770 0.793900 0.966746
Zn14  Zn    Zn3+2 0.500000 0.913230 0.793900 0.925051
Zn15  Zn    Zn3+2 0.500000 0.086770 0.206100 0.925049
Zn16  Zn    Zn3+2 0.913220 0.500000 0.207210 0.985062

loop_
_geom_bond_atom_site_label_1
_geom_bond_atom_site_label_2
_ccdc_geom_bond_type
C90   O27   A    
C1    O17   A    
C109  O50   S    
C32   H109  S    
Br1   C73   S    
C103  C108  S    
C104  C116  S    
Br3   C75   S    
C24   C119  A    
C82   O5    A    
C36   H9    S    
C99   H1    S    
O40   Zn15  S    
C58   C66   A    
C121  O58   S    
C21   H75   S    
C30   O75   S    
O1    Zn1   S    
C88   O28   A    
C30   H104  S    
C130  O66   S    
C42   O71   S    
O9    Zn12  S    
C72   O83   S    
C23   H84   S    
C56   O15   A    
C57   H19   S    
C35   C87   S    
C25   H86   S    
C24   C129  A    
C92   O32   A    
C35   C123  A    
C42   C61   A    
C43   C60   A    
C94   O35   A    
C2    C127  A    
O12   Zn9   S    
C127  O63   S    
C99   C108  S    
C5    H28   S    
C106  H80   S    
Br2   C74   S    
C54   H17   S    
C50   C66   A    
C20   H73   S    
C11   H48   S    
C5    O50   S    
C29   H100  S    
O15   Zn2   S    
C125  C129  A    
C18   H67   S    
O32   Zn2   S    
C7    H33   S    
C17   O62   S    
O1    Zn16  S    
C70   C77   A    
C106  C112  S    
C36   O81   S    
C8    H38   S    
C9    H39   S    
C14   H54   S    
C23   O69   S    
C18   H65   S    
C19   H71   S    
C118  O54   S    
C102  H36   S    
O45   Zn11  S    
C45   O56   A    
C50   O79   S    
C48   O76   S    
C26   H88   S    
O18   Zn3   S    
C66   C111  S    
C33   H111  S    
C22   H78   S    
C21   H77   S    
C87   O10   A    
C27   H93   S    
C47   C51   A    
C44   C63   A    
C123  C127  A    
C81   C93   S    
O19   Zn4   S    
C54   C63   A    
O12   Zn6   S    
C67   O78   A    
C69   C73   A    
C28   O73   S    
C96   C113  S    
C47   C65   A    
C4    H23   S    
C71   C75   A    
C69   C79   A    
C10   H44   S    
C98   C115  S    
C15   H55   S    
C35   C130  A    
O21   Zn3   S    
C31   H107  S    
C124  O60   S    
C26   H90   S    
C53   C62   A    
C39   C121  A    
C89   O20   A    
O34   Zn13  S    
C101  C103  S    
O1    Zn11  S    
C101  C109  S    
Br4   C76   S    
C105  C107  S    
C75   C80   A    
C21   O66   S    
C11   H46   S    
C96   O38   A    
O26   Zn5   S    
C32   O77   S    
C5    H27   S    
C41   C88   S    
C65   C78   S    
C6    O51   S    
C83   O6    A    
C37   H10   S    
C56   C63   S    
C16   O61   S    
C53   H13   S    
C18   O63   S    
O44   Zn5   S    
C103  C114  S    
C110  C115  S    
C111  O18   A    
C67   O14   A    
C45   C60   S    
C27   H92   S    
O16   Zn2   S    
C46   C59   A    
C31   O76   S    
C17   H63   S    
C27   O72   S    
C45   O16   A    
O39   Zn1   S    
C84   O7    A    
C16   H61   S    
C102  C109  S    
C85   O22   A    
C40   C90   S    
C125  O61   S    
C112  C116  S    
C78   O84   A    
O12   Zn2   S    
O6    Zn9   S    
C93   O33   A    
O43   Zn12  S    
C13   C120  A    
C44   C58   A    
C6    H30   S    
C49   O77   S    
O24   Zn6   S    
C19   O64   S    
C59   C68   A    
C105  H69   S    
C38   H15   S    
C38   O83   S    
C10   H42   S    
C23   H82   S    
C98   O41   A    
C31   H105  S    
C9    O54   S    
C34   H5    S    
C101  H25   S    
C59   H21   S    
C104  H58   S    
C88   O11   A    
C89   O2    A    
C126  O62   S    
O33   Zn3   S    
C97   C116  S    
C72   C76   A    
C106  C115  S    
C15   H57   S    
C2    C82   S    
C19   H68   S    
O3    Zn13  S    
O41   Zn14  S    
C49   C68   A    
C37   H12   S    
O14   Zn16  S    
O5    Zn1   S    
C104  C106  S    
C14   O59   S    
O23   Zn15  S    
C36   H7    S    
O23   Zn12  S    
C83   O25   A    
C2    C117  A    
C83   C122  S    
C22   H81   S    
C40   C132  A    
C23   H83   S    
C100  O19   A    
C129  O65   S    
C4    H22   S    
C72   C80   A    
C28   H96   S    
C14   H53   S    
C25   H85   S    
C78   O21   A    
C12   H49   S    
C108  C113  S    
O12   Zn10  S    
C122  C126  A    
C41   C124  A    
C104  C110  S    
C87   O29   A    
C25   O70   S    
C105  C112  S    
C74   C79   A    
C71   C81   A    
O23   Zn3   S    
C8    O53   S    
C85   O8    A    
O7    Zn10  S    
C10   O55   S    
C117  C130  A    
C3    C120  A    
C16   H59   S    
C29   H99   S    
C95   O36   A    
C13   C128  A    
C101  C113  S    
C55   H18   S    
C8    H35   S    
C28   H97   S    
C39   C86   S    
C18   H66   S    
O8    Zn11  S    
C32   H108  S    
C77   C92   S    
C49   C53   A    
C68   C100  S    
C40   C125  A    
C20   H72   S    
O34   Zn4   S    
C21   H76   S    
C76   C81   A    
C70   O81   S    
C1    O45   A    
C46   O74   S    
C62   C67   S    
C73   C77   A    
C123  O59   S    
C13   C85   S    
O38   Zn9   S    
C30   H103  S    
O13   Zn15  S    
C71   O82   S    
O28   Zn8   S    
C102  C113  S    
C7    H32   S    
O56   Zn10  S    
C99   C114  S    
C4    H24   S    
C82   O26   A    
C97   O43   A    
C105  C115  S    
C25   H87   S    
C20   H74   S    
C37   O82   S    
C93   O47   A    
C94   O48   A    
C64   C89   S    
C20   O65   S    
C12   H51   S    
C43   C57   A    
C95   O39   A    
C44   O73   S    
O34   Zn14  S    
C86   O30   A    
O30   Zn7   S    
C107  H91   S    
C26   O71   S    
C9    H41   S    
C11   H45   S    
C14   H52   S    
C58   H20   S    
C29   O74   S    
C107  C110  S    
C51   H102  S    
C92   O46   A    
C118  C131  A    
C131  O68   S    
C90   O13   A    
C4    O49   S    
C7    H34   S    
C70   C74   A    
C43   O72   S    
O31   Zn16  S    
C22   H79   S    
C86   O9    A    
C8    H37   S    
C9    H40   S    
C3    O70   S    
C42   C55   A    
O10   Zn13  S    
C32   H110  S    
O48   Zn8   S    
C17   H62   S    
C7    O52   S    
C47   O75   S    
C33   H112  S    
O11   Zn14  S    
C3    C41   A    
C33   O79   S    
C52   C61   A    
C27   H94   S    
O25   Zn6   S    
O4    Zn12  S    
C30   H101  S    
C121  C126  A    
C84   O24   A    
C6    H31   S    
C24   C84   S    
O1    Zn5   S    
C38   H16   S    
C10   H43   S    
C48   C64   A    
C15   H56   S    
C98   O42   A    
C28   H95   S    
C100  O3    A    
O46   Zn6   S    
O78   Zn1   S    
C34   H6    S    
C26   H89   S    
C120  O57   S    
O27   Zn7   S    
C124  C128  A    
O17   Zn16  S    
C56   O67   A    
C11   O57   S    
C91   O31   A    
C1    C61   S    
O35   Zn4   S    
O23   Zn7   S    
C111  O4    A    
C22   O68   S    
C96   O37   A    
C117  O53   S    
C97   O40   A    
C103  H47   S    
C107  C116  S    
C118  C122  A    
C119  O55   S    
O67   Zn9   S    
C55   C64   A    
C52   H2    S    
C37   H11   S    
O29   Zn8   S    
C132  O69   S    
C79   C91   S    
C51   C60   A    
O36   Zn11  S    
O37   Zn10  S    
C91   O44   A    
C128  O64   S    
C39   C131  A    
C46   C62   A    
C12   O58   S    
O20   Zn4   S    
C36   H8    S    
C19   H70   S    
C17   H64   S    
C50   C54   A    
C57   C65   A    
O34   Zn8   S    
O2    Zn14  S    
C15   O60   S    
C108  O49   S    
O22   Zn5   S    
C119  C132  A    
C80   C94   S    
O42   Zn13  S    
O47   Zn7   S    
C12   H50   S    
C95   C114  S    
C110  O51   S    
C6    H29   S    
C99   C102  S    
C5    H26   S    
C38   H14   S    
C34   O80   S    
O84   Zn15  S    
C109  C114  S    
C69   O80   S    
C112  O52   S    
C31   H106  S    
C33   H3    S    
C34   H4    S    
C16   H60   S    
C29   H98   S    
C48   C52   A    
