data_mof_unit_6573.cif
_audit_creation_date              2012-10-26T20:00:54-0400
_audit_creation_method            fapswitch 2.2
_symmetry_space_group_name_H-M    P1
_symmetry_Int_Tables_number       1
_space_group_crystal_system       triclinic
_cell_length_a                    11.793304
_cell_length_b                    13.012432
_cell_length_c                    13.315107
_cell_angle_alpha                 94.223563
_cell_angle_beta                  76.286482
_cell_angle_gamma                 99.828867
_cell_volume                      1954.76943166

loop_
_atom_site_label
_atom_site_type_symbol
_atom_type_description
_atom_site_fract_x
_atom_site_fract_y
_atom_site_fract_z
_atom_type_partial_charge
C1    C     C_R   0.521417 0.700709 0.501012 0.562621
C2    C     C_R   0.398574 0.488561 0.808843 -0.025435
C3    C     C_R   0.459847 0.185371 0.510309 0.018743
C4    C     C_R   0.436676 0.497358 0.696180 0.577030
C5    C     C_R   0.534064 0.814593 0.502856 -0.011097
C6    C     C_R   0.652221 0.986640 0.495238 -0.117528
C7    C     C_R   0.645240 0.878494 0.495244 0.269183
C8    C     C_R   0.431989 0.859884 0.514553 -0.170219
C9    C     C_R   0.438633 0.967912 0.516080 0.052512
C10   C     C_R   0.550088 0.031204 0.505952 -0.035368
C11   C     C_R   0.559235 0.138585 0.504857 -0.178941
C12   C     C_R   0.456085 0.496453 0.973864 -0.030394
C13   C     C_R   0.346586 0.123017 0.524186 0.102209
C14   C     C_R   0.336268 0.013609 0.526842 0.109974
C15   C     C_R   0.934447 0.576777 0.612946 -0.172045
C16   C     C_R   0.477047 0.299295 0.502675 0.547036
C17   C     C_R   0.818730 0.570784 0.601621 -0.014306
C18   C     C_R   0.863159 0.469780 0.444847 0.438393
C19   C     C_R   0.980193 0.467312 0.457833 -0.009391
C20   C     C_R   0.016743 0.525274 0.541125 -0.036616
C21   C     C_R   0.134747 0.531111 0.551784 0.209305
C22   C     C_R   0.179369 0.418419 0.404320 0.250511
C23   C     C_R   0.471165 0.537660 0.875220 0.022572
C24   C     C_R   0.061372 0.408316 0.391904 0.247923
C25   C     C_R   0.563858 0.506704 0.304168 0.548352
C26   C     C_R   0.695479 0.670385 0.073844 0.091017
C27   C     C_R   0.602768 0.534621 0.195612 0.028775
C28   C     C_R   0.297401 0.417031 0.848510 -0.112054
C29   C     C_R   0.271088 0.388971 0.951364 0.103326
C30   C     C_R   0.351078 0.427406 0.013010 -0.099793
C31   C     C_3   0.795551 0.852908 0.566266 -0.106191
C32   C     C_3   0.020586 0.236742 0.336577 -0.159886
C33   C     C_3   0.786897 0.338348 0.340561 -0.011100
C34   C     C_R   0.540958 0.532171 0.033974 0.014627
C35   C     C_3   0.477135 0.755481 0.790345 -0.138321
C36   C     C_R   0.623286 0.624612 0.005928 -0.009372
C37   C     C_R   0.629225 0.670937 0.912695 -0.126073
C38   C     C_R   0.554216 0.629371 0.848101 0.261500
C39   C     C_R   0.545639 0.480118 0.122593 0.092632
C40   C     C_R   0.680071 0.627646 0.170004 -0.080078
Cu1   Cu    Cu3+1 0.386470 0.492430 0.492410 0.969742
Cu2   Cu    Cu3+1 0.613530 0.507570 0.507590 1.023140
H1    H     H_    0.725975 0.668996 0.226201 0.169743
H2    H     H_    0.187768 0.151992 0.610358 0.220814
H3    H     H_    0.197341 0.141012 0.480709 0.209065
H4    H     H_    0.184641 0.960490 0.479148 0.232854
H5    H     H_    0.168434 0.969831 0.609735 0.224729
H6    H     H_    0.729403 0.824327 0.637088 0.147690
H7    H     H_    0.831041 0.936775 0.576907 0.090423
H8    H     H_    0.870343 0.808712 0.555607 0.147861
H9    H     H_    0.167436 0.534378 0.695127 0.249256
H10   H     H_    0.244304 0.638262 0.620835 0.270852
H11   H     H_    0.249815 0.363003 0.261396 0.214517
H12   H     H_    0.737988 0.035683 0.484889 0.105842
H13   H     H_    0.246286 0.285039 0.359480 0.219779
H14   H     H_    0.011871 0.223024 0.420075 0.093080
H15   H     H_    0.097988 0.204767 0.288524 0.119316
H16   H     H_    0.942354 0.189915 0.313827 0.124299
H17   H     H_    0.694280 0.332368 0.334281 0.146693
H18   H     H_    0.792589 0.290070 0.404120 0.074811
H19   H     H_    0.831379 0.304221 0.265886 0.158891
H20   H     H_    0.840255 0.751032 0.981819 0.232057
H21   H     H_    0.734097 0.823713 0.040297 0.227319
H22   H     H_    0.511721 0.332182 0.057463 0.235929
H23   H     H_    0.346900 0.810417 0.522156 0.177756
H24   H     H_    0.439912 0.347673 0.183680 0.239737
H25   H     H_    0.171983 0.246500 0.952971 0.219693
H26   H     H_    0.155561 0.307372 0.069823 0.245313
H27   H     H_    0.499362 0.811432 0.852814 0.113543
H28   H     H_    0.384706 0.714210 0.814235 0.124035
H29   H     H_    0.482325 0.801709 0.722333 0.130923
H30   H     H_    0.958330 0.621360 0.678830 0.147549
H31   H     H_    0.756957 0.609649 0.658425 0.168628
H32   H     H_    0.690366 0.741582 0.889398 0.114171
H33   H     H_    0.240158 0.380615 0.798777 0.138346
H34   H     H_    0.328038 0.406153 0.092643 0.117297
H35   H     H_    0.645039 0.185685 0.499202 0.113310
N1    N     N_R   0.215880 0.481050 0.481000 -0.217016
N2    N     N_R   0.784100 0.518950 0.519000 -0.229127
N3    N     N_3   0.242503 0.170678 0.537914 -0.613106
N4    N     N_3   0.222670 0.948623 0.539836 -0.658134
N5    N     N_3   0.165159 0.587305 0.640763 -0.636600
N6    N     N_3   0.262013 0.362022 0.336379 -0.552002
N7    N     N_3   0.779084 0.764077 0.050568 -0.628577
N8    N     N_3   0.518264 0.368342 0.129024 -0.648459
N9    N     N_3   0.164307 0.318941 0.991270 -0.608577
O1    O     O_R   0.419710 0.645650 0.494620 -0.537820
O2    O     O_3   0.027411 0.342809 0.313724 -0.561856
O3    O     O_3   0.838828 0.443955 0.348339 -0.502539
O4    O     O_3   0.557868 0.684163 0.761950 -0.582982
O5    O     O_R   0.611450 0.658430 0.507430 -0.428153
O6    O     O_R   0.357340 0.490460 0.641450 -0.530487
O7    O     O_R   0.549080 0.503250 0.654260 -0.470027
O8    O     O_R   0.388550 0.341570 0.492570 -0.444254
O9    O     O_R   0.580290 0.354350 0.505380 -0.542631
O10   O     O_R   0.450920 0.496750 0.345740 -0.466269
O11   O     O_R   0.642660 0.509540 0.358550 -0.465826
O12   O     O_3   0.747950 0.835257 0.477627 -0.538595

loop_
_geom_bond_atom_site_label_1
_geom_bond_atom_site_label_2
_ccdc_geom_bond_type
C1    O1    A    
C37   H32   S    
C7    O12   S    
Cu2   O7    S    
H26   N9    S    
Cu1   Cu2   S    
C19   C20   A    
C32   H16   S    
H24   N8    S    
C15   H30   S    
C12   C23   A    
C29   C30   A    
C1    C5    S    
C28   C29   A    
C6    H12   S    
C18   C19   A    
Cu1   O10   S    
C32   O2    S    
C17   N2    A    
Cu2   O5    S    
C31   O12   S    
C11   H35   S    
C40   H1    S    
C35   H28   S    
C27   C39   A    
C18   N2    A    
C16   O9    A    
C21   N1    A    
C9    C10   A    
C3    C13   A    
C13   N3    S    
C35   H29   S    
Cu2   N2    S    
C33   H17   S    
C13   C14   A    
C17   H31   S    
C32   H15   S    
C31   H7    S    
C15   C20   A    
Cu1   O1    S    
Cu2   O9    S    
H2    N3    S    
C22   N1    A    
Cu2   O11   S    
Cu1   N1    S    
C5    C7    A    
C8    C9    A    
C34   C39   A    
C2    C4    S    
C9    C14   A    
C37   C38   A    
C33   O3    S    
H4    N4    S    
C30   H34   S    
Cu1   O8    S    
C27   C40   A    
C21   N5    S    
H10   N5    S    
C24   O2    S    
H9    N5    S    
C29   N9    S    
C26   C36   A    
C33   H18   S    
C31   H6    S    
C22   C24   A    
C39   N8    S    
C31   H8    S    
H13   N6    S    
H22   N8    S    
C25   O11   A    
C15   C17   A    
H20   N7    S    
C36   C37   A    
H25   N9    S    
C26   N7    S    
C12   C30   A    
C18   O3    S    
C6    C10   A    
C5    C8    A    
C6    C7    A    
C25   C27   S    
C23   C38   A    
C38   O4    S    
C16   O8    A    
H21   N7    S    
H11   N6    S    
C22   N6    S    
C19   C24   A    
C26   C40   A    
H3    N3    S    
C34   C36   A    
H5    N4    S    
C3    C11   A    
C10   C11   A    
C4    O7    A    
C35   O4    S    
C8    H23   S    
Cu1   O6    S    
C20   C21   A    
C35   H27   S    
C25   O10   A    
C33   H19   S    
C1    O5    A    
C2    C23   A    
C2    C28   A    
C14   N4    S    
C28   H33   S    
C12   C34   A    
C32   H14   S    
C3    C16   S    
C4    O6    A    
