data_mof_unit_42100.cif
_audit_creation_date              2012-12-10T16:54:57-0500
_audit_creation_method            fapswitch 2.2
_symmetry_space_group_name_H-M    P1
_symmetry_Int_Tables_number       1
_space_group_crystal_system       triclinic
_cell_length_a                    7.770848
_cell_length_b                    8.576283
_cell_length_c                    15.728101
_cell_angle_alpha                 90.832449
_cell_angle_beta                  85.913915
_cell_angle_gamma                 93.622406
_cell_volume                      1043.39295381

loop_
_atom_site_label
_atom_site_type_symbol
_atom_type_description
_atom_site_fract_x
_atom_site_fract_y
_atom_site_fract_z
_atom_type_partial_charge
C1    C     C_R   0.545762 0.794725 0.497795 0.963098
C2    C     C_3   0.387702 0.630079 0.052011 -0.431015
C3    C     C_3   0.495079 0.497422 0.083012 -0.033397
C4    C     C_3   0.432219 0.332054 0.048996 -0.126686
C5    C     C_3   0.418747 0.337583 0.951320 0.497638
C6    C     C_1   0.492487 0.498879 0.174529 0.088484
C7    C     C_1   0.506304 0.497243 0.825534 0.159144
C8    C     C_1   0.506246 0.498493 0.750240 -0.096879
C9    C     C_2   0.569855 0.958196 0.496518 -0.359372
C10   C     C_2   0.430139 0.041802 0.503389 -0.358350
C11   C     C_R   0.502108 0.499969 0.661564 0.892427
C12   C     C_R   0.454235 0.205275 0.502169 0.965591
C13   C     C_R   0.497874 0.499965 0.338446 0.891522
C14   C     C_3   0.392681 0.629651 0.953817 0.313025
C15   C     C_3   0.689093 0.524230 0.946540 0.371748
C16   C     C_3   0.684420 0.529916 0.045220 0.328264
C17   C     C_1   0.493321 0.499669 0.249793 -0.161031
C18   C     C_3   0.502411 0.496097 0.917126 -0.159931
H1    H     H_    0.442603 0.745312 0.074292 0.210980
H2    H     H_    0.252593 0.622300 0.079487 0.237013
H3    H     H_    0.537566 0.253553 0.059715 0.182446
H4    H     H_    0.701825 0.009215 0.489958 0.183359
H5    H     H_    0.298168 0.990783 0.509942 0.183828
H6    H     H_    0.013423 0.382045 0.436559 0.193597
H7    H     H_    0.986578 0.617976 0.563427 0.203049
H8    H     H_    0.451044 0.744157 0.930001 0.148820
H9    H     H_    0.747900 0.636983 0.920566 0.157986
H10   H     H_    0.767754 0.440523 0.067907 0.139045
H11   H     H_    0.281542 0.324754 0.935340 0.173530
N1    N     N_2   0.950340 0.457950 0.477370 -0.169591
N2    N     N_2   0.049660 0.542050 0.522630 -0.164027
O1    O     O_R   0.389240 0.738570 0.505550 -0.613363
O2    O     O_R   0.678400 0.711630 0.491050 -0.629662
O3    O     O_R   0.355360 0.513470 0.630110 -0.594012
O4    O     O_R   0.644510 0.486530 0.615610 -0.611733
O5    O     O_R   0.321600 0.288370 0.508950 -0.626962
O6    O     O_R   0.610760 0.261430 0.494450 -0.612656
O7    O     O_R   0.355490 0.513470 0.384390 -0.624863
O8    O     O_R   0.644640 0.486530 0.369890 -0.608210
Zn1   Zn    Zn3+2 0.306930 0.517990 0.509680 0.976248
Zn2   Zn    Zn3+2 0.693070 0.482010 0.490320 0.971120
F1    F     F_    0.225704 0.612578 0.927543 -0.618064
F2    F     F_    0.792413 0.407100 0.915450 -0.591226
F3    F     F_    0.751881 0.674466 0.072263 -0.656491
F4    F     F_    0.500972 0.213431 0.912465 -0.612793
N3    N     N_2   0.277627 0.257605 0.093743 -0.306714
H12   H     H_    0.257635 0.141197 0.077425 0.260938
C19   C     C_3   0.118771 0.337477 0.104750 -0.684372
H13   H     H_    0.010167 0.252550 0.124918 0.231983
H14   H     H_    0.087636 0.391115 0.044448 0.283872
H15   H     H_    0.127936 0.426097 0.156499 0.242644

loop_
_geom_bond_atom_site_label_1
_geom_bond_atom_site_label_2
_ccdc_geom_bond_type
H7    N2    S    
C15   C18   S    
N1    Zn2   S    
C16   H10   S    
C10   H5    S    
C12   O5    A    
C9    C10   D    
C14   C18   S    
C15   H9    S    
C11   O3    A    
C13   C17   S    
C14   F1    S    
C3    C6    S    
O2    Zn2   S    
C7    C18   S    
C11   O4    A    
C2    C3    S    
C15   F2    S    
C7    C8    T    
O8    Zn2   S    
C4    N3    S    
C14   H8    S    
O7    Zn1   S    
C4    H3    S    
C13   O7    A    
C10   C12   S    
C8    C11   S    
C2    C14   S    
C19   H14   S    
C19   H13   S    
C5    F4    S    
C5    H11   S    
O1    Zn1   S    
O6    Zn2   S    
N1    N2    D    
O4    Zn2   S    
O3    Zn1   S    
C9    H4    S    
C13   O8    A    
H6    N1    S    
C1    O1    A    
C1    O2    A    
C3    C4    S    
N3    C19   S    
O5    Zn1   S    
C1    C9    S    
N2    Zn1   S    
C12   O6    A    
C6    C17   T    
C16   F3    S    
N3    H12   S    
C5    C18   S    
C2    H1    S    
C2    H2    S    
C19   H15   S    
C3    C16   S    
C15   C16   S    
C4    C5    S    
