data_mof_unit_9648.cif
_audit_creation_date              2012-12-10T20:26:25-0500
_audit_creation_method            fapswitch 2.2
_symmetry_space_group_name_H-M    P1
_symmetry_Int_Tables_number       1
_space_group_crystal_system       triclinic
_cell_length_a                    10.731178
_cell_length_b                    10.662187
_cell_length_c                    9.870658
_cell_angle_alpha                 89.950684
_cell_angle_beta                  90.355697
_cell_angle_gamma                 90.122918
_cell_volume                      1129.3544675

loop_
_atom_site_label
_atom_site_type_symbol
_atom_type_description
_atom_site_fract_x
_atom_site_fract_y
_atom_site_fract_z
_atom_type_partial_charge
C1    C     C_R   0.501956 0.260089 0.500231 0.893208
C2    C     C_R   0.517891 0.128644 0.502864 -0.157087
C3    C     C_R   0.582324 0.067826 0.398972 -0.194278
C4    C     C_R   0.591142 0.937184 0.399977 -0.026906
C5    C     C_R   0.527871 0.871429 0.503699 -0.210552
C6    C     C_R   0.485031 0.935636 0.616828 0.148758
C7    C     C_3   0.364910 0.924236 0.691871 -0.452759
C8    C     C_3   0.361065 0.066454 0.692471 -0.498105
C9    C     C_R   0.431529 0.413386 0.070800 0.229979
C10   C     C_R   0.576580 0.577357 0.072305 -0.117830
C11   C     C_R   0.576416 0.577583 0.928402 -0.117067
C12   C     C_R   0.262570 0.498878 0.499491 0.934096
C13   C     C_R   0.431520 0.413405 0.928296 0.225440
C14   C     C_3   0.293644 0.396885 0.921681 -0.517952
C15   C     C_3   0.293681 0.396790 0.075454 -0.502488
C16   C     C_R   0.507606 0.739684 0.500157 0.861520
C17   C     C_R   0.737356 0.505007 0.500362 0.919616
C18   C     C_2   0.932700 0.523023 0.386518 -0.156116
C19   C     C_2   0.868544 0.522930 0.501862 -0.338090
C20   C     C_2   0.066878 0.530014 0.389125 -0.153612
C21   C     C_2   0.130673 0.492307 0.498244 -0.335449
C22   C     C_R   0.481368 0.062953 0.617165 0.151656
H1    H     H_    0.887034 0.516597 0.288183 0.174780
H2    H     H_    0.372522 0.107258 0.795386 0.209502
H3    H     H_    0.636893 0.641293 0.126660 0.152890
H4    H     H_    0.636222 0.642093 0.874458 0.156057
H5    H     H_    0.245238 0.479427 0.877115 0.221778
H6    H     H_    0.266485 0.305070 0.877164 0.198981
H7    H     H_    0.245421 0.479345 0.119073 0.213261
H8    H     H_    0.266711 0.304872 0.119797 0.208517
H9    H     H_    0.911452 0.539358 0.600034 0.154018
H10   H     H_    0.113401 0.563460 0.298572 0.163695
H11   H     H_    0.087384 0.453455 0.587948 0.146907
H12   H     H_    0.623858 0.121691 0.317639 0.202729
H13   H     H_    0.289447 0.880777 0.629901 0.199044
H14   H     H_    0.378177 0.883025 0.794442 0.214284
H15   H     H_    0.283233 0.106159 0.631205 0.197678
N1    N     N_R   0.499170 0.499140 0.142800 -0.115069
N2    N     N_R   0.499170 0.499180 0.857150 -0.112760
O1    O     O_R   0.500020 0.316790 0.614690 -0.610368
O2    O     O_R   0.500000 0.316760 0.385350 -0.618458
O3    O     O_R   0.319080 0.500020 0.614640 -0.623492
O4    O     O_R   0.319070 0.499980 0.385300 -0.613454
O5    O     O_R   0.500000 0.683240 0.614650 -0.610877
O6    O     O_R   0.499980 0.683210 0.385310 -0.630157
O7    O     O_R   0.680930 0.500020 0.614700 -0.621054
O8    O     O_R   0.680920 0.499980 0.385360 -0.627891
Zn1   Zn    Zn3+2 0.500010 0.500020 0.653130 0.947959
Zn2   Zn    Zn3+2 0.499990 0.499980 0.346870 0.944323
C23   C     C_2   0.666833 0.873008 0.295630 0.411246
H16   H     H_    0.698471 0.777635 0.311638 0.066116
O9    O     O_2   0.697306 0.926994 0.191771 -0.586169

loop_
_geom_bond_atom_site_label_1
_geom_bond_atom_site_label_2
_ccdc_geom_bond_type
C16   O6    A    
C2    C22   A    
C8    C22   S    
C6    C7    S    
C8    H2    S    
C14   H5    S    
C7    H14   S    
C16   O5    A    
C23   O9    D    
C1    O1    A    
O6    Zn2   S    
C10   N1    A    
C19   H9    S    
C23   H16   S    
C9    C15   S    
C7    C8    S    
O8    Zn2   S    
N1    Zn2   S    
O3    Zn1   S    
C13   C14   S    
C17   O7    A    
C11   N2    A    
C3    H12   S    
C15   H8    S    
C10   H3    S    
O2    Zn2   S    
C9    N1    A    
C17   C19   S    
C15   H7    S    
C12   O4    A    
C2    C3    A    
C5    C6    A    
O7    Zn1   S    
C13   N2    A    
C21   H11   S    
C10   C11   A    
C18   H1    S    
C6    C22   A    
C17   O8    A    
C8    H15   S    
O5    Zn1   S    
C20   C21   D    
C18   C20   S    
C1    C2    S    
C20   H10   S    
C1    O2    A    
O1    Zn1   S    
C9    C13   A    
C14   C15   S    
C18   C19   D    
C5    C16   S    
C12   O3    A    
C11   H4    S    
C14   H6    S    
C7    H13   S    
C12   C21   S    
O4    Zn2   S    
C3    C4    A    
C4    C23   S    
C4    C5    A    
N2    Zn1   S    
