data_mof_unit_40715.cif
_audit_creation_date              2012-12-10T18:19:11-0500
_audit_creation_method            fapswitch 2.2
_symmetry_space_group_name_H-M    P1
_symmetry_Int_Tables_number       1
_space_group_crystal_system       triclinic
_cell_length_a                    14.950775
_cell_length_b                    14.124729
_cell_length_c                    11.587807
_cell_angle_alpha                 90.407239
_cell_angle_beta                  88.753081
_cell_angle_gamma                 90.207824
_cell_volume                      2446.40659787

loop_
_atom_site_label
_atom_site_type_symbol
_atom_type_description
_atom_site_fract_x
_atom_site_fract_y
_atom_site_fract_z
_atom_type_partial_charge
C1    C     C_R   0.327031 0.499746 0.502787 0.876754
C2    C     C_R   0.468832 0.202297 0.595710 0.438410
C3    C     C_R   0.467465 0.798570 0.595079 0.438308
C4    C     C_R   0.527277 0.198713 0.404704 0.422343
C5    C     C_R   0.478090 0.899124 0.604986 -0.038673
C6    C     C_R   0.510802 0.099574 0.398482 -0.045745
C7    C     C_R   0.515528 0.899100 0.398210 -0.030798
C8    C     C_R   0.479653 0.101800 0.605005 -0.059950
C9    C     C_R   0.496690 0.949562 0.502081 -0.110141
C10   C     C_R   0.496398 0.050010 0.502281 -0.086251
C11   C     C_R   0.469625 0.950428 0.712323 0.159816
C12   C     C_R   0.672967 0.500238 0.497133 0.876323
C13   C     C_R   0.505158 0.049645 0.292152 0.150272
C14   C     C_R   0.514289 0.948633 0.290728 0.162739
C15   C     C_R   0.472040 0.052179 0.711832 0.128250
C16   C     C_R   0.500145 0.499740 0.281888 0.894473
C17   C     C_R   0.499773 0.500283 0.718115 0.896010
C18   C     C_1   0.500030 0.499380 0.161405 -0.156675
C19   C     C_1   0.499675 0.500759 0.838605 -0.147749
C20   C     C_1   0.499870 0.499779 0.059340 0.010271
C21   C     C_1   0.499707 0.500490 0.940676 0.011752
C22   C     C_R   0.816322 0.445578 0.409874 0.377184
C23   C     C_R   0.909458 0.443579 0.414818 0.077657
C24   C     C_R   0.183634 0.553974 0.590176 0.374091
C25   C     C_R   0.768552 0.501351 0.491567 -0.169548
C26   C     C_R   0.231444 0.498555 0.508208 -0.169733
C27   C     C_R   0.811952 0.558038 0.571801 -0.296024
C28   C     C_R   0.188089 0.442095 0.427697 -0.298614
C29   C     C_R   0.904179 0.558014 0.575538 0.126677
C30   C     C_R   0.095850 0.442053 0.423996 0.126533
C31   C     C_R   0.953376 0.500326 0.497537 0.000844
C32   C     C_R   0.046635 0.499673 0.502059 0.001165
C33   C     C_3   0.466272 0.897302 0.827611 -0.345688
C34   C     C_R   0.090535 0.556254 0.584956 0.078789
C35   C     C_3   0.554901 0.847765 0.850669 -0.829356
C36   C     C_3   0.467785 0.101994 0.188443 -0.343446
C37   C     C_3   0.370571 0.072766 0.167757 -0.918905
C38   C     C_3   0.513667 0.894244 0.175803 -0.335925
C39   C     C_3   0.431509 0.829398 0.165234 -0.818499
C40   C     C_3   0.476527 0.107816 0.825059 -0.336442
C41   C     C_3   0.383091 0.125751 0.877384 -0.774211
C42   C     C_R   0.947650 0.613916 0.657182 -0.229335
C43   C     C_R   0.052378 0.386121 0.342384 -0.230604
C44   C     C_R   0.040275 0.612941 0.662140 -0.147507
C45   C     C_R   0.959736 0.386917 0.337612 -0.145407
C46   C     C_R   0.531484 0.799919 0.406373 0.443335
H1    H     H_    0.773381 0.600669 0.633173 0.168825
H2    H     H_    0.387262 0.300475 0.641242 0.372391
H3    H     H_    0.388045 0.699030 0.640884 0.387846
H4    H     H_    0.606895 0.296233 0.350983 0.387339
H5    H     H_    0.609430 0.901065 0.856729 0.238613
H6    H     H_    0.549877 0.809010 0.933518 0.251154
H7    H     H_    0.572648 0.796064 0.781585 0.285160
H8    H     H_    0.451749 0.942571 0.903178 0.179843
H9    H     H_    0.409067 0.847790 0.833237 0.261808
H10   H     H_    0.367561 0.010069 0.110232 0.267305
H11   H     H_    0.334779 0.057062 0.250532 0.271085
H12   H     H_    0.226692 0.399612 0.366206 0.169172
H13   H     H_    0.334120 0.131137 0.126044 0.251421
H14   H     H_    0.464997 0.179396 0.202162 0.259750
H15   H     H_    0.510510 0.092758 0.109829 0.193838
H16   H     H_    0.370422 0.864233 0.200943 0.250132
H17   H     H_    0.420546 0.811872 0.073090 0.238120
H18   H     H_    0.440596 0.761817 0.211332 0.296394
H19   H     H_    0.514638 0.941696 0.100690 0.182774
H20   H     H_    0.576192 0.853489 0.162520 0.250150
H21   H     H_    0.387651 0.180867 0.945664 0.250958
H22   H     H_    0.335910 0.150596 0.811721 0.293153
H23   H     H_    0.909960 0.658137 0.717477 0.152965
H24   H     H_    0.354074 0.060424 0.914979 0.225292
H25   H     H_    0.520059 0.072803 0.888005 0.167694
H26   H     H_    0.512251 0.176069 0.813052 0.245682
H27   H     H_    0.090076 0.341939 0.282050 0.152446
H28   H     H_    0.072183 0.656794 0.726434 0.202841
H29   H     H_    0.927834 0.342969 0.273408 0.204108
H30   H     H_    0.715852 0.423019 0.308572 0.327898
H31   H     H_    0.283525 0.574749 0.692708 0.327319
H32   H     H_    0.611527 0.700662 0.358044 0.376393
N1    N     N_R   0.500000 0.750030 0.500000 -0.210006
N2    N     N_R   0.500000 0.249970 0.500000 -0.203376
O1    O     O_R   0.367850 0.580280 0.500030 -0.627002
O2    O     O_3   0.225351 0.604559 0.676545 -0.777234
O3    O     O_3   0.582645 0.755530 0.322458 -0.784686
O4    O     O_3   0.421000 0.250281 0.679660 -0.773965
O5    O     O_3   0.420711 0.750574 0.679187 -0.764242
O6    O     O_3   0.576461 0.240778 0.317336 -0.767161
O7    O     O_R   0.632150 0.419720 0.499970 -0.620131
O8    O     O_R   0.632150 0.580280 0.499970 -0.642496
O9    O     O_R   0.367850 0.419720 0.500030 -0.643643
O10   O     O_R   0.500010 0.580270 0.334450 -0.606629
O11   O     O_R   0.499990 0.419730 0.665550 -0.592981
O12   O     O_R   0.499990 0.580270 0.665550 -0.602365
O13   O     O_R   0.500010 0.419730 0.334450 -0.611190
O14   O     O_3   0.774565 0.394207 0.324177 -0.772062
Zn1   Zn    Zn3+2 0.500000 0.607200 0.500000 0.948191
Zn2   Zn    Zn3+2 0.500000 0.392800 0.500000 0.954337

loop_
_geom_bond_atom_site_label_1
_geom_bond_atom_site_label_2
_ccdc_geom_bond_type
C33   H9    S    
C16   O10   A    
C23   C45   A    
C40   H25   S    
C29   C42   A    
C35   H7    S    
C2    O4    S    
C17   O11   A    
C3    N1    A    
O10   Zn1   S    
C41   H21   S    
C5    C9    A    
C39   H18   S    
C16   O13   A    
C36   C37   S    
C19   C21   T    
C24   C26   A    
C4    N2    A    
C46   N1    A    
O1    Zn1   S    
C3    O5    S    
C1    O1    A    
C27   C29   A    
C24   O2    S    
H30   O14   S    
O11   Zn2   S    
C37   H10   S    
C11   C15   A    
C43   H27   S    
C7    C14   A    
C38   H20   S    
C22   C25   A    
N2    Zn2   S    
C9    C10   A    
O8    Zn1   S    
C13   C14   A    
C22   O14   S    
C17   O12   A    
C42   C44   A    
H32   O3    S    
C41   H22   S    
C12   O8    A    
C7    C46   A    
H3    O5    S    
C11   C33   S    
C34   C44   A    
C13   C36   S    
C4    C6    A    
C17   C19   S    
C8    C15   A    
C36   H14   S    
O12   Zn1   S    
C24   C34   A    
H2    O4    S    
C32   C34   A    
N1    Zn1   S    
C14   C38   S    
C31   C32   A    
C38   H19   S    
O7    Zn2   S    
C44   H28   S    
C43   C45   A    
C37   H13   S    
C16   C18   S    
C40   C41   S    
O13   Zn2   S    
C35   H5    S    
C1    C26   S    
C30   C43   A    
C36   H15   S    
C27   H1    S    
C33   H8    S    
C7    C9    A    
C39   H16   S    
C1    O9    A    
C40   H26   S    
C12   O7    A    
C2    C8    A    
C3    C5    A    
C6    C10   A    
C5    C11   A    
C28   H12   S    
C25   C27   A    
C39   H17   S    
C26   C28   A    
C12   C25   S    
C45   H29   S    
O9    Zn2   S    
C28   C30   A    
C29   C31   A    
C6    C13   A    
C30   C32   A    
C38   C39   S    
H31   O2    S    
C33   C35   S    
C18   C20   T    
C42   H23   S    
C15   C40   S    
C2    N2    A    
H4    O6    S    
C46   O3    S    
C4    O6    S    
C20   C21   S    
C8    C10   A    
C35   H6    S    
C22   C23   A    
C37   H11   S    
C23   C31   A    
C41   H24   S    
