data_mof_unit_43123.cif
_audit_creation_date              2012-12-11T17:00:19-0500
_audit_creation_method            fapswitch 2.2
_symmetry_space_group_name_H-M    P1
_symmetry_Int_Tables_number       1
_space_group_crystal_system       triclinic
_cell_length_a                    6.941745
_cell_length_b                    13.58003
_cell_length_c                    20.250313
_cell_angle_alpha                 102.945944
_cell_angle_beta                  90.019781
_cell_angle_gamma                 90.479472
_cell_volume                      1860.38623138

loop_
_atom_site_label
_atom_site_type_symbol
_atom_type_description
_atom_site_fract_x
_atom_site_fract_y
_atom_site_fract_z
_atom_type_partial_charge
O1    O     O_R   0.506770 0.599700 0.449550 -0.538285
O2    O     O_R   0.179980 0.595740 0.587960 -0.548929
O3    O     O_R   0.004580 0.400300 0.550450 -0.535852
C1    C     C_R   0.348449 0.617506 0.615077 0.709059
O4    O     O_R   0.177380 0.611700 0.452380 -0.546050
O5    O     O_R   0.001970 0.416370 0.413900 -0.534361
C2    C     C_R   0.346001 0.638492 0.435720 0.717896
O6    O     O_R   0.509390 0.583630 0.586100 -0.539617
O7    O     O_3   0.337530 0.435890 0.487530 -0.361193
V1    V     V_3+5 0.064660 0.511890 0.502310 1.429356
O8    O     O_R   0.671950 0.404260 0.412040 -0.533452
C3    C     C_R   0.840402 0.386480 0.383481 0.697413
O9    O     O_R   0.674540 0.388300 0.547620 -0.537236
C4    C     C_R   0.842615 0.361351 0.564131 0.694364
V2    V     V_3+5 0.564030 0.488110 0.497690 1.455526
O10   O     O_3   0.841030 0.564110 0.512470 -0.377263
C5    C     C_R   0.790274 0.108896 0.611014 -0.134073
H1    H     H_    0.751054 0.987108 0.695635 0.136563
H2    H     H_    0.761084 0.030616 0.586607 0.140226
C6    C     C_R   0.846437 0.281614 0.602282 -0.136986
C7    C     C_R   0.903518 0.315924 0.929061 -0.163752
C8    C     C_R   0.916255 0.391444 0.892959 -0.122250
C9    C     C_R   0.895820 0.368222 0.822711 -0.158659
C10   C     C_R   0.859652 0.267704 0.786501 0.099295
C11   C     C_R   0.839530 0.191212 0.824261 0.050111
C12   C     C_R   0.844614 0.240323 0.714208 0.074174
C13   C     C_R   0.806057 0.138027 0.681778 0.040773
C14   C     C_R   0.781993 0.065175 0.720059 -0.142509
C15   C     C_R   0.798037 0.091208 0.790090 -0.181705
C16   C     C_R   0.865704 0.310866 0.672826 -0.259153
C17   C     C_R   0.809380 0.179342 0.570765 0.376635
C18   C     C_R   0.864972 0.216086 0.895552 -0.082175
H3    H     H_    0.892060 0.390004 0.693803 0.110010
H4    H     H_    0.924971 0.335277 0.983470 0.104720
H5    H     H_    0.909795 0.430852 0.798496 0.104040
H6    H     H_    0.945113 0.468639 0.919551 0.118927
H7    H     H_    0.777984 0.031754 0.817254 0.140084
C19   C     C_R   0.692615 0.208878 0.218381 0.120800
C20   C     C_R   0.863199 0.192719 0.180903 -0.188884
C21   C     C_R   0.021870 0.255517 0.206151 -0.203121
H8    H     H_    0.152572 0.251591 0.176493 0.153018
C22   C     C_R   0.014354 0.324939 0.269616 0.328735
C23   C     C_R   0.848525 0.327381 0.311962 -0.215547
C24   C     C_R   0.686547 0.272846 0.282222 0.108813
C25   C     C_3   0.551236 0.204947 0.308634 -0.377228
C26   C     C_3   0.556685 0.135277 0.238462 -0.423125
H9    H     H_    0.408135 0.239965 0.321677 0.211108
H10   H     H_    0.617516 0.171519 0.348498 0.180422
H11   H     H_    0.417320 0.131718 0.211037 0.171950
H12   H     H_    0.624620 0.061132 0.237609 0.180434
C27   C     C_R   0.486436 0.674346 0.732589 0.096596
C28   C     C_R   0.352004 0.685143 0.683419 -0.174875
C29   C     C_R   0.207342 0.758091 0.702992 -0.179762
H13   H     H_    0.097966 0.767429 0.666755 0.141953
C30   C     C_R   0.211266 0.826297 0.766757 0.334817
C31   C     C_R   0.355450 0.817406 0.815247 -0.199492
C32   C     C_R   0.487202 0.738085 0.796770 0.049630
C33   C     C_3   0.702268 0.739591 0.799762 -0.366231
C34   C     C_3   0.700820 0.670054 0.729525 -0.388623
H14   H     H_    0.758156 0.702775 0.839616 0.163530
H15   H     H_    0.763370 0.815725 0.800728 0.213623
H16   H     H_    0.755534 0.593172 0.728983 0.156420
H17   H     H_    0.761222 0.705916 0.689707 0.179815
C35   C     C_R   0.277546 0.888321 0.390058 0.375263
H18   H     H_    0.286833 0.836401 0.482504 0.127747
H19   H     H_    0.258650 0.013023 0.302133 0.143328
C36   C     C_R   0.350308 0.716633 0.396519 -0.117542
C37   C     C_R   0.393376 0.683425 0.070321 -0.169727
C38   C     C_R   0.402773 0.607799 0.106344 -0.120905
C39   C     C_R   0.383800 0.631021 0.176623 -0.160319
C40   C     C_R   0.353144 0.731735 0.213021 0.099646
C41   C     C_R   0.335531 0.808028 0.175291 0.073796
C42   C     C_R   0.339913 0.759187 0.285389 0.039857
C43   C     C_R   0.298243 0.861250 0.318342 0.037543
C44   C     C_R   0.281564 0.934095 0.279329 -0.199600
C45   C     C_R   0.298784 0.907868 0.209423 -0.207347
C46   C     C_R   0.367556 0.688489 0.326211 -0.233215
C47   C     C_R   0.306380 0.815888 0.428034 -0.161532
C48   C     C_R   0.359275 0.783283 0.103970 -0.082403
H20   H     H_    0.399005 0.610222 0.305133 0.121937
H21   H     H_    0.413410 0.664105 0.015880 0.104381
H22   H     H_    0.392701 0.568022 0.200597 0.122322
H23   H     H_    0.427288 0.530471 0.079654 0.122564
H24   H     H_    0.282549 0.967184 0.182125 0.120985
O11   O     O_R   0.203450 0.916320 0.913910 -0.535004
O12   O     O_R   0.535520 0.888300 0.047620 -0.538725
O13   O     O_R   0.710860 0.083650 0.086100 -0.535857
C49   C     C_R   0.366609 0.861433 0.064304 0.690952
O14   O     O_R   0.532860 0.904250 0.912040 -0.541362
O15   O     O_R   0.708190 0.099710 0.949550 -0.540988
C50   C     C_R   0.364505 0.884899 0.883990 0.692690
O16   O     O_R   0.206120 0.900260 0.050460 -0.539695
O17   O     O_3   0.375280 0.064080 0.012470 -0.372372
V3    V     V_3+5 0.648180 0.988110 0.997690 1.423823
O18   O     O_R   0.038220 0.111740 0.952370 -0.541901
C51   C     C_R   0.870020 0.138092 0.935319 0.686979
O19   O     O_R   0.040880 0.095790 0.087940 -0.548827
C52   C     C_R   0.872393 0.118183 0.114985 0.717871
V4    V     V_3+5 0.148800 0.011950 0.002300 1.416229
O20   O     O_3   0.871820 0.935920 0.987530 -0.367321
O21   O     O_3   0.788946 0.144824 0.501501 -0.634982
H25   H     H_    0.819632 0.199746 0.478235 0.268383
O22   O     O_3   0.171827 0.387562 0.287907 -0.650970
H26   H     H_    0.124747 0.453833 0.313402 0.286356
O23   O     O_3   0.080869 0.904163 0.776982 -0.662588
H27   H     H_    0.137462 0.963375 0.808805 0.287087
O24   O     O_3   0.226517 0.983737 0.425093 -0.629810
H28   H     H_    0.131119 0.011089 0.397763 0.292806

loop_
_geom_bond_atom_site_label_1
_geom_bond_atom_site_label_2
_ccdc_geom_bond_type
C30   C31   A    
C44   C45   A    
O17   V3    S    
C42   C43   A    
C29   C30   A    
O18   C51   A    
C36   C46   A    
C41   C45   A    
C22   O22   S    
C45   H24   S    
O19   C52   A    
O11   C50   A    
C6    C16   A    
C29   H13   S    
C28   C29   A    
C26   H11   S    
C12   C13   A    
O21   H25   S    
C1    C28   S    
C38   H23   S    
C37   H21   S    
C17   O21   S    
C14   C15   A    
C10   C12   A    
C41   C48   A    
O5    C3    A    
C19   C20   A    
O12   C49   A    
C46   H20   S    
C33   H14   S    
V2    O10   S    
O13   V3    S    
C31   C32   A    
O14   V3    S    
O12   V3    S    
O8    V2    S    
C31   C50   S    
C49   O16   A    
C37   C38   A    
C9    C10   A    
C39   C40   A    
O1    V2    S    
O14   C50   A    
O7    V1    S    
O17   V4    S    
C1    O6    A    
O13   C52   A    
C33   H15   S    
C21   C22   A    
O9    C4    A    
C36   C47   A    
C48   C49   S    
O19   V4    S    
O15   V3    S    
C25   H9    S    
C11   C15   A    
C7    C18   A    
C43   C44   A    
C27   C28   A    
C5    C13   A    
C4    C6    S    
H1    C14   S    
C10   C11   A    
C20   C21   A    
C40   C42   A    
C20   C52   S    
C7    H4    S    
C33   C34   S    
C25   C26   S    
O2    C1    A    
C23   C24   A    
C19   C24   A    
O11   V4    S    
V4    O20   S    
V3    O20   S    
O24   H28   S    
O3    C4    A    
C27   C32   A    
C21   H8    S    
C18   C51   S    
C30   O23   S    
C12   C16   A    
O6    V2    S    
C9    H5    S    
O9    V2    S    
C5    C17   A    
C27   C34   S    
C22   C23   A    
O2    V1    S    
O22   H26   S    
C24   C25   S    
C35   O24   S    
O4    C2    A    
C25   H10   S    
C34   H16   S    
C42   C46   A    
H18   C47   S    
C16   H3    S    
O1    C2    A    
C35   C47   A    
O5    V1    S    
O8    C3    A    
O15   C51   A    
C3    C23   S    
C8    H6    S    
O23   H27   S    
C26   H12   S    
C34   H17   S    
O7    V2    S    
O4    V1    S    
O3    V1    S    
V1    O10   S    
C32   C33   S    
C11   C18   A    
H19   C44   S    
C5    H2    S    
O18   V4    S    
C38   C39   A    
C39   H22   S    
C19   C26   S    
C2    C36   S    
C40   C41   A    
C37   C48   A    
C15   H7    S    
C13   C14   A    
C35   C43   A    
C8    C9    A    
C7    C8    A    
O16   V4    S    
C6    C17   A    
