data_mof_unit_20171.cif
_audit_creation_date              2012-12-11T14:56:34-0500
_audit_creation_method            fapswitch 2.2
_symmetry_space_group_name_H-M    P1
_symmetry_Int_Tables_number       1
_space_group_crystal_system       triclinic
_cell_length_a                    10.576223
_cell_length_b                    10.72644
_cell_length_c                    17.162931
_cell_angle_alpha                 80.400767
_cell_angle_beta                  89.782963
_cell_angle_gamma                 119.52323
_cell_volume                      1662.11140276

loop_
_atom_site_label
_atom_site_type_symbol
_atom_type_description
_atom_site_fract_x
_atom_site_fract_y
_atom_site_fract_z
_atom_type_partial_charge
C1    C     C_R   0.223689 0.855001 0.128873 0.549778
C2    C     C_R   0.798074 0.400518 0.264312 0.117832
C3    C     C_R   0.788504 0.398112 0.184951 -0.113134
C4    C     C_R   0.654002 0.345258 0.154946 -0.037028
C5    C     C_1   0.668901 0.848884 0.205468 -0.008945
C6    C     C_1   0.680425 0.839100 0.274796 -0.005411
C7    C     C_1   0.181819 0.826954 0.211371 0.004281
C8    C     C_1   0.152130 0.820886 0.279839 0.014454
C9    C     C_1   0.644343 0.324752 0.778242 -0.037025
C10   C     C_1   0.651742 0.347212 0.707751 -0.060609
C11   C     C_R   0.604991 0.707167 0.803428 0.097198
C12   C     C_R   0.636950 0.281285 0.085443 0.561122
C13   C     C_R   0.588593 0.702347 0.724651 -0.163149
C14   C     C_R   0.672587 0.826107 0.666117 -0.051728
C15   C     C_R   0.780088 0.957581 0.687715 0.251248
C16   C     C_R   0.792802 0.964553 0.768948 0.255397
C17   C     C_R   0.694389 0.842305 0.826100 0.014766
C18   C     C_R   0.243798 0.968689 0.759031 -0.112501
C19   C     C_R   0.229066 0.956039 0.680757 -0.123928
C20   C     C_R   0.160822 0.817687 0.661219 0.024192
C21   C     C_R   0.120765 0.692679 0.719930 -0.128894
C22   C     C_R   0.138522 0.705875 0.798815 -0.125847
C23   C     C_R   0.640419 0.858632 0.125455 0.551954
C24   C     C_R   0.194402 0.843475 0.818636 0.038649
C25   C     C_R   0.686694 0.809693 0.357119 0.545933
C26   C     C_R   0.690563 0.397253 0.393928 0.575412
C27   C     C_R   0.103647 0.810468 0.359181 0.562760
C28   C     C_R   0.678849 0.799601 0.586335 0.542134
C29   C     C_R   0.679265 0.383794 0.624718 0.528439
C30   C     C_R   0.100103 0.802246 0.585802 0.546738
C31   C     C_R   0.226046 0.864834 0.898547 0.541253
C32   C     C_R   0.637421 0.284377 0.860913 0.575631
C33   C     C_R   0.648932 0.864730 0.900565 0.575682
C34   C     C_R   0.530316 0.316111 0.201845 -0.104216
C35   C     C_R   0.538635 0.327504 0.281197 0.110412
C36   C     C_R   0.672446 0.367074 0.313989 0.031048
Cr1   Cr    Cr6+3 0.402240 0.783890 0.019450 1.084642
Cr2   Cr    Cr6+3 0.382360 0.097900 0.991800 1.085925
Cr3   Cr    Cr6+3 0.715380 0.118170 0.988700 1.057067
Cr4   Cr    Cr6+3 0.936650 0.882420 0.465510 1.113948
Cr5   Cr    Cr6+3 0.605770 0.565620 0.493360 1.079207
Cr6   Cr    Cr6+3 0.921340 0.550490 0.496380 1.041221
H1    H     H_    0.424771 0.274010 0.178714 0.181337
H2    H     H_    0.262639 0.053768 0.636123 0.153747
H3    H     H_    0.067434 0.584478 0.705788 0.129441
H4    H     H_    0.105667 0.609359 0.844209 0.136648
H5    H     H_    0.884564 0.422178 0.148325 0.179395
H6    H     H_    0.516089 0.597232 0.709458 0.187484
H7    H     H_    0.295125 0.077241 0.772713 0.156004
O1    O     O_R   0.521780 0.757110 0.108900 -0.487501
O2    O     O_R   0.513330 0.228330 0.898660 -0.461139
O3    O     O_R   0.739230 0.266130 0.888050 -0.536731
O4    O     O_R   0.712580 0.991850 0.918770 -0.474154
O5    O     O_3   0.499990 0.999980 0.999980 -0.287563
O6    O     O_R   0.083770 0.911170 0.376030 -0.471797
O7    O     O_R   0.808770 0.880340 0.383890 -0.492481
O8    O     O_R   0.584340 0.689460 0.394160 -0.484165
O9    O     O_R   0.614320 0.443940 0.423590 -0.461437
O10   O     O_R   0.805020 0.410040 0.421340 -0.488107
O11   O     O_R   0.049240 0.685450 0.403290 -0.470513
O12   O     O_R   0.275160 0.783810 0.101120 -0.481546
O13   O     O_R   0.077520 0.903010 0.551800 -0.481550
O14   O     O_R   0.802980 0.872780 0.546830 -0.455166
O15   O     O_R   0.578090 0.681300 0.569920 -0.528024
O16   O     O_R   0.608530 0.436370 0.586530 -0.488763
O17   O     O_R   0.798770 0.401880 0.597100 -0.558983
O18   O     O_R   0.043450 0.677890 0.566230 -0.513580
O19   O     O_3   0.821250 0.666180 0.485090 -0.283979
O20   O     O_R   0.237900 0.972600 0.090980 -0.509456
O21   O     O_R   0.511190 0.220540 0.061620 -0.490158
O22   O     O_R   0.736920 0.257720 0.063840 -0.514104
O23   O     O_R   0.710450 0.984050 0.081720 -0.495437
O24   O     O_R   0.524090 0.765520 0.933110 -0.470306
O25   O     O_R   0.277300 0.791600 0.938160 -0.501985
O26   O     O_R   0.240210 0.981010 0.915190 -0.501329
Br1   Br    Br    0.359790 0.272136 0.342342 -0.435170
Br2   Br    Br    0.987526 0.439598 0.296271 -0.455218
Br3   Br    Br    0.499667 0.523236 0.876949 -0.487958
O27   O     O_3   0.883029 0.072932 0.631227 -0.547823
C37   C     C_3   0.815258 0.139056 0.583605 -0.080493
H8    H     H_    0.900032 0.252942 0.558003 0.179984
H9    H     H_    0.726247 0.140397 0.617662 0.093497
H10   H     H_    0.770668 0.084946 0.532656 0.141223
O28   O     O_3   0.909328 0.080085 0.795034 -0.533010
C38   C     C_3   0.923169 0.216087 0.761349 -0.031019
H11   H     H_    0.966313 0.288865 0.805133 0.147862
H12   H     H_    0.817626 0.207963 0.746308 0.105173
H13   H     H_    0.004670 0.269130 0.708412 0.162945

loop_
_geom_bond_atom_site_label_1
_geom_bond_atom_site_label_2
_ccdc_geom_bond_type
Cr1   O25   S    
Cr2   O21   S    
C35   C36   A    
C25   O7    A    
C7    C8    T    
C20   C30   S    
C38   H11   S    
Cr4   O14   S    
C25   O8    A    
C18   C24   A    
Cr5   O9    S    
C18   C19   A    
C27   O11   A    
C5    C6    T    
C27   O6    A    
C6    C25   S    
C2    C36   A    
C15   C16   A    
C16   O28   S    
Cr4   O13   S    
C34   C35   A    
C32   O3    A    
Cr1   O24   S    
C9    C32   S    
C15   O27   S    
C19   C20   A    
C16   C17   A    
Cr4   O7    S    
Cr2   O5    S    
Cr3   O23   S    
C4    C12   S    
C26   O10   A    
C30   O18   A    
Cr3   O3    S    
Cr2   O20   S    
C21   C22   A    
Cr6   O19   S    
C17   C33   S    
C37   H10   S    
Cr5   O19   S    
C21   H3    S    
Cr2   O26   S    
C38   H12   S    
C33   O4    A    
C4    C34   A    
C35   Br1   S    
O28   C38   S    
C37   H9    S    
Cr6   O11   S    
C23   O1    A    
Cr5   O16   S    
Cr2   O2    S    
C1    O20   A    
O27   C37   S    
C32   O2    A    
C11   Br3   S    
C31   O26   A    
C5    C23   S    
Cr4   O6    S    
C26   O9    A    
C29   O16   A    
Cr1   O5    S    
C28   O15   A    
C33   O24   A    
C22   H4    S    
C12   O22   A    
C30   O13   A    
Cr6   O18   S    
C22   C24   A    
C3    C4    A    
C19   H2    S    
C9    C10   T    
C38   H13   S    
C26   C36   S    
C12   O21   A    
C11   C17   A    
C1    C7    S    
C23   O23   A    
C34   H1    S    
C37   H8    S    
C31   O25   A    
C1    O12   A    
Cr6   O10   S    
C13   H6    S    
Cr1   O12   S    
C2    C3    A    
C24   C31   S    
Cr5   O8    S    
C2    Br2   S    
Cr1   O1    S    
C11   C13   A    
C10   C29   S    
Cr3   O4    S    
C3    H5    S    
C29   O17   A    
Cr3   O5    S    
C28   O14   A    
C20   C21   A    
Cr4   O19   S    
Cr6   O17   S    
C8    C27   S    
Cr3   O22   S    
C14   C15   A    
Cr5   O15   S    
C14   C28   S    
C13   C14   A    
C18   H7    S    
