data_mof_unit_47346.cif
_audit_creation_date              2012-12-10T17:58:20-0500
_audit_creation_method            fapswitch 2.2
_symmetry_space_group_name_H-M    P1
_symmetry_Int_Tables_number       1
_space_group_crystal_system       triclinic
_cell_length_a                    9.528645
_cell_length_b                    10.795777
_cell_length_c                    15.706835
_cell_angle_alpha                 89.706935
_cell_angle_beta                  73.505221
_cell_angle_gamma                 90.314775
_cell_volume                      1549.19234068

loop_
_atom_site_label
_atom_site_type_symbol
_atom_type_description
_atom_site_fract_x
_atom_site_fract_y
_atom_site_fract_z
_atom_type_partial_charge
C1    C     C_R   0.998330 0.262336 0.502790 0.801980
C2    C     C_R   0.001670 0.737664 0.497210 0.801981
C3    C     C_R   0.578880 0.548017 0.090362 -0.214595
C4    C     C_R   0.421120 0.451983 0.909637 -0.214595
C5    C     C_R   0.726099 0.562154 0.044943 -0.229709
C6    C     C_R   0.273901 0.437846 0.955057 -0.229709
C7    C     C_R   0.924267 0.067052 0.451101 -0.197201
C8    C     C_R   0.075733 0.932948 0.548899 -0.197201
C9    C     C_R   0.929315 0.939171 0.444003 0.423544
C10   C     C_R   0.070685 0.060829 0.555997 0.423545
C11   C     C_R   0.003750 0.871591 0.494982 -0.214331
C12   C     C_R   0.996250 0.128409 0.505018 -0.214330
C13   C     C_R   0.548196 0.422459 0.555728 0.519532
C14   C     C_R   0.451804 0.577541 0.444272 0.519532
C15   C     C_R   0.398669 0.423209 0.555446 -0.209350
C16   C     C_R   0.601331 0.576791 0.444554 -0.209349
C17   C     C_R   0.916774 0.508358 0.671403 0.798864
C18   C     C_R   0.083226 0.491642 0.328597 0.798864
C19   C     C_R   0.867420 0.525721 0.768228 -0.059813
C20   C     C_R   0.132580 0.474279 0.231771 -0.059813
C21   C     C_R   0.922936 0.552219 0.908038 -0.210940
C22   C     C_R   0.077064 0.447782 0.091961 -0.210940
C23   C     C_R   0.969852 0.532204 0.816911 -0.237906
C24   C     C_R   0.030148 0.467796 0.183088 -0.237906
C25   C     C_R   0.717053 0.542071 0.812717 0.112094
C26   C     C_R   0.282947 0.457929 0.187283 0.112094
C27   C     C_R   0.669651 0.526098 0.905776 0.078671
C28   C     C_R   0.330349 0.473902 0.094224 0.078671
C29   C     C_R   0.773564 0.545479 0.953358 0.135814
C30   C     C_R   0.226436 0.454521 0.046642 0.135814
C31   C     C_R   0.522461 0.496025 0.953034 0.064130
C32   C     C_R   0.477539 0.503975 0.046966 0.064130
Cu1   Cu    Cu3+1 0.140660 0.500020 0.500000 0.992836
Cu2   Cu    Cu3+1 0.859340 0.499980 0.500000 0.992836
H1    H     H_    0.802407 0.588427 0.081438 0.148857
H2    H     H_    0.197593 0.411573 0.918562 0.148857
H3    H     H_    0.913783 0.471676 0.215940 0.166104
H4    H     H_    0.086217 0.528324 0.784060 0.166104
H5    H     H_    0.003500 0.569507 0.943157 0.146359
H6    H     H_    0.996500 0.430493 0.056842 0.146359
H7    H     H_    0.546093 0.571616 0.159806 0.170075
H8    H     H_    0.453907 0.428384 0.840194 0.170075
H9    H     H_    0.868927 0.119204 0.411156 0.184102
H10   H     H_    0.131073 0.880796 0.588843 0.184102
H11   H     H_    0.319994 0.362155 0.599507 0.159415
H12   H     H_    0.680006 0.637845 0.400493 0.159415
N1    N     N_R   0.352080 0.500030 0.499980 -0.182396
N2    N     N_R   0.647920 0.499970 0.500020 -0.182396
O1    O     O_R   0.118740 0.319660 0.500000 -0.579987
O2    O     O_R   0.881260 0.680340 0.500000 -0.579987
O3    O     O_R   0.881170 0.319630 0.500010 -0.528296
O4    O     O_R   0.118830 0.680370 0.499990 -0.528296
O5    O     O_R   0.055570 0.500030 0.629830 -0.605003
O6    O     O_R   0.944430 0.499970 0.370170 -0.605002
O7    O     O_R   0.818000 0.500000 0.629840 -0.529814
O8    O     O_R   0.182000 0.500000 0.370160 -0.529814
C33   C     C_3   0.380065 0.389063 0.233352 -0.810675
H13   H     H_    0.471754 0.341902 0.184887 0.226082
H14   H     H_    0.425932 0.452235 0.274211 0.253484
H15   H     H_    0.316359 0.314485 0.276707 0.235329
C34   C     C_3   0.619935 0.610937 0.766647 -0.810675
H16   H     H_    0.574068 0.547765 0.725788 0.253484
H17   H     H_    0.528246 0.658097 0.815113 0.226082
H18   H     H_    0.683641 0.685515 0.723293 0.235330
O9    O     O_3   0.864251 0.885267 0.385075 -0.726248
H19   H     H_    0.910655 0.804354 0.366149 0.320057
O10   O     O_3   0.135749 0.114733 0.614925 -0.726248
H20   H     H_    0.089345 0.195646 0.633851 0.320057
O11   O     O_3   0.595356 0.344162 0.611370 -0.699837
H21   H     H_    0.510711 0.295370 0.647580 0.298770
O12   O     O_3   0.404644 0.655837 0.388630 -0.699837
H22   H     H_    0.489289 0.704630 0.352420 0.298770

loop_
_geom_bond_atom_site_label_1
_geom_bond_atom_site_label_2
_ccdc_geom_bond_type
C26   C33   S    
C13   N2    A    
C19   C23   A    
C14   N1    A    
C7    H9    S    
C27   C29   A    
C23   H4    S    
C1    O3    A    
C14   O12   S    
C17   O7    A    
C18   C20   S    
C31   C32   A    
C21   H5    S    
C15   N1    A    
C3    C5    A    
C22   H6    S    
C7    C9    A    
C13   O11   S    
Cu1   O8    S    
C28   C30   A    
Cu1   Cu2   S    
C33   H13   S    
Cu2   O7    S    
C25   C34   S    
C10   O10   S    
Cu1   O4    S    
C18   O8    A    
C9    C11   A    
C16   N2    A    
Cu2   O3    S    
C7    C12   A    
C1    C12   S    
C2    O4    A    
C8    C11   A    
C19   C25   A    
C2    C11   S    
C10   C12   A    
C22   C24   A    
C4    C6    A    
C26   C28   A    
C17   C19   S    
C6    H2    S    
Cu2   O6    S    
C5    C29   A    
O11   H21   S    
C13   C15   A    
C21   C23   A    
Cu1   O5    S    
C3    C32   A    
Cu1   N1    S    
C4    H8    S    
C14   C16   A    
Cu2   O2    S    
C33   H14   S    
Cu2   N2    S    
C34   H16   S    
C15   H11   S    
Cu1   O1    S    
O10   H20   S    
C4    C31   A    
C34   H18   S    
C17   O5    A    
C2    O2    A    
C28   C32   A    
O12   H22   S    
C27   C31   A    
C8    C10   A    
O9    H19   S    
C16   H12   S    
C24   H3    S    
C34   H17   S    
C18   O6    A    
C3    H7    S    
C33   H15   S    
C9    O9    S    
C22   C30   A    
C6    C30   A    
C21   C29   A    
C5    H1    S    
C20   C24   A    
C8    H10   S    
C20   C26   A    
C25   C27   A    
C1    O1    A    
