data_mof_unit_34982.cif
_audit_creation_date              2012-12-10T20:42:43-0500
_audit_creation_method            fapswitch 2.2
_symmetry_space_group_name_H-M    P1
_symmetry_Int_Tables_number       1
_space_group_crystal_system       triclinic
_cell_length_a                    8.898998
_cell_length_b                    10.621433
_cell_length_c                    9.937031
_cell_angle_alpha                 89.575742
_cell_angle_beta                  89.790166
_cell_angle_gamma                 90.413935
_cell_volume                      939.192528962

loop_
_atom_site_label
_atom_site_type_symbol
_atom_type_description
_atom_site_fract_x
_atom_site_fract_y
_atom_site_fract_z
_atom_type_partial_charge
Br1   Br    Br    0.744482 0.677764 0.152880 -0.419962
C1    C     C_R   0.502398 0.260720 0.500614 0.886995
C2    C     C_R   0.392226 0.435303 0.930011 0.018039
C3    C     C_3   0.354804 0.297174 0.924993 0.208448
C4    C     C_R   0.218954 0.499879 0.500135 0.912760
C5    C     C_3   0.355094 0.296956 0.078916 0.217452
C6    C     C_R   0.502427 0.739434 0.499949 0.896316
C7    C     C_R   0.781046 0.500073 0.499866 0.888158
C8    C     C_1   0.065463 0.499933 0.500196 -0.172616
C9    C     C_1   0.934524 0.500008 0.499765 -0.154146
C10   C     C_R   0.412217 0.063055 0.581503 0.164213
C11   C     C_R   0.516573 0.129179 0.504467 -0.290239
C12   C     C_R   0.640888 0.935871 0.446677 0.439744
C13   C     C_R   0.640052 0.067042 0.444860 0.439642
C14   C     C_R   0.515876 0.871409 0.503313 -0.312357
C15   C     C_R   0.411516 0.935137 0.580450 0.087582
C16   C     C_3   0.243828 0.927129 0.580119 -0.428842
C17   C     C_3   0.244525 0.070033 0.581433 -0.425269
C18   C     C_R   0.392270 0.435199 0.071849 -0.026200
C19   C     C_R   0.597843 0.573274 0.069177 0.315171
C20   C     C_R   0.597337 0.572986 0.926246 -0.135884
H1    H     H_    0.242672 0.278016 0.124045 0.122454
H2    H     H_    0.567755 0.259259 0.117301 0.354814
H3    H     H_    0.766547 0.787796 0.427792 0.329904
H4    H     H_    0.198375 0.886682 0.485549 0.220324
H5    H     H_    0.198650 0.884297 0.674459 0.218058
H6    H     H_    0.199324 0.113073 0.487688 0.210822
H7    H     H_    0.199837 0.109814 0.676555 0.215909
H8    H     H_    0.677888 0.630077 0.870819 0.178052
H9    H     H_    0.242201 0.278507 0.881150 0.103380
H10   H     H_    0.757977 0.219558 0.407895 0.317730
H11   H     H_    0.567289 0.259303 0.885317 0.348820
N1    N     N_R   0.499010 0.499140 0.142800 -0.123383
N2    N     N_R   0.499010 0.499180 0.857150 -0.115251
O1    O     O_R   0.500020 0.316790 0.614690 -0.577892
O2    O     O_3   0.467163 0.221136 0.867868 -0.683731
O3    O     O_3   0.467757 0.220758 0.135831 -0.662520
O4    O     O_3   0.764515 0.875590 0.393871 -0.664520
O5    O     O_R   0.500000 0.316760 0.385350 -0.580612
O6    O     O_R   0.285350 0.500020 0.614650 -0.614169
O7    O     O_R   0.285340 0.499980 0.385310 -0.604292
O8    O     O_R   0.500000 0.683240 0.614650 -0.611155
O9    O     O_R   0.499980 0.683210 0.385310 -0.568638
O10   O     O_R   0.714660 0.500020 0.614690 -0.628068
O11   O     O_R   0.714650 0.499980 0.385350 -0.585607
O12   O     O_3   0.760083 0.129229 0.384729 -0.695624
Zn1   Zn    Zn3+2 0.500010 0.500020 0.653130 0.969767
Zn2   Zn    Zn3+2 0.499990 0.499980 0.346870 1.016423

loop_
_geom_bond_atom_site_label_1
_geom_bond_atom_site_label_2
_ccdc_geom_bond_type
C1    O1    A    
O6    Zn1   S    
H3    O4    S    
C10   C11   A    
C3    O2    S    
C10   C17   S    
C2    C18   A    
N2    Zn1   S    
C6    O9    A    
O9    Zn2   S    
O10   Zn1   S    
O1    Zn1   S    
C6    C14   S    
C16   C17   S    
C5    O3    S    
C16   H4    S    
C13   O12   S    
C12   C13   A    
C4    C8    S    
C5    C18   S    
C12   O4    S    
C19   N1    A    
H11   O2    S    
C7    C9    S    
O7    Zn2   S    
C11   C13   A    
O8    Zn1   S    
C12   C14   A    
C18   N1    A    
C4    O6    A    
C10   C15   A    
C16   H5    S    
C14   C15   A    
C5    H1    S    
C7    O10   A    
C17   H7    S    
C19   C20   A    
C3    C5    S    
C1    C11   S    
C8    C9    T    
C6    O8    A    
N1    Zn2   S    
C4    O7    A    
C7    O11   A    
O5    Zn2   S    
Br1   C19   S    
C20   N2    A    
O11   Zn2   S    
C2    N2    A    
H2    O3    S    
C20   H8    S    
C1    O5    A    
C3    H9    S    
C17   H6    S    
C2    C3    S    
C15   C16   S    
H10   O12   S    
