data_mof_unit_55483.cif
_audit_creation_date              2012-12-11T21:12:04-0500
_audit_creation_method            fapswitch 2.2
_symmetry_space_group_name_H-M    P1
_symmetry_Int_Tables_number       1
_space_group_crystal_system       triclinic
_cell_length_a                    8.21175
_cell_length_b                    18.80247
_cell_length_c                    26.968383
_cell_angle_alpha                 99.388505
_cell_angle_beta                  92.774766
_cell_angle_gamma                 88.341668
_cell_volume                      4102.42156511

loop_
_atom_site_label
_atom_site_type_symbol
_atom_type_description
_atom_site_fract_x
_atom_site_fract_y
_atom_site_fract_z
_atom_type_partial_charge
Ba1   Ba    Ba6+2 0.160810 0.465630 0.521640 1.673083
Ba2   Ba    Ba6+2 0.649380 0.534380 0.478400 1.652125
C1    C     C_3   0.460325 0.273174 0.698114 0.525341
C2    C     C_R   0.061483 0.095139 0.446916 -0.038070
C3    C     C_R   0.214531 0.953811 0.460535 0.565609
C4    C     C_3   0.965028 0.271244 0.624991 0.388276
C5    C     C_R   0.059282 0.977714 0.478593 -0.056013
C6    C     C_R   0.266972 0.882444 0.458617 -0.078315
C7    C     C_R   0.172629 0.832236 0.476585 -0.106993
C8    C     C_R   0.025977 0.856141 0.500185 -0.009917
C9    C     C_R   0.969300 0.929184 0.501527 -0.035746
C10   C     C_R   0.222786 0.759077 0.472836 0.006577
C11   C     C_R   0.125260 0.710477 0.491237 -0.299859
C12   C     C_3   0.445308 0.303753 0.649226 0.397308
C13   C     C_R   0.986667 0.733323 0.517819 0.046163
C14   C     C_R   0.937479 0.807282 0.523176 -0.007549
C15   C     C_R   0.849641 0.072747 0.501619 0.024907
C16   C     C_3   0.992959 0.198284 0.641694 -0.254470
C17   C     C_R   0.790455 0.145364 0.502241 0.001440
C18   C     C_R   0.875354 0.193598 0.477861 -0.035183
C19   C     C_R   0.004785 0.165842 0.448089 -0.047828
C20   C     C_R   0.803925 0.834216 0.551295 0.004334
C21   C     C_R   0.747453 0.904776 0.552383 -0.075083
C22   C     C_R   0.823798 0.953037 0.526201 0.038442
C23   C     C_3   0.468991 0.314401 0.398236 0.290500
C24   C     C_R   0.762339 0.024714 0.525536 0.030456
C25   C     C_R   0.612442 0.049458 0.546562 -0.033091
C26   C     C_R   0.643931 0.169187 0.526057 -0.039175
C27   C     C_R   0.555175 0.119758 0.546785 -0.045699
C28   C     C_3   0.839578 0.621373 0.631504 0.306625
C29   C     C_R   0.589415 0.241574 0.527757 -0.002212
C30   C     C_R   0.684310 0.290060 0.508323 -0.297575
C31   C     C_R   0.824669 0.267351 0.482682 0.044535
C32   C     C_R   0.295547 0.450736 0.174659 0.620919
C33   C     C_R   0.170139 0.567655 0.174853 0.584646
C34   C     C_3   0.469293 0.232917 0.383107 -0.360249
C35   C     C_2   0.026880 0.527364 0.269031 -0.059899
C36   C     C_3   0.991208 0.521091 0.322832 -0.053847
C37   C     C_1   0.278303 0.492810 0.336389 0.011454
C38   C     C_2   0.313322 0.496239 0.289497 -0.097044
C39   C     C_2   0.180308 0.513294 0.252532 0.197466
C40   C     C_3   0.838945 0.638932 0.688527 -0.318511
C41   C     C_R   0.296691 0.506262 0.098920 -0.089850
C42   C     C_R   0.338811 0.448188 0.124432 -0.123063
C43   C     C_R   0.419486 0.387587 0.098901 -0.067874
C44   C     C_R   0.208982 0.565845 0.124111 -0.010671
C45   C     C_3   0.866104 0.722822 0.378188 0.371278
C46   C     C_2   0.146250 0.525312 0.355675 -0.291242
C47   C     C_2   0.648767 0.471343 0.637246 -0.285360
C48   C     C_R   0.490038 0.446450 0.974903 -0.049276
C49   C     C_R   0.331301 0.558843 0.970570 0.049027
C50   C     C_R   0.432287 0.501379 0.947533 0.045876
C51   C     C_R   0.607733 0.396536 0.952807 -0.072188
C52   C     C_3   0.979151 0.369558 0.365886 0.289393
C53   C     C_R   0.647220 0.392942 0.903019 0.642895
C54   C     C_R   0.578357 0.442596 0.873766 -0.116966
C55   C     C_R   0.477569 0.499031 0.896738 -0.153510
C56   C     C_3   0.870456 0.797783 0.364068 0.533770
C57   C     C_R   0.422627 0.553084 0.868968 -0.005836
C58   C     C_R   0.470626 0.550381 0.818941 0.604508
C59   C     C_R   0.610041 0.437451 0.822346 0.648205
C60   C     C_2   0.741428 0.455864 0.724813 -0.105466
C61   C     C_3   0.752177 0.427767 0.669527 -0.052299
C62   C     C_1   0.519519 0.508145 0.656112 0.026866
C63   C     C_2   0.477899 0.509721 0.703466 -0.086238
C64   C     C_3   0.010837 0.340240 0.311066 -0.349726
C65   C     C_2   0.598654 0.486218 0.742030 0.170860
C66   C     C_R   0.434120 0.444826 0.023938 -0.039072
C67   C     C_3   0.357344 0.695026 0.350272 0.279301
C68   C     C_R   0.341193 0.504468 0.048119 -0.003312
C69   C     C_R   0.291038 0.561951 0.021910 0.045166
C70   C     C_R   0.463157 0.384767 0.049488 0.577084
C71   C     C_R   0.162249 0.622494 0.098105 -0.051303
C72   C     C_R   0.275433 0.611538 0.941281 -0.095974
C73   C     C_R   0.321154 0.608918 0.891866 -0.039453
C74   C     C_R   0.201428 0.620569 0.048243 -0.096598
C75   C     C_3   0.335889 0.685857 0.591905 0.337411
C76   C     C_3   0.344217 0.767385 0.607630 0.542650
C77   C     C_3   0.384077 0.711667 0.298085 -0.281283
C78   C     C_R   0.993906 0.048630 0.476317 0.031112
F1    F     F_    0.307639 0.266694 0.716492 -0.649160
F2    F     F_    0.243988 0.789429 0.647312 -0.658343
F3    F     F_    0.993052 0.801014 0.330809 -0.679123
F4    F     F_    0.325283 0.999394 0.448295 -0.731667
F5    F     F_    0.759188 0.342169 0.884326 -0.619821
F6    F     F_    0.521370 0.320104 0.026543 -0.683852
H1    H     H_    0.380171 0.356882 0.655896 0.054394
H2    H     H_    0.409724 0.670223 0.558241 -0.033450
H3    H     H_    0.303999 0.795294 0.575871 -0.093930
H4    H     H_    0.570545 0.311006 0.637621 -0.216243
H5    H     H_    0.533658 0.309888 0.726350 0.039857
H6    H     H_    0.596657 0.331609 0.406967 0.024189
H7    H     H_    0.397007 0.328302 0.432441 0.060316
H8    H     H_    0.543820 0.216657 0.349645 0.140900
H9    H     H_    0.522043 0.206890 0.414538 0.069914
H10   H     H_    0.342574 0.214286 0.374138 0.123523
H11   H     H_    0.522850 0.219350 0.691727 0.012232
H12   H     H_    0.749550 0.683416 0.699973 0.146253
H13   H     H_    0.931196 0.156012 0.614346 0.027259
H14   H     H_    0.764003 0.721896 0.403512 0.027423
H15   H     H_    0.982867 0.712155 0.398137 -0.088890
H16   H     H_    0.750430 0.811220 0.346357 0.043189
H17   H     H_    0.893110 0.838253 0.398448 -0.063369
H18   H     H_    0.225203 0.700781 0.357236 0.046974
H19   H     H_    0.398353 0.638479 0.351035 0.065040
H20   H     H_    0.314407 0.673583 0.269637 0.122437
H21   H     H_    0.515522 0.705797 0.290143 0.130880
H22   H     H_    0.017594 0.269170 0.587665 0.068446
H23   H     H_    0.804807 0.590919 0.704230 0.052091
H24   H     H_    0.341768 0.767639 0.295492 0.175537
H25   H     H_    0.162905 0.654364 0.487128 0.067343
H26   H     H_    0.385018 0.867582 0.443491 0.136771
H27   H     H_    0.063535 0.198007 0.424728 0.099301
H28   H     H_    0.439513 0.134424 0.563444 0.106335
H29   H     H_    0.154678 0.077689 0.420646 0.164409
H30   H     H_    0.644162 0.920019 0.575172 0.063194
H31   H     H_    0.831542 0.280410 0.621198 -0.102928
H32   H     H_    0.533164 0.015366 0.562426 0.074132
H33   H     H_    0.437258 0.486069 0.277533 0.120390
H34   H     H_    0.962390 0.655450 0.704059 0.157514
H35   H     H_    0.446892 0.340795 0.116940 0.165295
H36   H     H_    0.839661 0.442343 0.750235 0.143409
H37   H     H_    0.677113 0.361101 0.973845 0.193634
H38   H     H_    0.926310 0.536253 0.242921 0.106800
H39   H     H_    0.094002 0.668945 0.116346 0.133023
H40   H     H_    0.194245 0.655576 0.955134 0.076197
H41   H     H_    0.124781 0.184576 0.643644 0.185058
H42   H     H_    0.354847 0.525752 0.713999 0.149008
H43   H     H_    0.161206 0.666833 0.031620 0.077547
H44   H     H_    0.148611 0.552928 0.394374 0.069283
H45   H     H_    0.094559 0.389385 0.385360 0.023641
H46   H     H_    0.661360 0.459120 0.596842 0.085052
H47   H     H_    0.942233 0.199306 0.679123 0.146487
H48   H     H_    0.715581 0.606503 0.616579 -0.007203
H49   H     H_    0.925513 0.575322 0.621101 0.070389
H50   H     H_    0.207625 0.670616 0.582862 -0.016436
H51   H     H_    0.471807 0.782799 0.619263 0.009488
H52   H     H_    0.739724 0.801233 0.572794 0.087406
H53   H     H_    0.643295 0.345694 0.510740 0.072756
H54   H     H_    0.274793 0.650831 0.871362 0.130661
H55   H     H_    0.887347 0.414188 0.367941 0.040274
H56   H     H_    0.096723 0.293116 0.308867 0.153475
H57   H     H_    0.065861 0.381528 0.292650 0.076788
H58   H     H_    0.894438 0.323361 0.290407 0.126795
N1    N     N_R   0.215082 0.510713 0.199810 -0.427102
N2    N     N_R   0.560553 0.491966 0.795265 -0.433030
O1    O     O_2   0.106080 0.324280 0.466820 -0.469318
O2    O     O_2   0.659133 0.561838 0.332246 -0.498391
O3    O     O_3   0.844334 0.671775 0.334421 -0.580533
O4    O     O_3   0.859130 0.413620 0.470620 -0.484166
O5    O     O_3   0.459240 0.537930 0.559910 -0.492004
O6    O     O_2   0.583120 0.462390 0.379940 -0.462550
O7    O     O_3   0.399977 0.346739 0.358446 -0.629563
O8    O     O_2   0.563147 0.756649 0.478233 -0.508245
O9    O     O_3   0.448065 0.742871 0.385820 -0.607584
O10   O     O_2   0.328002 0.399006 0.195898 -0.587318
O11   O     O_2   0.678703 0.383145 0.801412 -0.521771
O12   O     O_3   0.396407 0.652758 0.632002 -0.612050
O13   O     O_2   0.097861 0.620280 0.196913 -0.577918
O14   O     O_2   0.433457 0.600603 0.796746 -0.583352
O15   O     O_3   0.376230 0.370290 0.556910 -0.481269
O16   O     O_2   0.249328 0.242873 0.519790 -0.486818
O17   O     O_3   0.918959 0.313568 0.387294 -0.641294
O18   O     O_3   0.358063 0.255920 0.612850 -0.611824
O19   O     O_2   0.227190 0.537650 0.620070 -0.462589
O20   O     O_3   0.971110 0.406970 0.583250 -0.492908
O21   O     O_2   0.085772 0.464889 0.674899 -0.487860
O22   O     O_3   0.040157 0.325457 0.660189 -0.524298
O23   O     O_2   0.704230 0.675760 0.533200 -0.480637
O24   O     O_3   0.951180 0.586390 0.529420 -0.493544
O25   O     O_3   0.434080 0.629720 0.443130 -0.474485
O26   O     O_3   0.887409 0.682493 0.612967 -0.604357
O27   O     O_3   0.351080 0.462080 0.440130 -0.478258
O28   O     O_3   0.839200 0.593040 0.416790 -0.485750
P1    P     P_3+3 0.929380 0.335110 0.452880 0.977538
P2    P     P_3+3 0.398530 0.559060 0.613740 1.011077
P3    P     P_3+3 0.963412 0.408881 0.647859 0.987453
P4    P     P_3+3 0.880940 0.664900 0.547160 0.996288
P5    P     P_3+3 0.832734 0.585871 0.351231 0.980663
P6    P     P_3+3 0.393125 0.276925 0.553530 0.953331
P7    P     P_3+3 0.399444 0.440489 0.376888 0.962923
P8    P     P_3+3 0.416556 0.722834 0.445651 0.926502

loop_
_geom_bond_atom_site_label_1
_geom_bond_atom_site_label_2
_ccdc_geom_bond_type
Ba2   O4    S    
C53   C54   A    
Ba1   P2    S    
C23   H7    S    
C47   C61   S    
C25   C27   A    
Ba1   O24   S    
C2    H29   S    
C17   C18   A    
C49   C72   A    
C27   H28   S    
O17   P1    S    
O9    P8    S    
C75   C76   S    
O19   P2    D    
C5    C9    A    
C52   H45   S    
Ba1   O27   S    
C24   C25   A    
C67   O9    S    
C58   N2    Am   
C60   C65   D    
O24   P4    S    
C45   H15   S    
C15   C24   A    
C26   C27   A    
C40   H23   S    
C22   C24   A    
C12   H1    S    
C2    C78   A    
C73   H54   S    
C40   H12   S    
Ba2   O27   S    
C69   C74   A    
C32   N1    Am   
O1    P1    D    
C55   C57   A    
C64   H58   S    
C13   C14   A    
C9    C22   A    
O3    P5    S    
C54   C55   A    
C16   H47   S    
C1    H5    S    
Ba1   Ba2   S    
C33   N1    Am   
C34   H10   S    
C12   H4    S    
O25   P8    S    
C21   H30   S    
C10   P8    S    
C45   O3    S    
C75   H2    S    
C6    C7    A    
C28   H48   S    
C1    F1    S    
C48   C50   A    
C21   C22   A    
C68   C69   A    
C56   H16   S    
C75   H50   S    
C52   O17   S    
C62   P2    S    
C7    C8    A    
C4    H31   S    
O16   P6    D    
O18   P6    S    
C75   O12   S    
O4    P1    S    
Ba1   O15   S    
C57   C58   A    
C47   C62   D    
C43   C70   A    
C12   O18   S    
C46   H44   S    
C49   C69   A    
C65   N2    S    
C41   C44   A    
C51   C53   A    
C76   H3    S    
Ba2   O6    S    
C4    C16   S    
C47   H46   S    
C4    O22   S    
C48   C51   A    
C72   C73   A    
C23   O7    S    
C49   C50   A    
C63   H42   S    
C32   C42   A    
C30   H53   S    
C19   H27   S    
C51   H37   S    
C37   C38   D    
C3    C5    A    
C3    F4    S    
C67   H19   S    
C64   H57   S    
Ba2   O23   S    
C63   C65   S    
C15   C78   A    
C45   H14   S    
O5    P2    S    
C77   H20   S    
C53   F5    S    
C59   N2    Am   
C35   C36   S    
C59   O11   D    
C16   H41   S    
C35   H38   S    
C74   H43   S    
C76   F2    S    
C29   C30   A    
Ba1   O19   S    
C1    H11   S    
C66   C70   A    
C52   H55   S    
C60   C61   S    
C77   H21   S    
Ba1   O4    S    
O20   P3    S    
C10   C11   A    
O15   P6    S    
C17   C26   A    
C28   O26   S    
C37   P7    S    
C1    C12   S    
Ba2   O24   S    
C64   H56   S    
C18   C31   A    
O12   P2    S    
C38   C39   S    
O21   P3    D    
O7    P7    S    
C41   C68   A    
C8    C9    A    
C11   C13   A    
C41   C42   A    
C71   C74   A    
C67   C77   S    
C16   H13   S    
C76   H51   S    
C57   C73   A    
O23   P4    D    
C60   H36   S    
C5    C78   A    
C42   C43   A    
C25   H32   S    
O26   P4    S    
Ba2   O5    S    
C20   H52   S    
Ba1   P1    S    
C23   H6    S    
C14   C20   A    
C36   P5    S    
C77   H24   S    
C54   C59   A    
C36   C46   S    
C26   C29   A    
C58   O14   D    
C3    C6    A    
C70   F6    S    
C52   C64   S    
C32   O10   D    
O2    P5    D    
Ba2   O25   S    
C61   P3    S    
C29   P6    S    
C43   H35   S    
C62   C63   D    
C6    H26   S    
C11   H25   S    
C8    C14   A    
C56   F3    S    
C30   C31   A    
C45   C56   S    
C2    C19   A    
C34   H9    S    
C40   H34   S    
C72   H40   S    
Ba1   O20   S    
C71   H39   S    
O8    P8    D    
C15   C17   A    
Ba1   O5    S    
C35   C39   D    
C31   P1    S    
C7    C10   A    
C33   O13   D    
Ba1   O1    S    
C50   C55   A    
C23   C34   S    
O27   P7    S    
C34   H8    S    
C38   H33   S    
C39   N1    S    
C18   C19   A    
C66   C68   A    
C28   H49   S    
C13   P4    S    
C4    H22   S    
C20   C21   A    
C28   C40   S    
C56   H17   S    
Ba2   P4    S    
O6    P7    D    
C33   C44   A    
C48   C66   A    
O28   P5    S    
C44   C71   A    
Ba2   O28   S    
O22   P3    S    
C37   C46   D    
C67   H18   S    
