data_mof_unit_7953.cif
_audit_creation_date              2012-10-26T21:21:06-0400
_audit_creation_method            fapswitch 2.2
_symmetry_space_group_name_H-M    P1
_symmetry_Int_Tables_number       1
_space_group_crystal_system       triclinic
_cell_length_a                    10.805942
_cell_length_b                    10.892543
_cell_length_c                    9.779236
_cell_angle_alpha                 89.039383
_cell_angle_beta                  89.759461
_cell_angle_gamma                 89.489238
_cell_volume                      1150.84009109

loop_
_atom_site_label
_atom_site_type_symbol
_atom_type_description
_atom_site_fract_x
_atom_site_fract_y
_atom_site_fract_z
_atom_type_partial_charge
C1    C     C_R   0.508646 0.265792 0.501404 0.576401
C2    C     C_2   0.531581 0.134386 0.509673 -0.000754
C3    C     C_2   0.406229 0.466604 0.925072 0.504153
C4    C     C_R   0.263037 0.510137 0.500841 0.599769
C5    C     C_2   0.422490 0.438910 0.076712 0.437350
C6    C     C_R   0.498460 0.734510 0.498217 0.626263
C7    C     C_R   0.737059 0.501234 0.499545 0.506473
C8    C     C_R   0.114916 0.696621 0.668088 0.252615
C9    C     C_R   0.038167 0.780141 0.741171 0.291432
C10   C     C_R   0.911741 0.784547 0.715992 0.283027
C11   C     C_R   0.858208 0.698855 0.632377 -0.117788
C12   C     C_R   0.059950 0.606313 0.582518 0.016892
C13   C     C_R   0.929075 0.604401 0.572108 -0.093026
C14   C     C_R   0.128680 0.519202 0.503427 -0.005616
C15   C     C_R   0.068374 0.432692 0.424462 -0.060992
C16   C     C_R   0.941368 0.423217 0.425523 0.241116
C17   C     C_R   0.870907 0.509729 0.498817 0.025660
C18   C     C_2   0.580188 0.931318 0.427129 0.200341
C19   C     C_2   0.489099 0.867042 0.489329 0.239975
C20   C     C_2   0.565443 0.065541 0.403353 0.240400
Cl1   Cl    Cl    0.333515 0.319576 0.149166 -0.509065
Cl2   Cl    Cl    0.816654 0.895196 0.794253 -0.467415
Cl3   Cl    Cl    0.341086 0.931503 0.521253 -0.562521
Cu1   Cu    Cu3+1 0.500020 0.500020 0.638630 1.135759
Cu2   Cu    Cu3+1 0.499980 0.499980 0.361370 1.144668
H1    H     H_    0.121358 0.365986 0.366789 0.206929
H2    H     H_    0.745887 0.933389 0.350373 0.361505
H3    H     H_    0.605275 0.051703 0.211177 0.365298
H4    H     H_    0.523845 0.091808 0.610792 0.129680
H5    H     H_    0.759711 0.707535 0.616027 0.183008
H6    H     H_    0.228547 0.446829 0.942053 0.332623
H7    H     H_    0.669095 0.527311 0.849014 0.374050
H8    H     H_    0.598508 0.636863 0.166543 0.388578
H9    H     H_    0.266882 0.777280 0.727875 0.372113
H10   H     H_    0.145814 0.814232 0.892211 0.333106
H11   H     H_    0.807234 0.308613 0.391027 0.347886
N1    N     N_2   0.498640 0.498660 0.846910 -0.029634
N2    N     N_2   0.498610 0.498630 0.153040 -0.056386
O1    O     O_R   0.500020 0.321960 0.617040 -0.493796
O2    O     O_3   0.610706 0.475454 0.901293 -0.566870
O3    O     O_3   0.541832 0.603605 0.097608 -0.586221
O4    O     O_3   0.241832 0.704761 0.675896 -0.639644
O5    O     O_3   0.084453 0.860046 0.835682 -0.592188
O6    O     O_3   0.890928 0.326710 0.355195 -0.625953
O7    O     O_3   0.686853 0.871121 0.385485 -0.710582
O8    O     O_3   0.588363 0.118519 0.276462 -0.615107
O9    O     O_R   0.499980 0.321920 0.382900 -0.408960
O10   O     O_R   0.319670 0.500020 0.617100 -0.393853
O11   O     O_R   0.319630 0.499980 0.382950 -0.502549
O12   O     O_R   0.500020 0.678080 0.617100 -0.487698
O13   O     O_R   0.499980 0.678040 0.382960 -0.495910
O14   O     O_R   0.680370 0.500020 0.617050 -0.543544
O15   O     O_R   0.680330 0.499980 0.382900 -0.497014
O16   O     O_3   0.290475 0.456742 0.867863 -0.653981

loop_
_geom_bond_atom_site_label_1
_geom_bond_atom_site_label_2
_ccdc_geom_bond_type
Cu1   O14   S    
C19   Cl3   S    
Cu2   O13   S    
C8    C9    A    
C6    O13   A    
H10   O5    S    
C9    C10   A    
C16   O6    S    
H9    O4    S    
C13   C17   A    
C4    O11   A    
C8    C12   A    
H8    O3    S    
H2    O7    S    
Cu1   N1    S    
C12   C14   A    
C3    C5    S    
C5    N2    D    
C6    O12   A    
Cu1   O12   S    
C6    C19   S    
C11   C13   A    
H3    O8    S    
C2    H4    S    
C8    O4    S    
C7    O14   A    
C1    C2    S    
N1    O2    S    
C18   C20   S    
H7    O2    S    
H6    O16   S    
C4    C14   S    
Cu2   N2    S    
C3    O16   S    
Cu2   O11   S    
C9    O5    S    
H11   O6    S    
C10   C11   A    
C7    O15   A    
C2    C20   D    
C15   C16   A    
Cu1   O10   S    
C18   O7    S    
C20   O8    S    
Cu1   O1    S    
C5    Cl1   S    
Cu1   Cu2   S    
C3    N1    D    
N2    O3    S    
C18   C19   D    
C4    O10   A    
C1    O1    A    
C14   C15   A    
C1    O9    A    
C15   H1    S    
Cu2   O9    S    
C12   C13   A    
C10   Cl2   S    
C11   H5    S    
Cu2   O15   S    
C16   C17   A    
C7    C17   S    
