data_mof_unit_31801.cif
_audit_creation_date              2012-12-10T18:15:12-0500
_audit_creation_method            fapswitch 2.2
_symmetry_space_group_name_H-M    P1
_symmetry_Int_Tables_number       1
_space_group_crystal_system       triclinic
_cell_length_a                    12.589264
_cell_length_b                    13.110923
_cell_length_c                    23.414148
_cell_angle_alpha                 90.556421
_cell_angle_beta                  102.832518
_cell_angle_gamma                 82.212119
_cell_volume                      3732.55336573

loop_
_atom_site_label
_atom_site_type_symbol
_atom_type_description
_atom_site_fract_x
_atom_site_fract_y
_atom_site_fract_z
_atom_type_partial_charge
C1    C     C_R   0.438671 0.691352 0.495531 0.846643
C2    C     C_R   0.536235 0.681576 0.037307 -0.165135
C3    C     C_R   0.541103 0.682841 0.978516 -0.171707
C4    C     C_R   0.526849 0.594498 0.944906 -0.003995
C5    C     C_R   0.507719 0.504086 0.970741 -0.021746
C6    C     C_R   0.493026 0.415099 0.937318 -0.013296
C7    C     C_R   0.474175 0.325369 0.963487 -0.171711
C8    C     C_R   0.469858 0.323941 0.022375 -0.166046
C9    C     C_R   0.530350 0.594195 0.885748 0.488051
C10   C     C_R   0.496401 0.418808 0.878191 0.509540
C11   C     C_R   0.601080 0.463051 0.771468 0.046377
C12   C     C_R   0.499976 0.503099 0.610220 0.849364
C13   C     C_R   0.594933 0.462510 0.711558 -0.269377
C14   C     C_R   0.500990 0.509634 0.672436 -0.140538
C15   C     C_R   0.410510 0.560592 0.692898 -0.063349
C16   C     C_R   0.415558 0.559902 0.753754 -0.005180
C17   C     C_R   0.510876 0.510999 0.792509 0.208217
C18   C     C_R   0.399066 0.490718 0.226176 -0.101263
C19   C     C_R   0.399787 0.490685 0.285613 -0.219835
C20   C     C_R   0.498040 0.497497 0.326978 -0.041609
C21   C     C_R   0.595626 0.502964 0.308202 -0.217864
C22   C     C_R   0.594667 0.502641 0.248869 -0.103927
C23   C     C_R   0.561279 0.308694 0.507345 0.865293
C24   C     C_R   0.496402 0.497169 0.207875 0.319027
C25   C     C_R   0.702578 0.066397 0.588079 -0.200026
C26   C     C_R   0.597734 0.200196 0.520417 -0.051833
C27   C     C_R   0.298952 0.837568 0.454291 -0.189026
C28   C     C_R   0.270731 0.942162 0.441483 -0.143022
C29   C     C_R   0.344920 0.009951 0.463875 -0.183385
C30   C     C_R   0.446993 0.974052 0.502314 0.089449
C31   C     C_R   0.466795 0.870904 0.522291 0.094827
C32   C     C_R   0.530105 0.036901 0.521680 0.083496
C33   C     C_R   0.622303 0.002089 0.567463 0.179028
C34   C     C_R   0.499255 0.499276 0.389453 0.868063
C35   C     C_R   0.631501 0.904695 0.592739 -0.249036
C36   C     C_R   0.554703 0.839639 0.570397 -0.214784
C37   C     C_R   0.524576 0.133203 0.496069 -0.245463
C38   C     C_R   0.689135 0.166399 0.565338 -0.200260
C39   C     C_R   0.398748 0.801165 0.492970 -0.120624
C40   C     C_R   0.087991 0.345583 0.419450 -0.305497
C41   C     C_R   0.800198 0.628602 0.569971 -0.041096
C42   C     C_R   0.904471 0.659691 0.583648 -0.026567
C43   C     C_R   0.984503 0.612512 0.555283 -0.209178
C44   C     C_R   0.961643 0.532908 0.515139 -0.013543
C45   C     C_R   0.481006 0.412545 0.115313 0.497877
C46   C     C_R   0.854196 0.505232 0.503042 0.232200
C47   C     C_R   0.041083 0.479191 0.487033 -0.000695
C48   C     C_R   0.010998 0.399936 0.447241 0.193478
C49   C     C_R   0.904698 0.374866 0.435960 -0.289880
C50   C     C_R   0.827799 0.426421 0.463742 -0.206798
C51   C     C_R   0.150270 0.499603 0.497183 -0.037036
C52   C     C_R   0.194400 0.369441 0.431548 0.009623
C53   C     C_R   0.512775 0.588544 0.122458 0.499403
C54   C     C_R   0.517342 0.591848 0.063477 -0.015335
C55   C     C_R   0.503051 0.502734 0.030128 -0.024706
C56   C     C_R   0.484153 0.412278 0.056032 -0.013375
H1    H     H_    0.547492 0.750936 0.062140 0.192245
H2    H     H_    0.323547 0.486364 0.299062 0.163062
H3    H     H_    0.672653 0.507520 0.339211 0.168666
H4    H     H_    0.670063 0.507131 0.234576 0.140366
H5    H     H_    0.746147 0.218574 0.584858 0.157617
H6    H     H_    0.698815 0.878298 0.629206 0.159014
H7    H     H_    0.772697 0.040961 0.623370 0.147620
H8    H     H_    0.460468 0.160370 0.458494 0.140697
H9    H     H_    0.244605 0.784888 0.432381 0.160239
H10   H     H_    0.319091 0.090088 0.451622 0.130970
H11   H     H_    0.193251 0.970299 0.412010 0.144589
H12   H     H_    0.555721 0.753197 0.959506 0.189418
H13   H     H_    0.563612 0.765052 0.591594 0.149848
H14   H     H_    0.255422 0.327972 0.410757 0.128851
H15   H     H_    0.881001 0.314309 0.405863 0.158638
H16   H     H_    0.066250 0.284970 0.389040 0.144912
H17   H     H_    0.181295 0.557602 0.526630 0.132089
H18   H     H_    0.736234 0.664168 0.590603 0.133561
H19   H     H_    0.063958 0.638199 0.566102 0.176132
H20   H     H_    0.748392 0.402093 0.453943 0.212474
H21   H     H_    0.462596 0.256122 0.938590 0.189267
H22   H     H_    0.455296 0.253560 0.041381 0.190921
H23   H     H_    0.663807 0.424139 0.695184 0.161774
H24   H     H_    0.322987 0.486659 0.194301 0.140966
N1    N     N_R   0.495642 0.499677 0.147005 -0.358255
N2    N     N_R   0.514179 0.507549 0.853825 -0.346482
N3    N     N_R   0.222200 0.444670 0.469780 -0.103744
N4    N     N_R   0.776960 0.554790 0.529910 -0.132053
O1    O     O_R   0.366740 0.627150 0.485570 -0.625080
O2    O     O_2   0.525149 0.673288 0.155162 -0.556852
O3    O     O_2   0.549420 0.679556 0.860060 -0.596491
O4    O     O_2   0.480721 0.335131 0.844953 -0.575723
O5    O     O_R   0.544830 0.662520 0.504870 -0.601985
O6    O     O_R   0.410930 0.482340 0.574190 -0.608908
O7    O     O_R   0.589010 0.517710 0.593490 -0.623643
O8    O     O_R   0.455170 0.337480 0.495130 -0.607455
O9    O     O_R   0.633260 0.372850 0.514430 -0.638039
O10   O     O_R   0.410990 0.482290 0.406510 -0.619282
O11   O     O_R   0.589070 0.517660 0.425810 -0.630901
O12   O     O_2   0.464817 0.326356 0.141376 -0.561623
Zn1   Zn    Zn3+2 0.381090 0.476380 0.487110 0.946007
Zn2   Zn    Zn3+2 0.618910 0.523620 0.512890 0.932657
C57   C     C_R   0.929537 0.740689 0.627411 0.150148
C58   C     C_R   0.893317 0.740548 0.680118 -0.158203
C59   C     C_R   0.915861 0.817501 0.721028 -0.137006
C60   C     C_R   0.975024 0.894985 0.709942 -0.134484
C61   C     C_R   0.012040 0.895533 0.657977 -0.130572
C62   C     C_R   0.989511 0.818900 0.616838 -0.095550
H25   H     H_    0.848136 0.680665 0.689780 0.125801
H26   H     H_    0.887675 0.816881 0.761438 0.131928
H27   H     H_    0.992476 0.954423 0.741708 0.121951
H28   H     H_    0.057866 0.955641 0.649443 0.132113
H29   H     H_    0.017599 0.821564 0.576462 0.117722
C63   C     C_R   0.701731 0.411343 0.811397 0.128044
C64   C     C_R   0.764854 0.467100 0.854566 -0.168586
C65   C     C_R   0.859860 0.417721 0.892039 -0.142474
C66   C     C_R   0.892854 0.312640 0.886481 -0.101198
C67   C     C_R   0.831077 0.256830 0.843297 -0.139393
C68   C     C_R   0.736001 0.305925 0.805739 -0.108978
H30   H     H_    0.741381 0.548835 0.858784 0.164731
H31   H     H_    0.908169 0.461032 0.925233 0.137024
H32   H     H_    0.966477 0.274552 0.915496 0.130954
H33   H     H_    0.856857 0.175506 0.838921 0.129070
H34   H     H_    0.688638 0.261733 0.772575 0.140624
C69   C     C_2   0.314059 0.616607 0.650833 0.380916
H35   H     H_    0.324804 0.650121 0.610652 0.052728
O13   O     O_2   0.221550 0.624429 0.659916 -0.582074
C70   C     C_R   0.323447 0.611679 0.778023 0.175908
C71   C     C_R   0.255714 0.553129 0.800302 -0.121658
C72   C     C_R   0.169544 0.602064 0.823634 -0.138340
C73   C     C_R   0.150610 0.709512 0.824881 -0.098211
C74   C     C_R   0.217622 0.768229 0.802659 -0.117282
C75   C     C_R   0.303805 0.719614 0.779241 -0.047738
H36   H     H_    0.269529 0.469850 0.799427 0.156145
H37   H     H_    0.117432 0.556703 0.840737 0.135674
H38   H     H_    0.083873 0.747290 0.842951 0.123035
H39   H     H_    0.202742 0.851424 0.803560 0.126072
H40   H     H_    0.355389 0.765770 0.762216 0.132859

loop_
_geom_bond_atom_site_label_1
_geom_bond_atom_site_label_2
_ccdc_geom_bond_type
C55   C56   A    
C13   H23   S    
C59   C60   A    
C41   C42   A    
C12   O7    A    
C19   C20   A    
C24   N1    S    
C74   C75   A    
C8    C56   A    
C67   C68   A    
O11   Zn2   S    
C7    C8    A    
C53   C54   A    
C10   O4    S    
C58   H25   S    
C72   C73   A    
C18   C24   A    
C5    C6    A    
C12   O6    A    
C28   C29   A    
C3    H12   S    
C21   H3    S    
C31   C36   A    
C22   H4    S    
C62   H29   S    
C15   C16   A    
C53   N1    A    
C18   C19   A    
C25   H7    S    
C23   C26   S    
C73   H38   S    
C41   H18   S    
C63   C64   A    
C71   H36   S    
C47   C48   A    
C45   C56   A    
C27   C39   A    
C16   C17   A    
C53   O2    S    
C15   C69   S    
O6    Zn1   S    
C67   H33   S    
C44   C47   A    
C9    N2    A    
C7    H21   S    
C38   H5    S    
C20   C34   S    
C66   H32   S    
C57   C62   A    
C13   C14   A    
C11   C63   S    
C8    H22   S    
C65   C66   A    
C44   C46   A    
O8    Zn1   S    
C19   H2    S    
C43   H19   S    
C2    H1    S    
C34   O10   A    
C28   H11   S    
C52   H14   S    
C34   O11   A    
C2    C54   A    
C26   C38   A    
C47   C51   A    
O10   Zn1   S    
C40   C52   A    
C41   N4    A    
C42   C57   S    
C10   N2    A    
C23   O9    A    
C35   C36   A    
C52   N3    A    
C43   C44   A    
C29   C30   A    
C27   H9    S    
C50   H20   S    
C25   C38   A    
C57   C58   A    
C17   N2    S    
C60   H27   S    
C32   C37   A    
C69   H35   S    
C64   H30   S    
C46   N4    A    
C48   C49   A    
C12   C14   S    
C68   H34   S    
C49   H15   S    
C71   C72   A    
C22   C24   A    
C1    O1    A    
C42   C43   A    
C65   H31   S    
C73   C74   A    
C51   N3    A    
C61   C62   A    
C37   H8    S    
C36   H13   S    
C66   C67   A    
C59   H26   S    
C40   C48   A    
C54   C55   A    
C11   C17   A    
C1    O5    A    
C40   H16   S    
C64   C65   A    
C23   O8    A    
C5    C55   A    
C45   N1    A    
C51   H17   S    
C4    C5    A    
C6    C10   A    
C26   C37   A    
C6    C7    A    
C46   C50   A    
O5    Zn2   S    
N4    Zn2   S    
C32   C33   A    
C2    C3    A    
C16   C70   S    
C74   H39   S    
C9    O3    S    
C30   C32   A    
C11   C13   A    
C30   C31   A    
C72   H37   S    
O9    Zn2   S    
C58   C59   A    
C33   C35   A    
C31   C39   A    
C70   C75   A    
C35   H6    S    
O7    Zn2   S    
C60   C61   A    
C75   H40   S    
C69   O13   D    
O1    Zn1   S    
C1    C39   S    
C29   H10   S    
C20   C21   A    
C18   H24   S    
C49   C50   A    
N3    Zn1   S    
C27   C28   A    
C14   C15   A    
C61   H28   S    
C4    C9    A    
C21   C22   A    
C45   O12   S    
C63   C68   A    
C3    C4    A    
C25   C33   A    
C70   C71   A    
