data_mof_unit_50862.cif
_audit_creation_date              2012-10-26T20:01:52-0400
_audit_creation_method            fapswitch 2.2
_symmetry_space_group_name_H-M    P1
_symmetry_Int_Tables_number       1
_space_group_crystal_system       triclinic
_cell_length_a                    11.680659
_cell_length_b                    10.952664
_cell_length_c                    9.679229
_cell_angle_alpha                 87.313647
_cell_angle_beta                  88.823056
_cell_angle_gamma                 96.503964
_cell_volume                      1228.56703465

loop_
_atom_site_label
_atom_site_type_symbol
_atom_type_description
_atom_site_fract_x
_atom_site_fract_y
_atom_site_fract_z
_atom_type_partial_charge
C1    C     C_R   0.506278 0.263059 0.503926 0.573204
C2    C     C_R   0.489293 0.871668 0.492470 -0.027449
C3    C     C_R   0.670014 0.651635 0.130387 -0.005102
C4    C     C_R   0.284570 0.501969 0.500651 0.537934
C5    C     C_R   0.757150 0.722723 0.052909 0.261614
C6    C     C_R   0.753749 0.727758 0.910164 -0.110804
C7    C     C_R   0.665844 0.658699 0.844394 -0.108606
C8    C     C_R   0.581772 0.577131 0.919291 0.127229
C9    C     C_R   0.582476 0.575747 0.067926 0.082808
C10   C     C_R   0.422613 0.424472 0.083110 0.356542
C11   C     C_R   0.417560 0.425341 0.934512 0.111434
C12   C     C_R   0.418706 0.010321 0.873987 0.246173
C13   C     C_R   0.496012 0.737310 0.496947 0.546270
C14   C     C_R   0.715767 0.501206 0.498810 0.545388
C15   C     C_1   0.162871 0.503668 0.501336 -0.003165
C16   C     C_1   0.060325 0.503966 0.499994 -0.006615
C17   C     C_1   0.940403 0.503369 0.497755 0.006543
C18   C     C_1   0.837713 0.502421 0.496909 0.028116
C19   C     C_R   0.469447 0.090440 0.766762 -0.081264
C20   C     C_3   0.318951 0.326934 0.890492 -0.204270
C21   C     C_3   0.251509 0.301190 0.758480 -0.300634
C22   C     C_3   0.167314 0.183294 0.777016 -0.447791
C23   C     C_R   0.364413 0.895719 0.844045 -0.073197
C24   C     C_R   0.375406 0.853854 0.711997 -0.113688
C25   C     C_R   0.445051 0.924951 0.609659 -0.027472
C26   C     C_R   0.475444 0.051294 0.629290 -0.068875
C27   C     C_R   0.517126 0.129543 0.512690 -0.040259
C28   C     C_R   0.559470 0.076597 0.395116 0.287709
C29   C     C_R   0.544944 0.949231 0.384680 0.269614
Cl1   Cl    Cl    0.645671 0.168156 0.266615 -0.409818
Cl2   Cl    Cl    0.423356 0.050797 0.047005 -0.483401
Cl3   Cl    Cl    0.597635 0.891966 0.232636 -0.458685
Cl4   Cl    Cl    0.328663 0.317981 0.189548 -0.520993
Cl5   Cl    Cl    0.868127 0.810826 0.135695 -0.509605
Cu1   Cu    Cu3+1 0.499990 0.499990 0.640660 0.927972
Cu2   Cu    Cu3+1 0.500010 0.500010 0.359340 1.096713
H1    H     H_    0.818572 0.786891 0.849439 0.158119
H2    H     H_    0.195707 0.375303 0.739155 0.182595
H3    H     H_    0.306936 0.287168 0.669251 0.219959
H4    H     H_    0.346127 0.238313 0.925285 0.209445
H5    H     H_    0.244416 0.342843 0.957820 0.179423
H6    H     H_    0.667188 0.672982 0.734765 0.187507
H7    H     H_    0.511174 0.177968 0.795626 0.184816
H8    H     H_    0.318590 0.836392 0.924559 0.164168
H9    H     H_    0.333119 0.763423 0.692578 0.153962
H10   H     H_    0.670479 0.663200 0.238913 0.211749
H11   H     H_    0.214371 0.101817 0.794799 0.178064
H12   H     H_    0.106443 0.189030 0.865583 0.197048
H13   H     H_    0.116587 0.170394 0.681916 0.170329
N1    N     N_R   0.501070 0.501210 0.147910 -0.236516
N2    N     N_R   0.501110 0.501290 0.852040 -0.243673
O1    O     O_R   0.499990 0.319640 0.618810 -0.541871
O2    O     O_R   0.500000 0.319660 0.381240 -0.378451
O3    O     O_R   0.337190 0.500000 0.618790 -0.533102
O4    O     O_R   0.337200 0.500030 0.381210 -0.433542
O5    O     O_R   0.500000 0.680340 0.618760 -0.534283
O6    O     O_R   0.500010 0.680360 0.381190 -0.474642
O7    O     O_R   0.662800 0.499970 0.618790 -0.518003
O8    O     O_R   0.662810 0.500000 0.381210 -0.506668

loop_
_geom_bond_atom_site_label_1
_geom_bond_atom_site_label_2
_ccdc_geom_bond_type
C22   H12   S    
C23   C24   A    
C6    C7    A    
C3    C9    A    
C10   Cl4   S    
C14   C18   S    
C3    H10   S    
Cu1   Cu2   S    
C21   H3    S    
Cu2   O8    S    
C5    Cl5   S    
C13   O5    A    
C4    C15   S    
C28   Cl1   S    
C17   C18   T    
Cu1   O5    S    
C6    H1    S    
Cu2   N1    S    
C7    C8    A    
C4    O4    A    
Cu2   O4    S    
C21   C22   S    
C20   C21   S    
Cu1   O3    S    
C14   O8    A    
C12   C23   A    
C26   C27   A    
C16   C17   S    
C2    C29   A    
C14   O7    A    
C24   H9    S    
C12   C19   A    
C28   C29   A    
C19   H7    S    
C20   H5    S    
C29   Cl3   S    
Cu1   O7    S    
C12   Cl2   S    
Cu1   N2    S    
C5    C6    A    
C20   H4    S    
C1    O1    A    
C22   H11   S    
C11   C20   S    
C11   N2    A    
C10   C11   A    
C23   H8    S    
C15   C16   T    
C10   N1    A    
C2    C25   A    
Cu1   O1    S    
C13   O6    A    
C24   C25   A    
C19   C26   A    
Cu2   O6    S    
C7    H6    S    
C22   H13   S    
C27   C28   A    
C1    C27   S    
C2    C13   S    
C1    O2    A    
C21   H2    S    
Cu2   O2    S    
C8    N2    A    
C4    O3    A    
C25   C26   A    
C9    N1    A    
C8    C9    A    
C3    C5    A    
