data_mof_unit_35873.cif
_audit_creation_date              2013-03-05T15:41:00-0500
_audit_creation_method            fapswitch 2.2
_symmetry_space_group_name_H-M    P1
_symmetry_Int_Tables_number       1
_space_group_crystal_system       triclinic
_cell_length_a                    28.181122
_cell_length_b                    7.197373
_cell_length_c                    17.192512
_cell_angle_alpha                 89.883109
_cell_angle_beta                  101.93781
_cell_angle_gamma                 89.969612
_cell_volume                      3411.73146734

loop_
_atom_site_label
_atom_site_type_symbol
_atom_site_description
_atom_site_fract_x
_atom_site_fract_y
_atom_site_fract_z
_atom_type_partial_charge
O1    O     O_R   0.000700 0.436510 0.857920 -0.564270
O2    O     O_R   0.999300 0.563490 0.142080 -0.564325
O3    O     O_R   0.999300 0.936510 0.642080 -0.547540
O4    O     O_R   0.000700 0.063490 0.357920 -0.547512
O5    O     O_R   0.930080 0.766380 0.721890 -0.529235
O6    O     O_R   0.069920 0.233620 0.278110 -0.529435
O7    O     O_R   0.069920 0.266380 0.778110 -0.548575
O8    O     O_R   0.930080 0.733620 0.221890 -0.548590
C1    C     C_R   0.910595 0.597619 0.710500 0.859148
C2    C     C_R   0.089400 0.402383 0.289495 0.859596
C3    C     C_R   0.089393 0.097331 0.789311 0.863930
C4    C     C_R   0.910607 0.902668 0.210697 0.863931
O9    O     O_R   0.996180 0.766230 0.862310 -0.543759
O10   O     O_R   0.003820 0.233770 0.137690 -0.543654
O11   O     O_R   0.003820 0.266230 0.637690 -0.561047
O12   O     O_R   0.996180 0.733770 0.362310 -0.561046
O13   O     O_R   0.065870 0.936460 0.783500 -0.530564
O14   O     O_R   0.934130 0.063540 0.216500 -0.530609
O15   O     O_R   0.934130 0.436460 0.716500 -0.557604
O16   O     O_R   0.065870 0.563540 0.283500 -0.557645
C5    C     C_R   0.998475 0.596363 0.894452 0.865872
C6    C     C_R   0.001525 0.403637 0.105548 0.866258
C7    C     C_R   0.001506 0.096533 0.605495 0.860628
C8    C     C_R   0.998494 0.903467 0.394505 0.860705
O17   O     O_3   0.022790 0.603020 0.723980 -0.260295
O18   O     O_3   0.977210 0.396980 0.276020 -0.260331
O19   O     O_3   0.977210 0.103020 0.776020 -0.272282
O20   O     O_3   0.022790 0.896980 0.223980 -0.272447
V1    V     V_3+5 0.995770 0.877900 0.754830 1.237582
V2    V     V_3+5 0.004230 0.122100 0.245170 1.237429
V3    V     V_3+5 0.004230 0.377900 0.745170 1.206826
V4    V     V_3+5 0.995770 0.622100 0.254830 1.206711
C9    C     C_2   0.001667 0.082673 0.519500 -0.198104
C10   C     C_2   0.998333 0.917327 0.480500 -0.198108
C11   C     C_2   0.998249 0.582564 0.980366 -0.214207
C12   C     C_2   0.001752 0.417436 0.019635 -0.213859
H1    H     H_    0.004359 0.211466 0.487667 0.108118
H2    H     H_    0.995640 0.788533 0.512332 0.108103
H3    H     H_    0.995350 0.711315 0.011914 0.113578
H4    H     H_    0.004651 0.288685 0.988086 0.113609
C13   C     C_R   0.684231 0.985145 0.027944 0.565046
C14   C     C_R   0.315784 0.015807 0.972260 0.565009
C15   C     C_R   0.317411 0.403523 0.471297 0.564108
C16   C     C_R   0.682624 0.594388 0.528319 0.563984
O21   O     O_2   0.714278 0.015534 0.977480 -0.522017
O22   O     O_2   0.285747 0.986256 0.022813 -0.521884
O23   O     O_2   0.289056 0.346806 0.521123 -0.523096
O24   O     O_2   0.711025 0.649308 0.478270 -0.522957
N1    N     N_R   0.703120 0.941925 0.105817 -0.445093
N2    N     N_R   0.296882 0.058115 0.894293 -0.445080
N3    N     N_R   0.296823 0.447792 0.394187 -0.445293
N4    N     N_R   0.703164 0.552026 0.605656 -0.445286
C17   C     C_R   0.673338 0.911135 0.158199 0.564808
C18   C     C_R   0.326658 0.088040 0.841826 0.564759
C19   C     C_R   0.324889 0.504816 0.342412 0.567874
C20   C     C_R   0.675047 0.496837 0.657648 0.567900
C21   C     C_R   0.779411 0.068756 0.184171 -0.048537
C22   C     C_R   0.220590 0.931146 0.815982 -0.048494
C23   C     C_R   0.224673 0.295822 0.313640 -0.045761
C24   C     C_R   0.775312 0.704844 0.685821 -0.045883
C25   C     C_R   0.829901 0.059957 0.212575 0.299349
C26   C     C_R   0.170104 0.939950 0.787540 0.299341
C27   C     C_R   0.174183 0.284144 0.285415 0.299952
C28   C     C_R   0.825795 0.716582 0.714097 0.299899
C29   C     C_R   0.831771 0.774534 0.137366 -0.109888
C30   C     C_R   0.168224 0.225543 0.862632 -0.109685
C31   C     C_R   0.164109 0.552312 0.366682 -0.123020
C32   C     C_R   0.835879 0.446948 0.633659 -0.121878
C33   C     C_R   0.781488 0.784298 0.110435 0.015069
C34   C     C_R   0.218506 0.215786 0.889592 0.015144
C35   C     C_R   0.214340 0.563179 0.393382 0.019212
C36   C     C_R   0.785652 0.436016 0.606923 0.019704
C37   C     C_R   0.755045 0.931779 0.133365 0.216951
C38   C     C_R   0.244954 0.068217 0.866742 0.216768
C39   C     C_R   0.244914 0.434924 0.367237 0.216710
C40   C     C_R   0.755073 0.564974 0.632624 0.216483
C41   C     C_R   0.602341 0.969549 0.053216 -0.070484
C42   C     C_R   0.397664 0.030557 0.946904 -0.070512
C43   C     C_R   0.397611 0.473726 0.446630 -0.069805
C44   C     C_R   0.602376 0.525984 0.553203 -0.069819
C45   C     C_R   0.633647 0.999986 0.000336 -0.042078
C46   C     C_R   0.366369 0.001006 0.999873 -0.042055
C47   C     C_R   0.368032 0.415521 0.498823 -0.040374
C48   C     C_R   0.632004 0.582340 0.500789 -0.040366
C49   C     C_R   0.613936 0.045747 0.921277 -0.052089
C50   C     C_R   0.386093 0.956270 0.079040 -0.052085
C51   C     C_R   0.389481 0.370229 0.577225 -0.054389
C52   C     C_R   0.610608 0.625525 0.422134 -0.054367
C53   C     C_R   0.622563 0.924218 0.132913 -0.040064
C54   C     C_R   0.377432 0.074979 0.867116 -0.040000
C55   C     C_R   0.375640 0.518925 0.367634 -0.041919
C56   C     C_R   0.624298 0.482670 0.632422 -0.041883
C57   C     C_R   0.856798 0.912343 0.187728 -0.167584
C58   C     C_R   0.143203 0.087654 0.812311 -0.167639
C59   C     C_R   0.143185 0.412661 0.313209 -0.169440
C60   C     C_R   0.856803 0.587345 0.686746 -0.169787
H5    H     H_    0.851320 0.660414 0.117483 0.122510
H6    H     H_    0.148674 0.339733 0.882459 0.122685
H7    H     H_    0.141436 0.652193 0.388956 0.117705
H8    H     H_    0.858548 0.346488 0.611714 0.118031
H9    H     H_    0.763035 0.677123 0.071475 0.104002
H10   H     H_    0.236954 0.323048 0.928508 0.104076
H11   H     H_    0.229566 0.671784 0.434529 0.105795
H12   H     H_    0.770433 0.326800 0.566097 0.105691
H13   H     H_    0.637138 0.070419 0.879314 0.139727
H14   H     H_    0.362903 0.932579 0.121104 0.139606
H15   H     H_    0.367614 0.324895 0.618637 0.142930
H16   H     H_    0.632528 0.668821 0.380477 0.143056
C61   C     C_R   0.479991 0.046345 0.919143 0.021548
C62   C     C_R   0.520010 0.953396 0.080942 0.021539
C63   C     C_R   0.521762 0.454443 0.580257 0.021402
C64   C     C_R   0.478205 0.546032 0.419674 0.021373
C65   C     C_R   0.468702 0.969226 0.054347 0.020313
C66   C     C_R   0.531309 0.031303 0.945819 0.020279
C67   C     C_R   0.529569 0.558126 0.446278 0.021132
C68   C     C_R   0.470440 0.440724 0.553457 0.021129
C69   C     C_R   0.449014 0.015392 0.973593 0.048698
C70   C     C_R   0.550991 0.984735 0.026531 0.048675
C71   C     C_R   0.551007 0.512827 0.526466 0.048466
C72   C     C_R   0.448981 0.486851 0.473367 0.048384
C73   C     C_R   0.458231 0.091319 0.839414 -0.098468
C74   C     C_R   0.541753 0.907096 0.160533 -0.098301
C75   C     C_R   0.545200 0.411688 0.659442 -0.099227
C76   C     C_R   0.454696 0.591509 0.340819 -0.098929
C77   C     C_R   0.408168 0.105069 0.814206 -0.058467
C78   C     C_R   0.591815 0.893141 0.185721 -0.058585
C79   C     C_R   0.595249 0.425701 0.684727 -0.061769
C80   C     C_R   0.404636 0.577927 0.315579 -0.061699
O25   O     O_2   0.307246 0.131190 0.765442 -0.526735
O26   O     O_2   0.692743 0.867132 0.234492 -0.526648
O27   O     O_2   0.696123 0.454329 0.733411 -0.525131
O28   O     O_2   0.303761 0.549161 0.266876 -0.524980
C81   C     C_R   0.564016 0.061346 0.894505 -0.100938
C82   C     C_R   0.436011 0.940510 0.105798 -0.100945
C83   C     C_R   0.439450 0.382263 0.604066 -0.100269
C84   C     C_R   0.560630 0.613851 0.395339 -0.100582
H17   H     H_    0.241327 0.819019 0.797348 0.126097
H18   H     H_    0.758674 0.180808 0.202863 0.126042
H19   H     H_    0.751439 0.802417 0.706603 0.129185
H20   H     H_    0.248547 0.198826 0.292525 0.129292
H21   H     H_    0.393619 0.139397 0.752497 0.116124
H22   H     H_    0.606352 0.857819 0.247328 0.116173
H23   H     H_    0.611120 0.391176 0.745972 0.123455
H24   H     H_    0.388712 0.614487 0.254579 0.123382
H25   H     H_    0.478701 0.116681 0.794164 0.060367
H26   H     H_    0.521267 0.880444 0.205649 0.060231
H27   H     H_    0.526088 0.366810 0.704188 0.062011
H28   H     H_    0.473743 0.639024 0.296405 0.061641
H29   H     H_    0.552496 0.097753 0.832769 0.064541
H30   H     H_    0.447549 0.905425 0.167672 0.064492
H31   H     H_    0.452402 0.344118 0.665292 0.061898
H32   H     H_    0.547744 0.649293 0.333792 0.062200
N5    N     N_R   0.147394 0.802989 0.731248 0.100616
O29   O     O_R   0.163119 0.632434 0.736879 -0.350417
O30   O     O_R   0.116464 0.853690 0.667601 -0.357050
N6    N     N_R   0.852620 0.196835 0.268902 0.100603
O31   O     O_R   0.836884 0.367374 0.263348 -0.350161
O32   O     O_R   0.883578 0.146053 0.332503 -0.357096
N7    N     N_R   0.844414 0.854265 0.772914 0.101503
O33   O     O_R   0.823987 0.017068 0.769915 -0.336164
O34   O     O_R   0.876282 0.808194 0.836180 -0.353081
N8    N     N_R   0.155543 0.147305 0.226219 0.101388
O35   O     O_R   0.176078 0.984809 0.228564 -0.335130
O36   O     O_R   0.123499 0.194020 0.163269 -0.353676

loop_
_geom_bond_atom_site_label_1
_geom_bond_atom_site_label_2
_geom_bond_distance
_ccdc_geom_bond_type
O17   V3    1.763206 S    
C27   N8    1.437070 S    
C47   C51   1.396243 A    
C56   C79   1.396547 A    
C22   C26   1.406895 A    
O1    C5    1.319576 A    
O19   V1    1.764063 S    
O13   V1    1.980428 S    
O3    C7    1.318822 A    
C11   C12   1.359077 D    
C14   C46   1.410170 A    
C44   C48   1.408483 A    
O4    V2    2.005477 S    
O15   V3    1.979554 S    
C62   C70   1.423189 A    
C61   C69   1.423185 A    
C68   C83   1.417775 A    
C42   C54   1.408367 A    
O7    C3    1.331628 A    
C76   H28   1.075553 S    
C17   O26   1.349531 S    
C41   C53   1.408382 A    
C32   C60   1.408383 A    
C23   H20   1.083230 S    
C63   C71   1.423082 A    
N6    O31   1.301465 A    
N3    C39   1.443294 S    
C18   C54   1.409819 A    
N2    C38   1.443650 S    
C52   H16   1.083484 S    
C25   C57   1.421539 A    
C31   C35   1.397168 A    
C67   C84   1.417769 A    
C82   H30   1.075560 S    
C27   C59   1.421505 A    
O1    V3    2.007119 S    
C15   C47   1.409770 A    
O2    V4    2.007118 S    
C14   O22   1.349424 S    
C21   C37   1.400906 A    
O3    V1    2.005477 S    
C34   C38   1.399976 A    
C19   C55   1.409836 A    
C73   C77   1.390986 A    
C1    O15   1.329042 A    
C77   H21   1.083324 S    
C7    C9    1.482987 S    
O2    C6    1.319574 A    
N7    O34   1.301418 A    
C33   C37   1.399947 A    
C63   C68   1.427753 A    
O14   V2    1.980428 S    
N5    O30   1.301438 A    
O5    V1    1.990397 S    
C31   H7    1.083317 S    
C76   C80   1.391092 A    
C16   N4    1.369550 A    
O11   C7    1.338015 A    
C44   C71   1.428637 A    
O12   C8    1.338014 A    
C31   C59   1.408301 A    
C50   H14   1.083654 S    
O10   V2    2.011409 S    
C49   H13   1.083658 S    
C13   N1    1.369636 A    
C84   H32   1.075391 S    
C50   C82   1.391180 A    
N8    O36   1.301416 A    
C53   C78   1.396425 A    
O7    V3    1.988676 S    
C55   C80   1.396554 A    
C63   C75   1.417902 A    
O8    V4    1.988673 S    
C51   C83   1.390980 A    
C12   H4    1.086222 S    
C42   C69   1.428811 A    
C81   H29   1.075562 S    
C28   C60   1.421563 A    
C41   C70   1.428808 A    
C2    O16   1.328959 A    
C64   C72   1.423066 A    
O18   V4    1.763207 S    
C36   H12   1.082868 S    
N4    C40   1.443374 S    
C46   C50   1.396488 A    
O11   V3    2.014424 S    
C24   C40   1.401343 A    
C8    C10   1.482988 S    
C68   C72   1.423152 A    
C32   C36   1.397175 A    
C74   C78   1.391001 A    
C11   H3    1.086222 S    
C32   H8    1.083313 S    
O5    C1    1.331317 A    
C54   C77   1.396415 A    
C42   C46   1.408564 A    
C75   C79   1.391082 A    
N7    O33   1.301457 A    
C1    C60   1.488074 S    
C41   C45   1.408575 A    
O8    C4    1.331614 A    
C13   C45   1.410143 A    
C43   C72   1.428635 A    
C9    C10   1.360859 D    
O9    C5    1.336663 A    
C36   C40   1.399163 A    
C79   H23   1.083748 S    
C21   C25   1.406899 A    
C44   C56   1.408461 A    
C80   H24   1.083754 S    
C62   C65   1.427877 A    
C52   C84   1.390997 A    
C66   C70   1.423046 A    
C61   C66   1.427859 A    
C14   N2    1.369673 A    
C65   C69   1.423046 A    
C22   H17   1.083244 S    
O6    V2    1.990397 S    
C75   H27   1.075543 S    
C67   C71   1.423141 A    
C65   C82   1.417904 A    
C26   C58   1.421536 A    
C17   C53   1.409834 A    
O10   C6    1.336663 A    
C73   H25   1.075420 S    
N1    C37   1.443571 S    
C4    C57   1.487380 S    
C25   N6    1.437469 S    
C23   C39   1.401328 A    
C22   C38   1.400943 A    
N8    O35   1.301455 A    
O16   V4    1.979554 S    
O9    V1    2.011409 S    
C83   H31   1.075361 S    
C18   O25   1.349534 S    
C35   H11   1.082863 S    
C3    O13   1.328136 A    
C10   H2    1.086159 S    
C43   C55   1.408482 A    
C48   C52   1.396270 A    
C3    C58   1.487415 S    
C16   C48   1.409792 A    
O6    C2    1.331276 A    
C34   H10   1.082837 S    
C64   C76   1.417890 A    
C5    C11   1.481530 S    
C33   H9    1.082836 S    
O12   V4    2.014424 S    
C6    C12   1.481531 S    
C23   C27   1.407751 A    
C26   N5    1.437467 S    
C30   C58   1.408019 A    
C24   C28   1.407720 A    
C30   H6    1.083316 S    
N6    O32   1.301438 A    
C29   H5    1.083317 S    
N2    C18   1.369935 A    
C62   C74   1.417745 A    
C35   C39   1.399150 A    
C15   N3    1.369506 A    
C30   C34   1.398465 A    
C2    C59   1.487835 S    
O4    C8    1.318822 A    
C29   C33   1.398458 A    
C28   N7    1.437009 S    
O20   V2    1.764063 S    
C29   C57   1.408013 A    
C66   C81   1.417905 A    
C78   H22   1.083333 S    
C21   H18   1.083245 S    
N3    C19   1.369857 A    
C74   H26   1.075420 S    
C9    H1    1.086159 S    
N1    C17   1.369908 A    
C24   H19   1.083234 S    
C43   C47   1.408486 A    
N4    C20   1.369885 A    
C20   C56   1.409827 A    
C51   H15   1.083482 S    
C19   O28   1.349489 S    
C4    O14   1.328134 A    
C13   O21   1.349425 S    
C61   C73   1.417735 A    
N5    O29   1.301465 A    
C15   O23   1.349480 S    
C64   C67   1.427730 A    
C45   C49   1.396473 A    
C20   O27   1.349489 S    
C16   O24   1.349479 S    
C49   C81   1.391159 A    
