data_mof_unit_27040.cif
_audit_creation_date              2012-12-10T17:02:15-0500
_audit_creation_method            fapswitch 2.2
_symmetry_space_group_name_H-M    P1
_symmetry_Int_Tables_number       1
_space_group_crystal_system       triclinic
_cell_length_a                    10.678242
_cell_length_b                    10.62995
_cell_length_c                    10.022067
_cell_angle_alpha                 88.457422
_cell_angle_beta                  86.72425
_cell_angle_gamma                 91.883244
_cell_volume                      1134.6515833

loop_
_atom_site_label
_atom_site_type_symbol
_atom_type_description
_atom_site_fract_x
_atom_site_fract_y
_atom_site_fract_z
_atom_type_partial_charge
C1    C     C_R   0.487636 0.262160 0.502724 0.896743
C2    C     C_R   0.060222 0.601774 0.581399 -0.035765
C3    C     C_R   0.126402 0.503380 0.518250 -0.122826
C4    C     C_R   0.065617 0.410242 0.448192 -0.266002
C5    C     C_R   0.937539 0.410843 0.439920 0.190886
C6    C     C_R   0.873698 0.515175 0.487108 -0.138786
C7    C     C_2   0.428536 0.931503 0.402908 -0.177871
C8    C     C_2   0.489675 0.870617 0.495567 -0.343244
C9    C     C_2   0.436255 0.067836 0.398713 -0.260234
C10   C     C_2   0.442578 0.132523 0.511784 0.066973
C11   C     C_2   0.574024 0.571956 0.918729 -0.208998
C12   C     C_R   0.259925 0.504276 0.504908 0.891973
C13   C     C_2   0.557666 0.586313 0.068056 0.237480
C14   C     C_R   0.494512 0.737541 0.498709 0.954051
C15   C     C_R   0.740007 0.506465 0.496033 0.968459
C16   C     C_R   0.111467 0.687898 0.673652 0.219941
C17   C     C_R   0.052482 0.802568 0.694863 -0.211311
C18   C     C_R   0.942675 0.828483 0.635020 -0.261665
C19   C     C_R   0.883331 0.737603 0.560341 0.223874
C20   C     C_R   0.937183 0.618288 0.543325 -0.004810
H1    H     H_    0.117781 0.334554 0.403511 0.146936
H2    H     H_    0.644389 0.631711 0.863378 0.175213
H3    H     H_    0.427318 0.454616 0.904260 0.152687
H4    H     H_    0.473183 0.418421 0.106338 0.130241
H5    H     H_    0.089251 0.872770 0.759594 0.159085
H6    H     H_    0.902462 0.919922 0.648111 0.145219
H7    H     H_    0.383224 0.882139 0.324420 0.173779
H8    H     H_    0.539024 0.919322 0.571202 0.167897
H9    H     H_    0.456472 0.112595 0.300779 0.164827
N1    N     N_2   0.501340 0.501330 0.852150 -0.199410
N2    N     N_2   0.501380 0.501360 0.147810 -0.200501
O1    O     O_R   0.499980 0.319060 0.613040 -0.596942
O2    O     O_R   0.500020 0.319100 0.386900 -0.633772
O3    O     O_R   0.316750 0.499980 0.613090 -0.608428
O4    O     O_R   0.316790 0.500020 0.386950 -0.621115
O5    O     O_R   0.499980 0.680900 0.613100 -0.608528
O6    O     O_R   0.500020 0.680940 0.386960 -0.572654
O7    O     O_R   0.683210 0.499980 0.613050 -0.621434
O8    O     O_R   0.683250 0.500020 0.386910 -0.584817
Zn1   Zn    Zn3+2 0.499970 0.499970 0.650990 0.942578
Zn2   Zn    Zn3+2 0.500030 0.500030 0.349010 0.960800
N3    N     N_2   0.387160 0.083196 0.637224 -0.302001
H10   H     H_    0.319113 0.012237 0.635128 0.240672
C21   C     C_3   0.462854 0.082236 0.753035 -0.782056
H11   H     H_    0.464180 0.985421 0.797093 0.215666
H12   H     H_    0.421488 0.144804 0.829402 0.251026
H13   H     H_    0.561685 0.113762 0.726641 0.242146
N4    N     N_2   0.608786 0.697068 0.122562 -0.242322
H14   H     H_    0.704127 0.707543 0.100624 0.205515
C22   C     C_3   0.544327 0.809591 0.086231 -0.803605
H15   H     H_    0.581097 0.890771 0.141191 0.235855
H16   H     H_    0.442045 0.797064 0.112198 0.245291
H17   H     H_    0.559393 0.831347 0.977272 0.220094
N5    N     N_2   0.204815 0.649156 0.761310 -0.263731
H18   H     H_    0.183369 0.563824 0.810198 0.230912
C23   C     C_3   0.267119 0.740287 0.842057 -0.777722
H19   H     H_    0.345570 0.695733 0.890764 0.250785
H20   H     H_    0.200899 0.773618 0.921941 0.217905
H21   H     H_    0.306511 0.820425 0.778216 0.242839
N6    N     N_2   0.779408 0.774157 0.488489 -0.312487
H22   H     H_    0.731632 0.845012 0.534484 0.206451
C24   C     C_3   0.811977 0.807339 0.349723 -0.788482
H23   H     H_    0.727631 0.840381 0.301981 0.256120
H24   H     H_    0.847312 0.724447 0.295952 0.247436
H25   H     H_    0.884588 0.885027 0.341539 0.233052
N7    N     N_2   0.873550 0.308258 0.381333 -0.292913
H26   H     H_    0.922842 0.272898 0.299908 0.223989
C25   C     C_3   0.828699 0.209241 0.475806 -0.807338
H27   H     H_    0.773063 0.137522 0.423710 0.237648
H28   H     H_    0.767313 0.247586 0.557037 0.245019
H29   H     H_    0.909173 0.162923 0.519920 0.233708

loop_
_geom_bond_atom_site_label_1
_geom_bond_atom_site_label_2
_ccdc_geom_bond_type
C13   N4    S    
C22   H16   S    
C23   H21   S    
C15   O7    A    
C24   H23   S    
N5    C23   S    
C19   N6    S    
C10   N3    S    
C2    C16   A    
C9    C10   D    
C11   H2    S    
N7    C25   S    
C19   C20   A    
C18   H6    S    
C21   H13   S    
C9    H9    S    
C17   H5    S    
N4    C22   S    
C17   C18   A    
H4    N2    S    
N1    Zn1   S    
C7    C8    D    
O8    Zn2   S    
C23   H19   S    
C12   O4    A    
O7    Zn1   S    
C4    H1    S    
C11   C13   S    
C15   O8    A    
C16   C17   A    
N3    C21   S    
C25   H29   S    
O3    Zn1   S    
C4    C5    A    
C25   H28   S    
N4    H14   S    
C23   H20   S    
N7    H26   S    
O2    Zn2   S    
C2    C3    A    
O1    Zn1   S    
O6    Zn2   S    
C5    C6    A    
O4    Zn2   S    
C16   N5    S    
C22   H17   S    
N3    H10   S    
C1    O2    A    
C3    C4    A    
H3    N1    S    
O5    Zn1   S    
C6    C20   A    
C21   H11   S    
C8    H8    S    
N6    C24   S    
C18   C19   A    
C24   H24   S    
C7    C9    S    
C2    C20   A    
C13   N2    D    
C7    H7    S    
N6    H22   S    
C14   O5    A    
C8    C14   S    
C3    C12   S    
N2    Zn2   S    
C24   H25   S    
C22   H15   S    
C6    C15   S    
N5    H18   S    
C12   O3    A    
C25   H27   S    
C1    O1    A    
C1    C10   S    
C11   N1    D    
C21   H12   S    
C5    N7    S    
C14   O6    A    
