data_mof_unit_65346.cif
_audit_creation_date              2012-12-10T21:25:19-0500
_audit_creation_method            fapswitch 2.2
_symmetry_space_group_name_H-M    P1
_symmetry_Int_Tables_number       1
_space_group_crystal_system       triclinic
_cell_length_a                    10.958104
_cell_length_b                    17.671495
_cell_length_c                    16.778571
_cell_angle_alpha                 89.865181
_cell_angle_beta                  89.220753
_cell_angle_gamma                 93.519188
_cell_volume                      3242.66119228

loop_
_atom_site_label
_atom_site_type_symbol
_atom_type_description
_atom_site_fract_x
_atom_site_fract_y
_atom_site_fract_z
_atom_type_partial_charge
C1    C     C_R   0.506106 0.353654 0.499816 0.930742
C2    C     C_R   0.562352 0.233578 0.432042 0.348269
C3    C     C_R   0.482570 0.728253 0.500649 -0.167744
C4    C     C_R   0.517431 0.271747 0.499351 -0.167744
C5    C     C_R   0.516557 0.769052 0.431603 -0.217428
C6    C     C_R   0.483445 0.230948 0.568397 -0.217429
C7    C     C_R   0.517912 0.847300 0.430297 0.032842
C8    C     C_R   0.482091 0.152700 0.569703 0.032839
C9    C     C_R   0.482750 0.885848 0.498914 -0.012879
C10   C     C_R   0.517251 0.114152 0.501086 -0.012880
C11   C     C_1   0.494393 0.966341 0.499731 -0.004766
C12   C     C_R   0.493894 0.646346 0.500184 0.930743
C13   C     C_1   0.505608 0.033659 0.500269 -0.004767
C14   C     C_R   0.438747 0.442869 0.834121 -0.210731
C15   C     C_R   0.561253 0.557131 0.165879 -0.210733
C16   C     C_R   0.259805 0.502948 0.500573 0.900675
C17   C     C_R   0.740195 0.497052 0.499427 0.900675
C18   C     C_R   0.438203 0.443267 0.750162 0.109820
C19   C     C_R   0.561797 0.556733 0.249838 0.109821
C20   C     C_R   0.561510 0.558194 0.747318 0.052355
C21   C     C_R   0.438489 0.441806 0.252682 0.052356
C22   C     C_R   0.560103 0.560961 0.831986 -0.125220
C23   C     C_R   0.872613 0.494117 0.498416 -0.157957
C24   C     C_R   0.439897 0.439039 0.168014 -0.125219
C25   C     C_R   0.499813 0.501662 0.876020 0.072531
C26   C     C_R   0.500187 0.498338 0.123980 0.072530
C27   C     C_1   0.499706 0.500390 0.963617 0.045439
C28   C     C_1   0.500293 0.499610 0.036383 0.045438
C29   C     C_R   0.231324 0.671786 0.295723 0.348279
C30   C     C_R   0.768674 0.328217 0.704280 0.348278
C31   C     C_R   0.178779 0.635108 0.363554 -0.194299
C32   C     C_R   0.821220 0.364894 0.636448 -0.194297
C33   C     C_R   0.133607 0.558529 0.359223 -0.053078
C34   C     C_R   0.127387 0.505883 0.501584 -0.157956
C35   C     C_R   0.866393 0.441472 0.640777 -0.053078
C36   C     C_R   0.141707 0.519401 0.285988 0.298420
C37   C     C_R   0.858294 0.480601 0.714012 0.298420
C38   C     C_R   0.189185 0.557611 0.217622 -0.231946
C39   C     C_R   0.810816 0.442393 0.782379 -0.231947
C40   C     C_R   0.236638 0.633056 0.222920 0.304443
C41   C     C_R   0.763363 0.366947 0.777082 0.304443
C42   C     C_R   0.940249 0.512448 0.427774 -0.066098
C43   C     C_R   0.059751 0.487552 0.572226 -0.066096
C44   C     C_1   0.556328 0.886326 0.357561 0.275112
C45   C     C_R   0.932788 0.477966 0.570031 0.067445
C46   C     C_1   0.443677 0.113674 0.642439 0.275114
C47   C     C_1   0.364263 0.385023 0.711036 0.257475
C48   C     C_1   0.635738 0.614976 0.288964 0.257474
C49   C     C_1   0.628800 0.617736 0.703441 0.377534
C50   C     C_1   0.371200 0.382264 0.296559 0.377537
C51   C     C_1   0.620542 0.624395 0.873375 0.239735
C52   C     C_1   0.379456 0.375605 0.126625 0.239738
C53   C     C_1   0.167007 0.677194 0.436883 0.282050
C54   C     C_1   0.832990 0.322806 0.563120 0.282049
C55   C     C_1   0.182432 0.520927 0.140769 0.383512
C56   C     C_R   0.067212 0.522034 0.429969 0.067446
C57   C     C_1   0.817571 0.479078 0.859232 0.383512
C58   C     C_1   0.882991 0.517646 0.350572 0.342003
C59   C     C_1   0.117009 0.482352 0.649428 0.342001
C60   C     C_1   0.395098 0.885315 0.636198 0.311138
C61   C     C_1   0.604900 0.114685 0.363801 0.311138
C62   C     C_R   0.439093 0.845727 0.567083 -0.077467
C63   C     C_R   0.560906 0.154273 0.432917 -0.077467
C64   C     C_R   0.437647 0.766422 0.567957 0.348268
Cl1   Cl    Cl    0.300683 0.679925 0.137513 -0.494932
Cl2   Cl    Cl    0.699319 0.320080 0.862490 -0.494933
Cl3   Cl    Cl    0.284086 0.768163 0.300412 -0.528728
Cl4   Cl    Cl    0.715911 0.231839 0.699593 -0.528729
Cl5   Cl    Cl    0.087922 0.423042 0.278766 -0.578263
Cl6   Cl    Cl    0.912080 0.576961 0.721232 -0.578260
Cl7   Cl    Cl    0.372069 0.716675 0.651683 -0.554239
Cl8   Cl    Cl    0.627929 0.283325 0.348316 -0.554240
H1    H     H_    0.389642 0.397249 0.866801 0.179227
H2    H     H_    0.610359 0.602751 0.133199 0.179226
H3    H     H_    0.542590 0.740126 0.378128 0.202814
H4    H     H_    0.457414 0.259874 0.621873 0.202815
N1    N     N_R   0.500030 0.500030 0.707230 -0.142979
N2    N     N_1   0.331205 0.324996 0.093571 -0.106985
N3    N     N_1   0.157234 0.710763 0.495519 -0.118806
N4    N     N_1   0.842762 0.289236 0.504484 -0.118810
N5    N     N_1   0.176293 0.491916 0.079060 -0.145494
N6    N     N_1   0.823711 0.508090 0.920939 -0.145493
N7    N     N_1   0.840626 0.520003 0.287917 -0.148531
N8    N     N_1   0.159374 0.479995 0.712082 -0.148533
N9    N     N_1   0.359425 0.916266 0.691708 -0.111234
N10   N     N_1   0.640571 0.083734 0.308289 -0.111233
N11   N     N_R   0.499970 0.499970 0.292770 -0.142979
N12   N     N_1   0.586925 0.916787 0.298878 -0.114840
N13   N     N_1   0.413083 0.083213 0.701123 -0.114839
N14   N     N_1   0.301716 0.338694 0.680848 -0.208099
N15   N     N_1   0.698286 0.661305 0.319153 -0.208100
N16   N     N_1   0.683110 0.666122 0.669220 -0.122295
N17   N     N_1   0.316889 0.333878 0.330780 -0.122296
N18   N     N_1   0.668792 0.675005 0.906429 -0.106986
O1    O     O_R   0.500000 0.389130 0.566570 -0.641954
O2    O     O_R   0.500000 0.610870 0.433430 -0.641954
O3    O     O_R   0.499990 0.389100 0.433480 -0.585194
O4    O     O_R   0.500010 0.610900 0.566520 -0.585194
O5    O     O_R   0.316760 0.500020 0.566540 -0.615858
O6    O     O_R   0.683240 0.499980 0.433460 -0.615859
O7    O     O_R   0.316760 0.499990 0.433460 -0.624287
O8    O     O_R   0.683240 0.500010 0.566540 -0.624287
Zn1   Zn    Zn3+2 0.500010 0.500020 0.588860 1.000474
Zn2   Zn    Zn3+2 0.499990 0.499980 0.411140 1.000474

loop_
_geom_bond_atom_site_label_1
_geom_bond_atom_site_label_2
_ccdc_geom_bond_type
C24   C52   S    
O5    Zn1   S    
C21   N11   A    
C34   C56   A    
C23   C45   A    
C14   C18   A    
C10   C63   A    
C18   C47   S    
C42   C58   S    
C39   C41   A    
C46   N13   T    
C3    C64   A    
C36   Cl5   S    
C15   C19   A    
C17   C23   S    
C23   C42   A    
C20   N1    A    
C35   C37   A    
C24   C26   A    
C19   N11   A    
C52   N2    T    
O4    Zn1   S    
C39   C57   S    
O6    Zn2   S    
C33   C36   A    
C60   C62   S    
C64   Cl7   S    
C61   C63   S    
C62   C64   A    
C3    C12   S    
C16   C34   S    
C29   Cl3   S    
C38   C55   S    
C22   C25   A    
C31   C33   A    
C30   C41   A    
C55   N5    T    
C12   O4    A    
C43   C59   S    
C42   C56   A    
C33   C56   S    
C38   C40   A    
C37   Cl6   S    
C2    Cl8   S    
C32   C54   S    
C21   C50   S    
O1    Zn1   S    
C54   N4    T    
C9    C62   A    
C32   C35   A    
C59   N8    T    
C4    C6    A    
C1    O3    A    
C5    C7    A    
C19   C48   S    
C15   C26   A    
C6    C8    A    
C48   N15   T    
C5    H3    S    
C2    C4    A    
C17   O8    A    
C14   H1    S    
C20   C49   S    
C9    C11   S    
C1    O1    A    
C16   O5    A    
C7    C44   S    
C31   C53   S    
C43   C45   A    
C8    C10   A    
C20   C22   A    
O7    Zn2   S    
C40   Cl1   S    
O2    Zn2   S    
C47   N14   T    
N1    Zn1   S    
C49   N16   T    
C35   C45   S    
C2    C63   A    
C7    C9    A    
C53   N3    T    
C34   C43   A    
C3    C5    A    
C10   C13   S    
C60   N9    T    
C50   N17   T    
C6    H4    S    
C41   Cl2   S    
C25   C27   S    
C26   C28   S    
C1    C4    S    
C36   C38   A    
C29   C31   A    
C58   N7    T    
C30   C32   A    
C11   C13   T    
C18   N1    A    
C29   C40   A    
C14   C25   A    
O8    Zn1   S    
C17   O6    A    
C8    C46   S    
O3    Zn2   S    
C61   N10   T    
C51   N18   T    
N11   Zn2   S    
C16   O7    A    
C15   H2    S    
C37   C39   A    
C21   C24   A    
C27   C28   T    
C57   N6    T    
C12   O2    A    
C44   N12   T    
C30   Cl4   S    
C22   C51   S    
