data_mof_unit_66384.cif
_audit_creation_date              2012-12-10T17:19:21-0500
_audit_creation_method            fapswitch 2.2
_symmetry_space_group_name_H-M    P1
_symmetry_Int_Tables_number       1
_space_group_crystal_system       triclinic
_cell_length_a                    18.731653
_cell_length_b                    18.719802
_cell_length_c                    18.810008
_cell_angle_alpha                 109.376964
_cell_angle_beta                  109.560854
_cell_angle_gamma                 109.197537
_cell_volume                      5094.7621306

loop_
_atom_site_label
_atom_site_type_symbol
_atom_type_description
_atom_site_fract_x
_atom_site_fract_y
_atom_site_fract_z
_atom_type_partial_charge
C1    C     C_R   0.380705 0.381252 0.499515 0.808960
C2    C     C_3   0.808948 0.498495 0.807784 0.110694
C3    C     C_3   0.847873 0.578436 0.795760 -0.392351
C4    C     C_3   0.739863 0.505759 0.833777 -0.434043
C5    C     C_R   0.231644 0.310364 0.477332 0.151166
C6    C     C_R   0.167762 0.244903 0.476862 -0.201944
C7    C     C_R   0.185664 0.186107 0.499553 -0.049164
C8    C     C_R   0.267206 0.191613 0.521445 -0.175123
C9    C     C_R   0.330284 0.255041 0.519954 -0.236409
C10   C     C_R   0.313057 0.314699 0.498804 -0.007330
C11   C     C_R   0.322018 0.577905 0.319128 -0.245541
C12   C     C_R   0.618079 0.498433 0.619260 0.771129
C13   C     C_R   0.258940 0.580429 0.255543 0.172461
C14   C     C_R   0.183886 0.501594 0.186149 -0.089817
C15   C     C_R   0.172191 0.422166 0.181910 -0.195299
C16   C     C_R   0.235550 0.419589 0.244435 0.154664
C17   C     C_R   0.311318 0.498232 0.313431 -0.085654
C18   C     C_R   0.751199 0.762636 0.577082 -0.182464
C19   C     C_R   0.816065 0.825408 0.576705 -0.243395
C20   C     C_R   0.814479 0.812582 0.498412 -0.037017
C21   C     C_R   0.748421 0.735414 0.419803 0.261277
C22   C     C_R   0.684327 0.672074 0.421061 -0.244218
C23   C     C_R   0.618902 0.618944 0.499922 0.800691
C24   C     C_R   0.685587 0.685682 0.499393 -0.049948
C25   C     C_R   0.997119 0.380860 0.878248 0.806368
C26   C     C_R   0.877900 0.500944 0.878707 0.763193
C27   C     C_R   0.997071 0.618862 0.115912 0.768878
C28   C     C_R   0.116811 0.500793 0.117710 0.804239
C29   C     C_R   0.001138 0.881409 0.381671 0.781233
C30   C     C_R   0.118923 0.118853 0.499808 0.789985
C31   C     C_R   0.999619 0.119098 0.617968 0.791308
C32   C     C_R   0.881239 0.880792 0.499612 0.813019
C33   C     C_R   0.076003 0.321137 0.818889 -0.233201
C34   C     C_R   0.379406 0.498937 0.380530 0.806939
C35   C     C_R   0.077249 0.256717 0.756471 -0.177741
C36   C     C_R   0.998800 0.185786 0.684040 -0.041140
C37   C     C_R   0.919100 0.178432 0.674638 -0.247922
C38   C     C_R   0.917067 0.240545 0.739015 0.246130
C39   C     C_R   0.996329 0.313227 0.810956 -0.050900
C40   C     C_R   0.992671 0.755199 0.174598 -0.182098
C41   C     C_R   0.992881 0.818905 0.239256 -0.170951
C42   C     C_R   0.001761 0.814991 0.314664 -0.014791
C43   C     C_R   0.009453 0.746535 0.324704 -0.188443
C44   C     C_R   0.006100 0.681124 0.258601 -0.179822
C45   C     C_3   0.695586 0.415935 0.647464 -0.378372
C46   C     C_R   0.998281 0.685789 0.183813 -0.003460
C47   C     C_3   0.764997 0.412032 0.718791 0.418487
C48   C     C_3   0.775063 0.579963 0.727936 -0.402065
C49   C     C_3   0.664252 0.497129 0.759238 -0.402251
C50   C     C_3   0.686637 0.497731 0.687188 0.100849
Cu1   Cu    Cu3+1 0.500370 0.438230 0.438520 0.933019
Cu2   Cu    Cu3+1 0.499630 0.561770 0.561480 0.936319
Cu3   Cu    Cu3+1 0.935490 0.438190 0.997300 0.952662
Cu4   Cu    Cu3+1 0.059110 0.561720 0.997220 0.957326
Cu5   Cu    Cu3+1 0.937870 0.999900 0.437760 0.956414
Cu6   Cu    Cu3+1 0.062130 0.999920 0.562070 0.942010
H1    H     H_    0.713573 0.418617 0.597538 0.191038
H2    H     H_    0.771019 0.570108 0.892791 0.165738
H3    H     H_    0.771516 0.639594 0.759609 0.177529
H4    H     H_    0.882902 0.640176 0.858643 0.167258
H5    H     H_    0.104714 0.240719 0.460255 0.144188
H6    H     H_    0.281628 0.146158 0.538463 0.152439
H7    H     H_    0.393052 0.258505 0.536511 0.133266
H8    H     H_    0.380090 0.638063 0.372805 0.143803
H9    H     H_    0.114112 0.361617 0.128868 0.166631
H10   H     H_    0.630996 0.355967 0.612325 0.131800
H11   H     H_    0.752938 0.773478 0.638056 0.148160
H12   H     H_    0.866712 0.884726 0.637240 0.149668
H13   H     H_    0.633490 0.612379 0.360933 0.144652
H14   H     H_    0.137181 0.376384 0.874259 0.155187
H15   H     H_    0.139227 0.262929 0.763784 0.147517
H16   H     H_    0.858405 0.123192 0.618480 0.142937
H17   H     H_    0.986567 0.759089 0.116823 0.131179
H18   H     H_    0.987254 0.871769 0.231018 0.142461
H19   H     H_    0.016021 0.742734 0.382597 0.140905
H20   H     H_    0.011049 0.627788 0.266282 0.135550
H21   H     H_    0.790817 0.583095 0.676607 0.161225
H22   H     H_    0.896248 0.576140 0.774578 0.200655
H23   H     H_    0.652325 0.551949 0.785830 0.192158
H24   H     H_    0.603527 0.435502 0.731684 0.152417
H25   H     H_    0.713817 0.455894 0.851440 0.186499
O1    O     O_R   0.410130 0.357660 0.448070 -0.589098
O2    O     O_R   0.049990 0.461930 0.907530 -0.595858
O3    O     O_R   0.854450 0.447820 0.906640 -0.562805
O4    O     O_R   0.958850 0.552130 0.906580 -0.603397
O5    O     O_R   0.944620 0.537990 0.086990 -0.589264
O6    O     O_R   0.049020 0.642300 0.086930 -0.581835
O7    O     O_R   0.035760 0.447780 0.087940 -0.600030
O8    O     O_R   0.140150 0.552090 0.087880 -0.552321
O9    O     O_R   0.948110 0.909780 0.357760 -0.576696
O10   O     O_R   0.053050 0.909790 0.462730 -0.590005
O11   O     O_R   0.037720 0.090080 0.447430 -0.590261
O12   O     O_R   0.409500 0.461990 0.551910 -0.586601
O13   O     O_R   0.142660 0.090100 0.552410 -0.589901
O14   O     O_R   0.946950 0.090030 0.537090 -0.591090
O15   O     O_R   0.051890 0.090040 0.642060 -0.586384
O16   O     O_R   0.857350 0.909730 0.447410 -0.560473
O17   O     O_R   0.962280 0.909740 0.552390 -0.594836
O18   O     O_R   0.590970 0.447820 0.538740 -0.598028
O19   O     O_R   0.590340 0.552140 0.642570 -0.593714
O20   O     O_R   0.590500 0.538010 0.448090 -0.585322
O21   O     O_R   0.589870 0.642340 0.551930 -0.589491
O22   O     O_R   0.409660 0.447860 0.357430 -0.594565
O23   O     O_R   0.409030 0.552180 0.461260 -0.579870
O24   O     O_R   0.945590 0.357610 0.907590 -0.560938
N1    N     N_3   0.213762 0.370867 0.454069 -0.613249
H26   H     H_    0.147491 0.351518 0.428951 0.215167
H27   H     H_    0.247313 0.430793 0.511197 0.230726
N2    N     N_3   0.269778 0.662435 0.261974 -0.561112
H28   H     H_    0.330336 0.713749 0.314920 0.210607
H29   H     H_    0.222475 0.672074 0.274707 0.205953
N3    N     N_3   0.220175 0.336724 0.237582 -0.590095
H30   H     H_    0.226421 0.339740 0.296010 0.237278
H31   H     H_    0.267228 0.323928 0.227482 0.239074
N4    N     N_2   0.746838 0.720822 0.339901 -0.424134
H32   H     H_    0.684865 0.683723 0.286525 0.248361
C51   C     C_3   0.804694 0.689544 0.325940 -0.676438
H33   H     H_    0.782643 0.623386 0.318599 0.219070
H34   H     H_    0.872445 0.734273 0.381170 0.217723
H35   H     H_    0.804510 0.686199 0.265820 0.235051
N5    N     N_2   0.835426 0.231305 0.729326 -0.416880
H36   H     H_    0.793206 0.216154 0.667941 0.248256
C52   C     C_3   0.794205 0.171619 0.754392 -0.642011
H37   H     H_    0.775031 0.104000 0.709251 0.201678
H38   H     H_    0.734817 0.173610 0.751747 0.225042
H39   H     H_    0.838922 0.190152 0.821743 0.245668
N6    N     N_3   0.722606 0.335392 0.726626 -0.570004
H40   H     H_    0.697339 0.278275 0.669356 0.210369
H41   H     H_    0.668655 0.332836 0.732987 0.197062
N7    N     N_2   0.832781 0.406640 0.697945 -0.423125
H42   H     H_    0.881761 0.407263 0.744783 0.260642
C53   C     C_3   0.808842 0.346761 0.610515 -0.730761
H43   H     H_    0.857344 0.324455 0.613028 0.228332
H44   H     H_    0.809542 0.380765 0.572181 0.236023
H45   H     H_    0.743585 0.288561 0.576655 0.217102

loop_
_geom_bond_atom_site_label_1
_geom_bond_atom_site_label_2
_ccdc_geom_bond_type
C8    C9    A    
Cu5   Cu6   S    
C29   C42   S    
C41   C42   A    
C2    C4    S    
C19   C20   A    
Cu6   O17   S    
C21   N4    S    
N3    H31   S    
C25   O24   A    
C7    C8    A    
Cu3   Cu4   S    
C40   H17   S    
Cu6   O13   S    
C45   H1    S    
C33   C39   A    
Cu3   O3    S    
C18   C24   A    
C6    H5    S    
C36   C37   A    
Cu5   O9    S    
C51   H34   S    
C5    C6    A    
C52   H38   S    
C23   O21   A    
N1    H26   S    
Cu1   O22   S    
C31   O15   A    
C15   H9    S    
C3    C48   S    
C32   O16   A    
C18   C19   A    
C44   H20   S    
Cu4   O2    S    
C12   O18   A    
C13   N2    S    
C41   H18   S    
Cu6   O10   S    
C11   C17   A    
C4    H25   S    
C35   C36   A    
C53   H43   S    
N4    C51   S    
C28   O7    A    
C23   C24   S    
C28   O8    A    
C9    C10   A    
C22   H13   S    
C3    H4    S    
C48   C50   S    
C35   H15   S    
C31   C36   S    
C7    C30   S    
C21   C22   A    
C43   H19   S    
N3    H30   S    
C44   C46   A    
C5    N1    S    
C45   C47   S    
Cu1   O18   S    
C38   C39   A    
N5    C52   S    
C15   C16   A    
C47   N7    S    
Cu1   Cu2   S    
C53   H45   S    
C52   H37   S    
Cu4   O8    S    
Cu5   O14   S    
C11   H8    S    
N2    H28   S    
C51   H35   S    
C16   C17   A    
C52   H39   S    
C1    O1    A    
Cu2   O19   S    
C34   O23   A    
C49   H23   S    
C48   H21   S    
C27   O5    A    
N7    C53   S    
C43   C44   A    
N6    H41   S    
C19   H12   S    
C37   C38   A    
Cu2   O21   S    
Cu5   O16   S    
Cu2   O12   S    
C2    C26   S    
C27   O6    A    
Cu1   O1    S    
N5    H36   S    
Cu3   O5    S    
C33   H14   S    
Cu4   O6    S    
C27   C46   S    
C53   H44   S    
C40   C41   A    
Cu5   O11   S    
C22   C24   A    
C42   C43   A    
C40   C46   A    
N6    H40   S    
C29   O10   A    
C16   N3    S    
C48   H3    S    
C20   C32   S    
Cu6   O15   S    
Cu2   O23   S    
C26   O3    A    
C9    H7    S    
C29   O9    A    
C1    C10   S    
Cu4   O4    S    
C12   C50   S    
C47   N6    S    
C6    C7    A    
C2    C47   S    
Cu1   O20   S    
C34   O22   A    
C49   H24   S    
C4    C49   S    
N2    H29   S    
C2    C3    S    
C18   H11   S    
C5    C10   A    
C30   O13   A    
C51   H33   S    
C25   C39   S    
C11   C13   A    
C23   O20   A    
N1    H27   S    
C45   C50   S    
C26   O4    A    
C31   O14   A    
C33   C35   A    
C32   O17   A    
N7    H42   S    
Cu3   O7    S    
C12   O19   A    
C38   N5    S    
Cu3   O24   S    
C20   C21   A    
C1    O12   A    
C49   C50   S    
C17   C34   S    
C37   H16   S    
C4    H2    S    
C45   H10   S    
C25   O2    A    
C14   C15   A    
C14   C28   S    
C13   C14   A    
C3    H22   S    
N4    H32   S    
C8    H6    S    
C30   O11   A    
