data_mof_unit_35437.cif
_audit_creation_date              2012-12-11T17:06:25-0500
_audit_creation_method            fapswitch 2.2
_symmetry_space_group_name_H-M    P1
_symmetry_Int_Tables_number       1
_space_group_crystal_system       triclinic
_cell_length_a                    6.937037
_cell_length_b                    14.644874
_cell_length_c                    15.874434
_cell_angle_alpha                 90.45427
_cell_angle_beta                  90.067584
_cell_angle_gamma                 90.213503
_cell_volume                      1612.65295595

loop_
_atom_site_label
_atom_site_type_symbol
_atom_type_description
_atom_site_fract_x
_atom_site_fract_y
_atom_site_fract_z
_atom_type_partial_charge
O1    O     O_R   0.494400 0.415450 0.412630 -0.539669
O2    O     O_R   0.823940 0.405730 0.586760 -0.529256
O3    O     O_R   0.994240 0.584550 0.587370 -0.521061
C1    C     C_R   0.655068 0.383322 0.615217 0.729179
O4    O     O_R   0.824110 0.404430 0.413240 -0.548854
O5    O     O_R   0.994420 0.583240 0.412620 -0.542442
C2    C     C_R   0.654871 0.382580 0.383980 0.698528
O6    O     O_R   0.494230 0.416760 0.587380 -0.548184
O7    O     O_3   0.660800 0.558670 0.500000 -0.367309
V1    V     V_3+5 0.935650 0.489120 0.500000 1.446165
O8    O     O_R   0.324140 0.594270 0.413240 -0.543621
C3    C     C_R   0.155029 0.614076 0.382534 0.693349
O9    O     O_R   0.323960 0.595570 0.586760 -0.543678
C4    C     C_R   0.155201 0.617988 0.615450 0.735874
V2    V     V_3+5 0.435660 0.510880 0.500000 1.429936
O10   O     O_3   0.160640 0.441330 0.500000 -0.376886
C5    C     C_3   0.036326 0.674279 0.769259 -0.177950
C6    C     C_3   0.210645 0.716688 0.817353 -0.148350
H1    H     H_    0.275224 0.690430 0.876369 0.113903
H2    H     H_    0.956315 0.611922 0.787918 0.159373
C7    C     C_3   0.119909 0.811848 0.808193 -0.036848
C8    C     C_3   0.944893 0.770398 0.760994 -0.114281
C9    C     C_3   0.055770 0.782963 0.678141 0.234097
C10   C     C_3   0.228235 0.826744 0.724336 -0.197599
C11   C     C_3   0.318655 0.730229 0.732684 -0.134650
C12   C     C_3   0.144602 0.688097 0.685261 -0.021554
H3    H     H_    0.791259 0.787975 0.771587 0.111936
H4    H     H_    0.304550 0.890030 0.705236 0.105746
H5    H     H_    0.472160 0.712989 0.721307 0.132760
C13   C     C_R   0.249247 0.821748 0.246868 0.085936
C14   C     C_R   0.118449 0.812265 0.180230 -0.178394
C15   C     C_R   0.984735 0.739863 0.184648 -0.149011
H6    H     H_    0.877466 0.731591 0.135469 0.140521
C16   C     C_R   0.996490 0.673428 0.248613 0.191012
C17   C     C_R   0.139975 0.681066 0.312959 -0.148798
C18   C     C_R   0.258500 0.758750 0.311653 0.065805
C19   C     C_3   0.472298 0.768448 0.318420 -0.399514
C20   C     C_3   0.461635 0.837518 0.247417 -0.354954
H7    H     H_    0.548575 0.704920 0.300298 0.185420
H8    H     H_    0.517490 0.799178 0.379605 0.177009
H9    H     H_    0.532723 0.813812 0.188459 0.182032
H10   H     H_    0.499425 0.908093 0.267886 0.199195
C21   C     C_R   0.500879 0.317120 0.744716 0.062416
C22   C     C_R   0.648047 0.316212 0.684473 -0.094239
C23   C     C_R   0.795968 0.251401 0.695133 -0.121533
H11   H     H_    0.915592 0.248878 0.651551 0.111333
C24   C     C_R   0.784683 0.185248 0.759096 -0.141370
H12   H     H_    0.896076 0.133941 0.762986 0.109940
C25   C     C_R   0.624968 0.181913 0.813942 -0.116987
C26   C     C_R   0.489271 0.251671 0.807359 0.034691
C27   C     C_3   0.273716 0.249134 0.803046 -0.027849
C28   C     C_3   0.287037 0.323924 0.735789 -0.173048
H13   H     H_    0.217331 0.182979 0.778428 0.116013
H14   H     H_    0.237182 0.302067 0.672179 0.075115
C29   C     C_R   0.478878 0.301462 0.267279 0.101448
C30   C     C_R   0.642235 0.310545 0.318323 -0.147165
C31   C     C_R   0.785732 0.243401 0.310205 -0.216231
H15   H     H_    0.905763 0.243575 0.353998 0.156680
C32   C     C_R   0.772692 0.173847 0.247826 0.001842
C33   C     C_R   0.618875 0.174682 0.187980 -0.235563
C34   C     C_R   0.467783 0.235968 0.203677 0.207652
C35   C     C_3   0.363088 0.299458 0.146232 -0.007018
C36   C     C_3   0.376120 0.371234 0.216211 -0.410949
H16   H     H_    0.443497 0.316603 0.087737 0.101905
H17   H     H_    0.234971 0.390061 0.244523 0.185653
H18   H     H_    0.470214 0.430128 0.199896 0.145886
O11   O     O_R   0.771650 0.079500 0.908680 -0.539337
O12   O     O_R   0.441690 0.091800 0.082800 -0.538547
O13   O     O_R   0.271460 0.912980 0.083410 -0.534035
C37   C     C_R   0.610413 0.111833 0.113774 0.749976
O14   O     O_R   0.441930 0.090510 0.909280 -0.552977
O15   O     O_R   0.271690 0.911670 0.908660 -0.539409
C38   C     C_R   0.611101 0.111865 0.880117 0.690709
O16   O     O_R   0.771410 0.080810 0.083440 -0.526286
O17   O     O_3   0.605100 0.937580 0.996050 -0.370723
V3    V     V_3+5 0.330220 0.007110 0.996030 1.411890
O18   O     O_R   0.941980 0.900620 0.909250 -0.547311
C39   C     C_R   0.110324 0.879978 0.879305 0.678568
O19   O     O_R   0.941740 0.901920 0.082770 -0.532091
C40   C     C_R   0.110704 0.879249 0.110955 0.737181
V4    V     V_3+5 0.830220 0.985300 0.996000 1.433944
O20   O     O_3   0.105210 0.054870 0.996020 -0.381965
N1    N     N_3   0.181613 0.278005 0.882065 -0.623295
H19   H     H_    0.173850 0.221311 0.921423 0.242793
H20   H     H_    0.266865 0.326741 0.913334 0.236237
C41   C     C_2   0.213295 0.416088 0.763001 0.829234
O21   O     O_2   0.041924 0.433389 0.755863 -0.561868
O22   O     O_R   0.339357 0.479982 0.799189 -0.672874
H21   H     H_    0.269537 0.534493 0.823391 0.277472
C42   C     C_2   0.912060 0.097940 0.252198 0.775184
O23   O     O_2   0.081667 0.113319 0.268211 -0.559840
O24   O     O_R   0.846276 0.008096 0.243859 -0.674569
H22   H     H_    0.950058 0.962086 0.257305 0.279345
N2    N     N_3   0.164771 0.269678 0.131357 -0.612930
H23   H     H_    0.092834 0.322926 0.101294 0.229771
H24   H     H_    0.167915 0.215429 0.088292 0.249664
N3    N     N_3   0.969895 0.818471 0.601415 -0.675338
H25   H     H_    0.927732 0.885625 0.614022 0.219571
H26   H     H_    0.078698 0.821661 0.556036 0.215161
N4    N     N_3   0.872803 0.595048 0.241595 -0.681638
H27   H     H_    0.780375 0.593028 0.293330 0.234919
H28   H     H_    0.957916 0.536264 0.241527 0.219878

loop_
_geom_bond_atom_site_label_1
_geom_bond_atom_site_label_2
_ccdc_geom_bond_type
C29   C30   A    
C36   H17   S    
C6    C7    S    
C17   C18   A    
O15   V3    S    
N3    H25   S    
C42   O23   D    
C14   C40   S    
C24   C25   A    
O18   C39   A    
C35   C36   S    
C5    C12   S    
C18   C19   S    
C20   H10   S    
C19   H8    S    
O5    C3    A    
O14   V3    S    
C41   O22   S    
C21   C28   S    
C31   C32   A    
V2    O10   S    
C5    H2    S    
C6    H1    S    
C30   C31   A    
C13   C20   S    
O13   V3    S    
C16   C17   A    
C9    C12   S    
O24   H22   S    
O15   C39   A    
O8    V2    S    
N1    H19   S    
C29   C36   S    
C7    C39   S    
C37   O16   A    
C16   N4    S    
C9    C10   S    
O11   C38   A    
C33   C37   S    
O7    V1    S    
C35   H16   S    
C1    O6    A    
C36   H18   S    
C32   C33   A    
O9    C4    A    
C34   C35   S    
C6    C11   S    
C2    C30   S    
N3    H26   S    
C28   H14   S    
C26   C27   S    
C23   C24   A    
C11   H5    S    
C27   C28   S    
C10   C11   S    
C20   H9    S    
V3    O20   S    
O19   V4    S    
C41   O21   D    
O17   V4    S    
C1    C22   S    
C11   C12   S    
C23   H11   S    
V4    O20   S    
C33   C34   A    
C27   H13   S    
C32   C42   S    
C15   C16   A    
O2    C1    A    
O17   V3    S    
C19   C20   S    
C42   O24   S    
C24   H12   S    
O18   V4    S    
N4    H28   S    
C5    C6    S    
C4    C12   S    
C3    C17   S    
N2    H24   S    
O3    C4    A    
O1    V2    S    
C9    N3    S    
O11   V4    S    
O6    V2    S    
C8    H3    S    
C35   N2    S    
C21   C22   A    
C25   C38   S    
O16   V4    S    
O2    V1    S    
C27   N1    S    
C22   C23   A    
O4    C2    A    
N1    H20   S    
O1    C2    A    
C14   C15   A    
C10   H4    S    
O5    V1    S    
O8    C3    A    
C21   C26   A    
O12   V3    S    
C5    C8    S    
C13   C18   A    
C15   H6    S    
O9    V2    S    
O7    V2    S    
O4    V1    S    
C19   H7    S    
O3    V1    S    
V1    O10   S    
C31   H15   S    
C13   C14   A    
C29   C34   A    
C28   C41   S    
N4    H27   S    
N2    H23   S    
O19   C40   A    
O22   H21   S    
O12   C37   A    
C25   C26   A    
C7    C10   S    
O14   C38   A    
C8    C9    S    
O13   C40   A    
C7    C8    S    
