data_mof_unit_11456.cif
_audit_creation_date              2013-03-05T15:45:09-0500
_audit_creation_method            fapswitch 2.2
_symmetry_space_group_name_H-M    P1
_symmetry_Int_Tables_number       1
_space_group_crystal_system       triclinic
_cell_length_a                    10.972909
_cell_length_b                    11.177634
_cell_length_c                    9.724625
_cell_angle_alpha                 109.325658
_cell_angle_beta                  95.946752
_cell_angle_gamma                 92.203802
_cell_volume                      1116.10524922

loop_
_atom_site_label
_atom_site_type_symbol
_atom_site_description
_atom_site_fract_x
_atom_site_fract_y
_atom_site_fract_z
_atom_type_partial_charge
O1    O     O_R   0.511700 0.332330 0.577400 -0.536437
O2    O     O_R   0.474680 0.295500 0.332650 -0.567039
C1    C     C_R   0.491056 0.254914 0.443590 0.880376
O3    O     O_R   0.338160 0.518420 0.622400 -0.517159
O4    O     O_R   0.301140 0.481590 0.377650 -0.577259
C2    C     C_R   0.261586 0.489765 0.502470 0.806074
Cu1   Cu    Cu3+1 0.521920 0.521810 0.644910 1.076355
Cu2   Cu    Cu3+1 0.478080 0.478190 0.355090 1.011563
O5    O     O_R   0.525320 0.704500 0.667350 -0.536195
O6    O     O_R   0.488300 0.667670 0.422600 -0.610085
O7    O     O_R   0.698860 0.518410 0.622350 -0.573110
O8    O     O_R   0.661840 0.481580 0.377600 -0.577494
C3    C     C_R   0.514583 0.743427 0.556072 0.761858
C4    C     C_R   0.736229 0.492841 0.495130 0.772491
H1    H     H_    0.101569 0.577373 0.348089 0.170756
C5    C     C_R   0.118520 0.359777 0.689043 0.316203
C6    C     C_R   0.051245 0.301006 0.765835 -0.224890
H2    H     H_    0.099174 0.265715 0.846170 0.206286
C7    C     C_R   0.925649 0.299306 0.753720 0.337298
C8    C     C_R   0.865175 0.346856 0.652631 -0.220709
H3    H     H_    0.766586 0.331747 0.635814 0.208840
C9    C     C_R   0.930542 0.411563 0.575587 -0.000372
C10   C     C_R   0.061597 0.417681 0.591141 -0.024573
C11   C     C_R   0.125849 0.480056 0.507493 -0.086473
C12   C     C_R   0.056598 0.530930 0.413113 -0.152981
H4    H     H_    0.880867 0.574452 0.335051 0.162603
C13   C     C_R   0.929734 0.528192 0.403615 -0.138092
C14   C     C_R   0.866692 0.473152 0.487171 -0.035481
H5    H     H_    0.417294 0.874484 0.399402 0.153469
C15   C     C_2   0.484938 0.117624 0.417614 -0.422751
C16   C     C_2   0.495645 0.067773 0.526782 0.431451
C17   C     C_2   0.544035 0.875914 0.579865 0.215670
C18   C     C_2   0.484276 0.930162 0.491067 -0.363235
H6    H     H_    0.469485 0.054166 0.304204 0.159379
H7    H     H_    0.489201 0.378463 0.853612 0.249519
H8    H     H_    0.578772 0.586600 0.158389 0.146782
N1    N     N_2   0.445130 0.445430 0.137370 -0.268100
C19   C     C_2   0.518692 0.507279 0.083850 -0.005019
H9    H     H_    0.580985 0.645575 0.933060 0.209927
N2    N     N_2   0.554930 0.554500 0.862630 -0.288850
C20   C     C_2   0.523606 0.472485 0.922513 0.133057
H10   H     H_    0.392597 0.367265 0.064783 0.252500
N3    N     N_R   0.244283 0.376851 0.736286 0.105890
O9    O     O_R   0.278733 0.463944 0.862845 -0.403053
O10   O     O_R   0.307849 0.279274 0.690165 -0.379677
N4    N     N_R   0.861787 0.263715 0.857092 0.191292
O11   O     O_R   0.794879 0.345227 0.938781 -0.327250
O12   O     O_R   0.895219 0.168290 0.896716 -0.268458
N5    N     N_R   0.514716 0.144206 0.679532 0.176719
O13   O     O_R   0.449291 0.115773 0.770358 -0.313290
O14   O     O_R   0.618949 0.210207 0.731936 -0.314042
N6    N     N_R   0.648321 0.940320 0.684311 0.175679
O15   O     O_R   0.661448 0.930809 0.814719 -0.272639
O16   O     O_R   0.740706 0.987133 0.639476 -0.307325

loop_
_geom_bond_atom_site_label_1
_geom_bond_atom_site_label_2
_geom_bond_distance
_ccdc_geom_bond_type
O4    Cu2   1.976763 S    
C10   C11   1.449567 A    
C16   C18   1.457666 S    
C11   C12   1.406183 A    
N1    C19   1.297168 D    
C12   C13   1.384019 A    
C3    C17   1.439427 S    
C7    C8    1.388163 A    
Cu2   O8    2.003080 S    
C2    C11   1.496235 S    
C17   C18   1.342810 D    
N5    O14   1.295222 A    
H8    C19   1.084808 S    
C6    H2    1.085035 S    
O8    C4    1.300767 A    
C7    N4    1.431455 S    
Cu1   Cu2   2.684022 S    
C9    C14   1.417082 A    
N6    O15   1.301094 A    
Cu1   O7    1.976763 S    
N3    O10   1.294919 A    
C5    N3    1.393622 S    
H4    C13   1.083933 S    
O4    C2    1.307254 A    
C16   N5    1.436001 S    
O3    Cu1   2.003080 S    
C1    C15   1.468076 S    
Cu2   O6    1.993846 S    
N2    C20   1.291603 D    
C6    C7    1.369821 A    
C8    C9    1.424437 A    
O2    C1    1.300785 A    
C5    C10   1.425202 A    
O1    Cu1   1.993846 S    
N3    O9    1.299078 A    
C15   C16   1.349835 D    
H7    C20   1.070958 S    
O7    C4    1.288605 A    
N4    O12   1.301374 A    
H1    C12   1.083996 S    
Cu2   N1    2.016331 S    
C15   H6    1.087388 S    
H9    N2    1.030885 S    
H5    C18   1.088125 S    
C13   C14   1.389912 A    
C8    H3    1.075446 S    
C19   C20   1.493659 S    
O3    C2    1.302994 A    
N5    O13   1.302363 A    
N1    H10   1.030857 S    
Cu1   O5    1.979005 S    
O5    C3    1.289727 A    
C9    C10   1.426914 A    
C17   N6    1.439178 S    
C4    C14   1.462769 S    
N4    O11   1.301320 A    
Cu1   N2    2.016509 S    
O2    Cu2   1.979005 S    
N6    O16   1.301281 A    
C5    C6    1.391327 A    
O1    C1    1.293032 A    
O6    C3    1.288841 A    
