data_mof_unit_49720.cif
_audit_creation_date              2012-12-10T17:05:44-0500
_audit_creation_method            fapswitch 2.2
_symmetry_space_group_name_H-M    P1
_symmetry_Int_Tables_number       1
_space_group_crystal_system       triclinic
_cell_length_a                    15.876899
_cell_length_b                    10.729225
_cell_length_c                    9.978198
_cell_angle_alpha                 109.209526
_cell_angle_beta                  100.352903
_cell_angle_gamma                 91.406826
_cell_volume                      1572.5634062

loop_
_atom_site_label
_atom_site_type_symbol
_atom_type_description
_atom_site_fract_x
_atom_site_fract_y
_atom_site_fract_z
_atom_type_partial_charge
C1    C     C_R   0.492150 0.253214 0.442960 0.771214
C2    C     C_3   0.962084 0.442167 0.612361 -0.524701
C3    C     C_3   0.916955 0.506005 0.502401 0.209957
C4    C     C_3   0.960804 0.651146 0.555832 -0.109991
C5    C     C_3   0.057287 0.646325 0.541335 -0.053561
C6    C     C_1   0.825094 0.506078 0.506669 0.022234
C7    C     C_1   0.174783 0.498249 0.495037 0.011875
C8    C     C_1   0.250372 0.498235 0.495321 -0.195592
C9    C     C_2   0.486952 0.110380 0.417884 -0.042196
C10   C     C_2   0.431350 0.053979 0.474538 0.229642
C11   C     C_2   0.492376 0.888297 0.577306 0.264984
C12   C     C_R   0.340364 0.499161 0.498442 0.798418
C13   C     C_2   0.439534 0.917443 0.471896 -0.153401
C14   C     C_2   0.498401 0.523108 0.081344 0.347450
C15   C     C_2   0.496727 0.483216 0.920108 0.342728
C16   C     C_R   0.502825 0.746933 0.556458 0.704066
C17   C     C_R   0.659568 0.501265 0.501746 0.804901
C18   C     C_3   0.058468 0.429955 0.603234 0.003519
C19   C     C_3   0.029450 0.423245 0.342110 0.156328
C20   C     C_3   0.929749 0.423163 0.344705 0.307058
C21   C     C_1   0.749517 0.504168 0.505802 -0.190992
C22   C     C_3   0.082585 0.499804 0.497727 0.171322
Cu1   Cu    Cu3+1 0.514650 0.521810 0.644910 0.948291
Cu2   Cu    Cu3+1 0.485350 0.478190 0.355090 0.944605
H1    H     H_    0.929764 0.343412 0.594642 0.167589
H2    H     H_    0.955854 0.503567 0.723840 0.192239
H3    H     H_    0.403604 0.839681 0.377110 0.117608
H4    H     H_    0.067703 0.322490 0.558629 0.172328
H5    H     H_    0.043714 0.479835 0.271498 0.051479
H6    H     H_    0.065956 0.683523 0.452196 0.148607
H7    H     H_    0.957143 0.698220 0.672141 0.148648
N1    N     N_2   0.463320 0.445430 0.137380 -0.048953
N2    N     N_2   0.536720 0.554500 0.862620 -0.028037
O1    O     O_R   0.507820 0.332330 0.577400 -0.606483
O2    O     O_R   0.483070 0.295500 0.332660 -0.541017
O3    O     O_R   0.391820 0.518430 0.622420 -0.577514
O4    O     O_R   0.367070 0.481600 0.377680 -0.598315
O5    O     O_R   0.516930 0.704500 0.667340 -0.532229
O6    O     O_R   0.492180 0.667670 0.422600 -0.627954
O7    O     O_R   0.632930 0.518400 0.622320 -0.598781
O8    O     O_R   0.608180 0.481570 0.377580 -0.557963
N3    N     N_3   0.113147 0.483924 0.748234 -0.588137
H8    H     H_    0.091303 0.438302 0.815033 0.218613
H9    H     H_    0.175267 0.455537 0.742147 0.223989
N4    N     N_3   0.916772 0.733564 0.478319 -0.606363
H10   H     H_    0.856266 0.748921 0.505192 0.224260
H11   H     H_    0.950601 0.827437 0.517720 0.216551
N5    N     N_3   0.358594 0.116917 0.525820 -0.608736
H12   H     H_    0.367179 0.132439 0.636497 0.239376
H13   H     H_    0.351877 0.207942 0.510152 0.190381
O9    O     O_3   0.530003 0.989355 0.704126 -0.608962
C23   C     C_3   0.620248 0.987195 0.727902 0.052720
H14   H     H_    0.644974 0.972018 0.626197 0.127958
H15   H     H_    0.639392 0.907066 0.771612 0.134550
C24   C     C_3   0.661096 0.120217 0.838609 -0.285106
H16   H     H_    0.642864 0.200935 0.795106 0.214349
H17   H     H_    0.636542 0.138344 0.940374 0.240970
C25   C     C_3   0.758942 0.123340 0.872413 -0.966745
H18   H     H_    0.778869 0.046108 0.920362 0.251931
H19   H     H_    0.786333 0.221857 0.951206 0.260190
H20   H     H_    0.785012 0.106362 0.772303 0.255449
N6    N     N_3   0.547733 0.032739 0.343782 -0.602714
H21   H     H_    0.539600 0.040338 0.240536 0.238665
H22   H     H_    0.609502 0.074900 0.399699 0.210541
N7    N     N_3   0.451225 0.358942 0.829300 -0.605054
H23   H     H_    0.404015 0.370737 0.748869 0.236353
H24   H     H_    0.494900 0.292459 0.788792 0.253471
N8    N     N_3   0.533666 0.654102 0.171363 -0.551098
H25   H     H_    0.583048 0.651028 0.254348 0.245459
H26   H     H_    0.484444 0.710636 0.207150 0.235634
O10   O     O_3   0.569157 0.677689 0.950637 -0.509696
C26   C     C_3   0.654458 0.700222 0.935735 0.208022
H27   H     H_    0.679946 0.799567 0.014985 0.120697
H28   H     H_    0.656494 0.707899 0.828873 0.158465
C27   C     C_3   0.714029 0.598586 0.969428 -0.368525
H29   H     H_    0.713610 0.598903 0.080823 0.228126
H30   H     H_    0.691447 0.497259 0.892223 0.225086
C28   C     C_3   0.805923 0.631235 0.957404 -0.939240
H31   H     H_    0.807420 0.634052 0.847533 0.252030
H32   H     H_    0.846923 0.553923 0.976017 0.255943
H33   H     H_    0.832711 0.728661 0.039462 0.257074
O11   O     O_3   0.459110 0.314949 0.061845 -0.503998
C29   C     C_3   0.373871 0.261741 0.041067 0.177935
H34   H     H_    0.330477 0.301737 0.967355 0.116481
H35   H     H_    0.351055 0.285809 0.144859 0.160964
C30   C     C_3   0.370517 0.111090 0.972502 -0.334873
H36   H     H_    0.399113 0.085662 0.874055 0.257812
H37   H     H_    0.409060 0.070506 0.050557 0.229497
C31   C     C_3   0.278666 0.046545 0.930380 -0.956741
H38   H     H_    0.247935 0.072417 0.026429 0.251165
H39   H     H_    0.279152 0.937153 0.886206 0.285004
H40   H     H_    0.240803 0.079909 0.845578 0.261124
O12   O     O_3   0.053522 0.290976 0.292169 -0.627544
C32   C     C_3   0.094755 0.266231 0.172348 0.076630
H41   H     H_    0.129754 0.176633 0.165264 0.169793
H42   H     H_    0.144169 0.347887 0.187675 0.125540
C33   C     C_3   0.029151 0.238892 0.030361 -0.365390
H43   H     H_    0.976908 0.164553 0.022545 0.226787
H44   H     H_    0.000555 0.331702 0.028115 0.196521
C34   C     C_3   0.070815 0.185958 0.898724 -0.956444
H45   H     H_    0.127648 0.253069 0.908288 0.251204
H46   H     H_    0.023740 0.178892 0.799072 0.255532
H47   H     H_    0.090927 0.085474 0.888891 0.262458
N9    N     N_3   0.888962 0.286925 0.304438 -0.557678
H48   H     H_    0.888028 0.234356 0.195463 0.227764
H49   H     H_    0.923665 0.233834 0.363132 0.235015
N10   N     N_3   0.885432 0.482402 0.240158 -0.565874
H50   H     H_    0.920664 0.567869 0.245406 0.224964
H51   H     H_    0.881561 0.417197 0.134682 0.189424
N11   N     N_3   0.114566 0.734001 0.673468 -0.568127
H52   H     H_    0.098941 0.720034 0.765131 0.258857
H53   H     H_    0.104379 0.832183 0.682662 0.210313

loop_
_geom_bond_atom_site_label_1
_geom_bond_atom_site_label_2
_ccdc_geom_bond_type
C24   H16   S    
O12   C32   S    
C2    C18   S    
C19   C20   S    
C3    C6    S    
N9    H49   S    
C33   H43   S    
C7    C8    T    
N4    H10   S    
C18   N3    S    
C30   H37   S    
C5    N11   S    
C25   H19   S    
Cu1   O7    S    
C15   N7    S    
Cu2   O6    S    
C12   O4    A    
N11   H52   S    
N6    H22   S    
C5    C22   S    
N8    H25   S    
Cu1   N2    S    
Cu1   Cu2   S    
C31   H39   S    
C9    C10   D    
C19   O12   S    
C23   C24   S    
C20   N10   S    
C25   H20   S    
N5    H13   S    
C18   C22   S    
Cu2   O8    S    
N10   H51   S    
N3    H9    S    
C26   C27   S    
N9    H48   S    
C33   H44   S    
C23   H15   S    
C1    O1    A    
N11   H53   S    
C4    N4    S    
N4    H11   S    
Cu2   O2    S    
C9    N6    S    
C19   C22   S    
C18   H4    S    
C26   H28   S    
C30   H36   S    
C4    C5    S    
C32   C33   S    
N7    H24   S    
C25   H18   S    
C6    C21   T    
C30   C31   S    
C34   H47   S    
C17   C21   S    
O9    C23   S    
C17   O7    A    
C27   H29   S    
Cu2   N1    S    
N6    H21   S    
C11   C16   S    
C29   H34   S    
C8    C12   S    
Cu1   O1    S    
C34   H46   S    
Cu2   O4    S    
C1    C9    S    
C3    C20   S    
C2    H2    S    
C31   H40   S    
C32   H42   S    
C27   H30   S    
N5    H12   S    
C29   H35   S    
N7    H23   S    
C24   H17   S    
C10   N5    S    
C12   O3    A    
N3    H8    S    
N10   H50   S    
C3    C4    S    
C19   H5    S    
C33   C34   S    
C23   H14   S    
C1    O2    A    
C5    H6    S    
C28   H31   S    
C14   N1    D    
C26   H27   S    
C10   C13   S    
C20   N9    S    
Cu1   O3    S    
C7    C22   S    
N1    O11   S    
Cu1   O5    S    
C2    C3    S    
O10   C26   S    
C11   C13   D    
C28   H33   S    
C34   H45   S    
C2    H1    S    
C28   H32   S    
C32   H41   S    
C27   C28   S    
C17   O8    A    
C4    H7    S    
C11   O9    S    
N2    O10   S    
C16   O6    A    
C29   C30   S    
N8    H26   S    
O11   C29   S    
C24   C25   S    
C14   N8    S    
C14   C15   S    
C13   H3    S    
C31   H38   S    
C15   N2    D    
C16   O5    A    
