data_mof_unit_58949.cif
_audit_creation_date              2012-12-11T15:27:39-0500
_audit_creation_method            fapswitch 2.2
_symmetry_space_group_name_H-M    P1
_symmetry_Int_Tables_number       1
_space_group_crystal_system       triclinic
_cell_length_a                    23.244926
_cell_length_b                    7.300413
_cell_length_c                    15.103154
_cell_angle_alpha                 89.889867
_cell_angle_beta                  108.247122
_cell_angle_gamma                 90.110167
_cell_volume                      2434.08229471

loop_
_atom_site_label
_atom_site_type_symbol
_atom_type_description
_atom_site_fract_x
_atom_site_fract_y
_atom_site_fract_z
_atom_type_partial_charge
O1    O     O_R   0.711000 0.648610 0.341170 -0.537163
O2    O     O_R   0.289000 0.351390 0.658830 -0.537408
O3    O     O_R   0.789000 0.148610 0.158830 -0.532538
O4    O     O_R   0.211000 0.851390 0.841170 -0.537580
O5    O     O_R   0.829650 0.322030 0.336650 -0.535842
O6    O     O_R   0.170350 0.677970 0.663350 -0.535712
O7    O     O_R   0.670350 0.822030 0.163350 -0.538051
O8    O     O_R   0.329650 0.177970 0.836650 -0.536030
C1    C     C_R   0.854255 0.485839 0.356849 0.716139
C2    C     C_R   0.145744 0.514160 0.643154 0.715492
C3    C     C_R   0.645745 0.985760 0.143155 0.715762
C4    C     C_R   0.354255 0.014254 0.856848 0.715584
O9    O     O_R   0.713950 0.319280 0.352070 -0.536283
O10   O     O_R   0.286050 0.680720 0.647930 -0.536146
O11   O     O_R   0.786050 0.819280 0.147930 -0.541347
O12   O     O_R   0.213950 0.180720 0.852070 -0.536023
O13   O     O_R   0.672470 0.142870 0.174360 -0.531913
O14   O     O_R   0.327530 0.857130 0.825640 -0.533934
O15   O     O_R   0.827530 0.642870 0.325640 -0.533866
O16   O     O_R   0.172470 0.357130 0.674360 -0.534084
C5    C     C_R   0.701936 0.487210 0.376133 0.690169
C6    C     C_R   0.297983 0.512690 0.623767 0.689214
C7    C     C_R   0.798053 0.987729 0.123879 0.689572
C8    C     C_R   0.202039 0.012306 0.876236 0.689331
O17   O     O_3   0.736530 0.478650 0.191680 -0.378959
O18   O     O_3   0.263470 0.521350 0.808320 -0.378418
O19   O     O_3   0.763470 0.978650 0.308320 -0.378636
O20   O     O_3   0.236530 0.021350 0.691680 -0.378693
V1    V     V_3+5 0.752500 0.206170 0.260820 1.425810
V2    V     V_3+5 0.247500 0.793830 0.739180 1.423528
V3    V     V_3+5 0.747500 0.706170 0.239180 1.418183
V4    V     V_3+5 0.252500 0.293830 0.760820 1.423198
C9    C     C_R   0.826760 0.997075 0.050656 -0.099914
C10   C     C_R   0.173407 0.003536 0.949575 -0.098106
C11   C     C_R   0.673306 0.493550 0.449507 -0.100551
C12   C     C_R   0.326560 0.505165 0.550337 -0.099107
C13   C     C_R   0.822817 0.032099 0.889768 -0.170843
C14   C     C_R   0.177686 0.990143 0.111387 -0.174521
C15   C     C_R   0.677357 0.476948 0.611136 -0.170671
C16   C     C_R   0.322406 0.511079 0.388482 -0.176907
C17   C     C_R   0.792579 0.021404 0.956380 0.285600
C18   C     C_R   0.207840 0.998357 0.044589 0.285298
C19   C     C_R   0.707565 0.480073 0.544348 0.286286
C20   C     C_R   0.292255 0.514317 0.455352 0.285038
C21   C     C_R   0.889929 0.987625 0.077256 -0.255272
C22   C     C_R   0.110166 0.005440 0.922777 -0.255368
C23   C     C_R   0.610095 0.500599 0.422650 -0.255551
C24   C     C_R   0.389739 0.496246 0.577183 -0.255198
C25   C     C_R   0.921279 0.002754 0.011101 0.082294
C26   C     C_R   0.079005 0.002393 0.989468 0.082719
C27   C     C_R   0.578777 0.492690 0.489097 0.082325
C28   C     C_R   0.420986 0.496168 0.510574 0.083235
C29   C     C_R   0.886251 0.023404 0.916136 0.079020
C30   C     C_R   0.114175 0.991841 0.084823 0.079780
C31   C     C_R   0.613873 0.482172 0.584500 0.078922
C32   C     C_R   0.385865 0.503312 0.415096 0.078826
C33   C     C_R   0.985979 0.998132 0.036027 0.070675
C34   C     C_R   0.014340 0.008953 0.964657 0.070461
C35   C     C_R   0.514050 0.494641 0.464046 0.071061
C36   C     C_R   0.485687 0.490553 0.535560 0.070430
C37   C     C_R   0.977142 0.028551 0.871068 -0.181197
C38   C     C_R   0.023281 0.985459 0.129910 -0.181367
C39   C     C_R   0.522967 0.480846 0.629554 -0.181479
C40   C     C_R   0.476738 0.499124 0.369961 -0.182311
C41   C     C_R   0.914579 0.035854 0.847710 -0.180145
C42   C     C_R   0.085911 0.983231 0.153448 -0.181800
C43   C     C_R   0.585571 0.476410 0.653118 -0.179959
C44   C     C_R   0.414122 0.503076 0.346374 -0.184007
H1    H     H_    0.888045 0.051889 0.774991 0.122668
H2    H     H_    0.112557 0.974800 0.226486 0.123403
H3    H     H_    0.612169 0.468272 0.726185 0.122939
H4    H     H_    0.387486 0.506904 0.273219 0.126260
H5    H     H_    0.086899 0.008504 0.848919 0.112734
H6    H     H_    0.912973 0.968369 0.150511 0.112870
H7    H     H_    0.412891 0.492222 0.651045 0.112785
H8    H     H_    0.586985 0.510429 0.348916 0.113058
H9    H     H_    0.796541 0.046416 0.816845 0.124949
H10   H     H_    0.204068 0.981516 0.184530 0.125504
H11   H     H_    0.703671 0.470676 0.684366 0.125390
H12   H     H_    0.296066 0.514352 0.315195 0.129233
H13   H     H_    0.994756 0.041561 0.813445 0.122492
H14   H     H_    0.005767 0.979546 0.187862 0.122524
H15   H     H_    0.505449 0.475254 0.687501 0.122405
H16   H     H_    0.494242 0.498757 0.311946 0.122655
C45   C     C_1   0.416739 0.007130 0.918832 -0.188523
C46   C     C_1   0.583259 0.992940 0.081179 -0.188676
C47   C     C_1   0.083259 0.506887 0.581182 -0.188569
C48   C     C_1   0.916739 0.493109 0.418824 -0.188634
C49   C     C_1   0.469131 0.002520 0.970016 0.002112
C50   C     C_1   0.530867 0.997600 0.030000 0.002182
C51   C     C_1   0.030866 0.502355 0.529998 0.002594
C52   C     C_1   0.969131 0.497637 0.470009 0.002546
N1    N     N_2   0.272439 0.995986 0.073999 -0.523816
H17   H     H_    0.291628 0.950143 0.025156 0.240855
C53   C     C_3   0.301098 0.160535 0.120949 -0.545028
H18   H     H_    0.351070 0.143360 0.143968 0.198000
H19   H     H_    0.287121 0.187682 0.183603 0.203743
H20   H     H_    0.288931 0.279608 0.072725 0.195976
N2    N     N_2   0.728034 0.029832 0.927139 -0.520393
H21   H     H_    0.707754 0.971669 0.972121 0.239714
C54   C     C_3   0.702740 0.206624 0.892432 -0.541856
H22   H     H_    0.652514 0.197877 0.868557 0.195443
H23   H     H_    0.717353 0.249860 0.832241 0.195016
H24   H     H_    0.717159 0.310887 0.948636 0.199399
N3    N     N_2   0.227690 0.521551 0.425925 -0.521623
H25   H     H_    0.207639 0.473009 0.473331 0.239559
C55   C     C_3   0.201882 0.692981 0.383643 -0.542090
H26   H     H_    0.151678 0.683215 0.360469 0.195498
H27   H     H_    0.216209 0.724079 0.321647 0.200134
H28   H     H_    0.216149 0.806230 0.435002 0.197464
N4    N     N_2   0.772150 0.475006 0.573758 -0.519616
H29   H     H_    0.792050 0.527835 0.527051 0.239690
C56   C     C_3   0.798559 0.302694 0.613853 -0.542364
H30   H     H_    0.848724 0.314143 0.637121 0.194936
H31   H     H_    0.784669 0.191755 0.561092 0.198786
H32   H     H_    0.784350 0.267047 0.675435 0.194619

loop_
_geom_bond_atom_site_label_1
_geom_bond_atom_site_label_2
_ccdc_geom_bond_type
O17   V3    S    
O1    C5    A    
N1    H17   S    
C47   C51   T    
O19   V1    S    
C18   N1    S    
C9    C21   A    
O12   C8    A    
O3    C7    A    
N4    H29   S    
C10   C18   A    
O15   V3    S    
C53   H20   S    
C25   C33   A    
C33   C38   A    
C20   N3    S    
O7    C3    A    
N3    C55   S    
C35   C40   A    
C54   H22   S    
C4    C45   S    
C36   C39   A    
C40   C44   A    
O9    V1    S    
C23   H8    S    
C14   C18   A    
C1    C48   S    
O4    C8    A    
C25   C29   A    
C3    C46   S    
O1    V3    S    
O13   V1    S    
O2    V4    S    
O3    V1    S    
C40   H16   S    
C28   C36   A    
C1    O15   A    
C15   C31   A    
C48   C52   T    
C2    O16   A    
C7    C9    S    
O2    C6    A    
C55   H26   S    
C17   N2    S    
C10   C22   A    
C11   C19   A    
C16   C20   A    
C43   H3    S    
C44   H4    S    
C56   H32   S    
C13   C29   A    
C34   C37   A    
O11   C7    A    
C38   H14   S    
C11   C23   A    
C35   C36   A    
N1    C53   S    
C55   H27   S    
C24   H7    S    
C19   N4    S    
O10   V2    S    
O5    V1    S    
C39   C43   A    
C2    C47   S    
O7    V3    S    
C38   C42   A    
O8    V4    S    
C46   C50   T    
C51   C52   S    
C45   C49   T    
O18   V4    S    
C23   C27   A    
C14   H10   S    
C16   C32   A    
C32   C44   A    
C13   H9    S    
C8    C10   S    
C39   H15   S    
C21   H6    S    
C26   C34   A    
O5    C1    A    
C31   C43   A    
N2    H21   S    
C14   C30   A    
C21   C25   A    
O8    C4    A    
C16   H12   S    
O9    C5    A    
N4    C56   S    
C26   C30   A    
O14   V2    S    
N2    C54   S    
C54   H24   S    
C55   H28   S    
C12   C20   A    
C27   C35   A    
C29   C41   A    
C56   H30   S    
O16   V4    S    
C3    O13   A    
O6    V2    S    
O6    C2    A    
C15   C19   A    
C53   H19   S    
O11   V3    S    
C30   C42   A    
O12   V4    S    
C6    C12   S    
N3    H25   S    
C22   C26   A    
C9    C17   A    
O10   C6    A    
O20   V2    S    
C5    C11   S    
C37   H13   S    
C33   C34   A    
C42   H2    S    
C41   H1    S    
C12   C24   A    
C27   C31   A    
C13   C17   A    
C37   C41   A    
C24   C28   A    
C54   H23   S    
C4    O14   A    
C53   H18   S    
C49   C50   S    
C22   H5    S    
O4    V2    S    
C28   C32   A    
C15   H11   S    
C56   H31   S    
