data_mof_unit_21723.cif
_audit_creation_date              2012-12-11T17:39:42-0500
_audit_creation_method            fapswitch 2.2
_symmetry_space_group_name_H-M    P1
_symmetry_Int_Tables_number       1
_space_group_crystal_system       triclinic
_cell_length_a                    14.787751
_cell_length_b                    15.078506
_cell_length_c                    14.951136
_cell_angle_alpha                 109.55526
_cell_angle_beta                  108.258631
_cell_angle_gamma                 110.528997
_cell_volume                      2567.81000418

loop_
_atom_site_label
_atom_site_type_symbol
_atom_type_description
_atom_site_fract_x
_atom_site_fract_y
_atom_site_fract_z
_atom_type_partial_charge
C1    C     C_R   0.909930 0.903059 0.710170 -0.134630
C2    C     C_R   0.908630 0.684132 0.452771 -0.128583
C3    C     C_R   0.699445 0.789685 0.200070 -0.123693
C4    C     C_R   0.094375 0.292878 0.487432 0.659623
C5    C     C_R   0.305590 0.008039 0.596505 -0.126481
C6    C     C_R   0.637648 0.693835 0.195995 0.129058
C7    C     C_R   0.373891 0.075722 0.572583 0.058766
C8    C     C_R   0.003235 0.675191 0.480627 0.072057
C9    C     C_R   0.003660 0.947994 0.177309 0.040057
C10   C     C_R   0.554690 0.777455 0.629399 -0.117709
C11   C     C_R   0.548092 0.860724 0.611885 -0.172517
C12   C     C_R   0.005857 0.295150 0.423678 -0.070182
C13   C     C_R   0.628481 0.970637 0.689760 0.105945
C14   C     C_R   0.712575 0.996817 0.787232 -0.146982
C15   C     C_R   0.718989 0.913102 0.804173 -0.153802
C16   C     C_R   0.244539 0.221098 0.811658 -0.119984
C17   C     C_R   0.640545 0.803536 0.724963 -0.136471
C18   C     C_R   0.541526 0.077883 0.677936 -0.219880
C19   C     C_R   0.494732 0.117484 0.615684 0.046810
C20   C     C_R   0.559851 0.176583 0.580880 0.060644
C21   C     C_R   0.658457 0.177939 0.594951 -0.223180
C22   C     C_R   0.676312 0.099943 0.615132 0.051229
C23   C     C_R   0.269797 0.322733 0.822032 0.092574
C24   C     C_R   0.623093 0.056825 0.667495 0.022095
C25   C     C_R   0.461044 0.110818 0.387524 -0.382317
C26   C     C_R   0.436916 0.128383 0.298210 0.617757
C27   C     C_R   0.462836 0.234752 0.319147 -0.123359
C28   C     C_R   0.752672 0.066193 0.479777 -0.121158
C29   C     C_R   0.511741 0.320585 0.425038 -0.133101
C30   C     C_R   0.539010 0.302407 0.512780 -0.147322
C31   C     C_R   0.513408 0.197115 0.493484 0.066609
C32   C     C_R   0.748525 0.102821 0.077608 -0.269465
C33   C     C_R   0.837710 0.206776 0.159799 0.735232
C34   C     C_R   0.728272 0.050691 0.559362 0.056372
C35   C     C_R   0.824172 0.275932 0.238443 -0.323993
C36   C     C_R   0.720008 0.239383 0.233064 0.648867
C37   C     C_R   0.631824 0.134733 0.151245 -0.301548
C38   C     C_R   0.645755 0.066832 0.073305 -0.279254
C39   C     C_R   0.920683 0.478222 0.356207 -0.179634
C40   C     C_R   0.246049 0.312573 0.720537 -0.116650
C41   C     C_R   0.009506 0.576233 0.450245 0.041885
C42   C     C_R   0.105750 0.578728 0.512152 -0.034195
C43   C     C_R   0.111009 0.484984 0.477282 -0.225878
C44   C     C_R   0.014480 0.384370 0.401322 0.164181
C45   C     C_R   0.699194 0.697334 0.289441 -0.149692
C46   C     C_R   0.921283 0.380601 0.332221 0.188387
C47   C     C_R   0.300209 0.723700 0.656960 -0.163990
C48   C     C_R   0.382848 0.778390 0.765354 -0.117671
C49   C     C_R   0.354912 0.768947 0.844116 -0.125474
C50   C     C_R   0.244160 0.708501 0.815498 -0.130362
C51   C     C_R   0.161035 0.656708 0.708000 -0.132884
C52   C     C_R   0.755272 0.974355 0.569875 -0.128422
C53   C     C_R   0.188510 0.662098 0.627401 0.119615
C54   C     C_2   0.365043 0.520838 0.934138 -0.123410
C55   C     C_2   0.318967 0.421926 0.924606 -0.185763
C56   C     C_R   0.308066 0.101920 0.509834 -0.141857
C57   C     C_2   0.460811 0.617094 0.035881 -0.130223
C58   C     C_2   0.524552 0.607385 0.114311 -0.172110
C59   C     C_R   0.358773 0.020189 0.944191 -0.227662
C60   C     C_R   0.267207 0.964548 0.953396 -0.204155
C61   C     C_R   0.223150 0.021325 0.002494 0.182006
C62   C     C_R   0.276949 0.135530 0.050095 -0.196128
C63   C     C_R   0.369189 0.191241 0.041469 -0.342111
C64   C     C_R   0.911994 0.207357 0.401990 -0.252215
C65   C     C_R   0.409594 0.133326 0.986192 0.646179
C66   C     C_R   0.108828 0.958226 0.079345 -0.228366
C67   C     C_R   0.094159 0.779410 0.542518 -0.124779
C68   C     C_R   0.007662 0.905449 0.075332 0.060018
C69   C     C_R   0.911515 0.830801 0.972699 0.017642
C70   C     C_R   0.914036 0.834371 0.881226 -0.247940
C71   C     C_R   0.011469 0.907375 0.890574 0.064023
C72   C     C_R   0.112502 0.959643 0.988586 0.018495
C73   C     C_R   0.817435 0.647430 0.953056 -0.122555
C74   C     C_R   0.721645 0.554083 0.921904 -0.136687
C75   C     C_R   0.621557 0.552845 0.894809 -0.073031
C76   C     C_R   0.091780 0.996776 0.796029 -0.147960
C77   C     C_R   0.617124 0.644828 0.898104 -0.088014
C78   C     C_R   0.910820 0.936515 0.188040 -0.100154
C79   C     C_R   0.712360 0.737567 0.927432 -0.223503
C80   C     C_R   0.813373 0.739696 0.955334 0.126874
C81   C     C_R   0.003999 0.935695 0.803624 0.072291
C82   C     C_3   0.367957 0.942551 0.174051 0.186234
C83   C     C_3   0.470741 0.930379 0.203309 -0.333698
C84   C     C_3   0.450669 0.832169 0.219801 -0.988907
C85   C     C_3   0.580687 0.279955 0.045276 0.183560
C86   C     C_3   0.590406 0.373009 0.022122 -0.301390
C87   C     C_3   0.696726 0.479569 0.112994 -1.022546
C88   C     C_R   0.094965 0.024814 0.280501 -0.067966
F1    F     F_    0.197133 0.338931 0.498631 -0.732852
F2    F     F_    0.937551 0.239375 0.163706 -0.694937
F3    F     F_    0.705333 0.302477 0.309964 -0.722168
H1    H     H_    0.826063 0.841746 0.680487 0.107033
H2    H     H_    0.493767 0.692767 0.568622 0.127416
H3    H     H_    0.481978 0.839849 0.536860 0.119716
H4    H     H_    0.774312 0.081315 0.848202 0.139394
H5    H     H_    0.785883 0.933648 0.878091 0.134748
H6    H     H_    0.501813 0.042909 0.716934 0.142272
H7    H     H_    0.704873 0.219650 0.563936 0.143529
H8    H     H_    0.447373 0.032439 0.378685 0.148820
H9    H     H_    0.448203 0.252544 0.253729 0.141935
H10   H     H_    0.532195 0.402100 0.439272 0.134866
H11   H     H_    0.582523 0.370144 0.595088 0.128688
H12   H     H_    0.335818 0.166816 0.491963 0.135928
H13   H     H_    0.577125 0.986232 0.009816 0.164162
H14   H     H_    0.250780 0.201142 0.875055 0.117465
H15   H     H_    0.759452 0.049553 0.018048 0.156589
H16   H     H_    0.552485 0.106509 0.148090 0.208144
H17   H     H_    0.849115 0.476558 0.304700 0.144488
H18   H     H_    0.184887 0.490169 0.528677 0.198056
H19   H     H_    0.323181 0.725563 0.595321 0.120926
H20   H     H_    0.468763 0.825316 0.787801 0.134719
H21   H     H_    0.418884 0.808232 0.927321 0.094710
H22   H     H_    0.222818 0.700647 0.876500 0.107441
H23   H     H_    0.180465 0.804670 0.574607 0.108179
H24   H     H_    0.743297 0.120684 0.450707 0.111029
H25   H     H_    0.075968 0.606113 0.686138 0.118104
H26   H     H_    0.346347 0.529713 0.862555 0.125129
H27   H     H_    0.331416 0.412599 0.995569 0.130849
H28   H     H_    0.489037 0.694368 0.036845 0.124312
H29   H     H_    0.498917 0.531156 0.114968 0.130521
H30   H     H_    0.387056 0.974785 0.899116 0.149699
H31   H     H_    0.224309 0.876549 0.914093 0.131499
H32   H     H_    0.243054 0.180270 0.087057 0.149371
H33   H     H_    0.404207 0.278163 0.071872 0.125306
H34   H     H_    0.825920 0.888175 0.125814 0.109146
H35   H     H_    0.253555 0.375079 0.698565 0.132282
H36   H     H_    0.185806 0.006536 0.154929 0.138809
H37   H     H_    0.839114 0.781556 0.803377 0.128164
H38   H     H_    0.893971 0.646560 0.971963 0.110350
H39   H     H_    0.725052 0.482508 0.918202 0.128712
H40   H     H_    0.547507 0.480686 0.871137 0.119203
H41   H     H_    0.539728 0.644019 0.876849 0.110915
H42   H     H_    0.707580 0.808122 0.929917 0.112947
H43   H     H_    0.754451 0.945186 0.625637 0.136749
H44   H     H_    0.826948 0.177104 0.348360 0.150028
H45   H     H_    0.181309 0.054680 0.304778 0.089830
H46   H     H_    0.175996 0.020850 0.835766 0.126653
H47   H     H_    0.669476 0.642262 0.318239 0.099028
H48   H     H_    0.309993 0.883308 0.086334 0.118533
H49   H     H_    0.319417 0.917201 0.213657 0.089886
H50   H     H_    0.491833 0.919843 0.136804 0.189815
H51   H     H_    0.543381 0.004835 0.278603 0.214968
H52   H     H_    0.432160 0.842257 0.287869 0.265354
H53   H     H_    0.526059 0.825569 0.240380 0.278053
H54   H     H_    0.380421 0.755870 0.144387 0.269778
H55   H     H_    0.654163 0.272143 0.052044 0.138362
H56   H     H_    0.823176 0.618865 0.405889 0.109154
H57   H     H_    0.583822 0.301066 0.125571 0.117867
H58   H     H_    0.590768 0.352899 0.943690 0.211322
H59   H     H_    0.518050 0.382975 0.014969 0.192310
H60   H     H_    0.699077 0.498822 0.192402 0.264279
H61   H     H_    0.700632 0.547548 0.097930 0.291201
H62   H     H_    0.770075 0.472839 0.116615 0.269074
H63   H     H_    0.671033 0.819977 0.147626 0.092449
H64   H     H_    0.330353 0.983598 0.655685 0.102292
H65   H     H_    0.646109 0.738346 0.736594 0.126003
N1    N     N_R   0.941940 0.944580 0.650780 -0.043758
N2    N     N_R   0.204460 0.150250 0.707090 -0.043696
N3    N     N_R   0.794270 0.003240 0.446420 -0.040007
N4    N     N_R   0.204920 0.207570 0.650770 -0.040582
N5    N     N_R   0.793810 0.945920 0.502740 -0.045532
N6    N     N_R   0.943620 0.152590 0.446420 -0.073927
N7    N     N_R   0.055110 0.000900 0.707100 -0.044068
N8    N     N_R   0.795080 0.792430 0.349230 -0.040408
N9    N     N_R   0.206190 0.054080 0.497260 -0.047011
N10   N     N_R   0.056380 0.847410 0.553580 -0.043759
N11   N     N_R   0.944890 0.999100 0.292900 -0.045589
N12   N     N_R   0.058060 0.055420 0.349220 -0.035159
N13   N     N_R   0.943200 0.791100 0.497260 -0.042410
N14   N     N_R   0.795540 0.849750 0.292910 -0.044893
N15   N     N_R   0.205730 0.996760 0.553580 -0.045960
N16   N     N_R   0.056800 0.208900 0.502740 -0.101723
Ni1   Ni    Ni4+2 0.869690 0.869690 0.500000 0.209095
Ni2   Ni    Ni4+2 0.130310 0.130310 0.500000 0.276278
Ni3   Ni    Ni4+2 0.129250 0.998840 0.629170 0.219295
Ni4   Ni    Ni4+2 0.870750 0.001160 0.370830 0.211029
O1    O     O_3   0.395421 0.049109 0.191201 -0.685565
O2    O     O_3   0.486111 0.180247 0.956956 -0.681742

loop_
_geom_bond_atom_site_label_1
_geom_bond_atom_site_label_2
_ccdc_geom_bond_type
C25   C31   A    
C66   C68   A    
C63   C65   A    
N9    N15   A    
C6    C45   A    
C27   C29   A    
C52   H43   S    
C41   C42   A    
C6    C58   S    
N8    N14   A    
C35   C36   A    
C85   H57   S    
C3    C6    A    
N7    Ni3   S    
C54   C57   S    
C63   H33   S    
C39   C41   A    
N14   Ni4   S    
C76   H46   S    
N12   Ni2   S    
C78   N11   A    
C37   C38   A    
C18   C24   A    
C36   C37   A    
C67   H23   S    
C37   H16   S    
C86   H59   S    
C42   C53   S    
C30   C31   A    
C12   C64   A    
N6    Ni4   S    
C65   O2    S    
C84   H53   S    
C10   C17   A    
C1    C81   A    
C23   C40   A    
C11   C13   A    
C66   H36   S    
C18   C19   A    
C73   C74   A    
C82   H49   S    
C25   H8    S    
C66   C72   A    
C83   C84   S    
C44   C46   A    
C68   C69   A    
C88   N12   A    
C56   N9    A    
C38   H13   S    
C87   H62   S    
C70   C71   A    
C18   H6    S    
C32   C38   A    
C4    C12   A    
C29   C30   A    
N1    N7    A    
C52   N5    A    
C47   C53   A    
C16   C23   A    
C64   H44   S    
C28   C34   A    
C59   C60   A    
C32   H15   S    
C13   C14   A    
N2    N4    A    
C61   C62   A    
C7    C56   A    
C59   H30   S    
C79   H42   S    
C62   H32   S    
C25   C26   A    
N16   Ni2   S    
C77   C79   A    
C5    N15   A    
C39   H17   S    
C22   C34   S    
C73   H38   S    
C27   H9    S    
C74   C75   A    
C16   N2    A    
C8    C41   S    
C88   H45   S    
C64   N6    A    
C86   H58   S    
N11   N12   A    
C5    C7    A    
C40   N4    A    
C86   C87   S    
C85   O2    S    
C10   H2    S    
N9    Ni2   S    
C85   C86   S    
N15   Ni3   S    
C28   N3    A    
C13   C24   S    
C60   C61   A    
C51   C53   A    
C77   H41   S    
C43   C44   A    
N10   Ni3   S    
C82   H48   S    
C28   H24   S    
N5    Ni1   S    
C47   C48   A    
C40   H35   S    
C30   H11   S    
C62   C63   A    
C58   H29   S    
C50   C51   A    
C26   C27   A    
C29   H10   S    
N8    Ni1   S    
C85   H55   S    
C60   H31   S    
C75   C77   A    
C16   H14   S    
N10   N13   A    
C39   C46   A    
C36   F3    S    
C61   C72   S    
C48   C49   A    
C82   C83   S    
C84   H54   S    
C7    C19   S    
C87   H61   S    
C49   H21   S    
C17   H65   S    
C22   C24   A    
C42   C43   A    
C14   H4    S    
C15   H5    S    
C11   H3    S    
C83   H50   S    
C4    F1    S    
C26   O1    S    
C70   H37   S    
C15   C17   A    
C54   C55   D    
C4    N16   A    
N4    Ni2   S    
C67   N10   A    
C45   N8    A    
C2    C8    A    
C56   H12   S    
C69   C80   S    
C76   C81   A    
C83   H51   S    
C3    N14   A    
C23   C55   S    
C1    H1    S    
C47   H19   S    
C34   C52   A    
C51   H25   S    
C84   H52   S    
C57   H28   S    
N3    Ni4   S    
C50   H22   S    
C32   C33   A    
C19   C20   A    
C74   H39   S    
N3    N5    A    
C2    H56   S    
C9    C68   S    
C71   C72   A    
C9    C88   A    
C5    H64   S    
C33   F2    S    
C59   C65   A    
C21   H7    S    
C35   C46   S    
C57   C58   D    
C82   O1    S    
C1    N1    A    
C45   H47   S    
C33   C35   A    
C73   C80   A    
C9    C78   A    
C3    H63   S    
C69   C70   A    
C10   C11   A    
C2    N13   A    
C79   C80   A    
N2    Ni3   S    
C48   H20   S    
N6    N16   A    
C20   C21   A    
C75   H40   S    
C8    C67   A    
C12   C44   S    
C49   C50   A    
C54   H26   S    
N13   Ni1   S    
C14   C15   A    
C76   N7    A    
C87   H60   S    
C43   H18   S    
C21   C22   A    
C78   H34   S    
C55   H27   S    
N1    Ni1   S    
N11   Ni4   S    
C71   C81   S    
C20   C31   S    
