data_mof_unit_38287.cif
_audit_creation_date              2012-10-26T18:54:58-0400
_audit_creation_method            fapswitch 2.2
_symmetry_space_group_name_H-M    P1
_symmetry_Int_Tables_number       1
_space_group_crystal_system       triclinic
_cell_length_a                    10.833687
_cell_length_b                    9.576324
_cell_length_c                    10.847052
_cell_angle_alpha                 89.526926
_cell_angle_beta                  92.050976
_cell_angle_gamma                 89.830427
_cell_volume                      1124.58276554

loop_
_atom_site_label
_atom_site_type_symbol
_atom_type_description
_atom_site_fract_x
_atom_site_fract_y
_atom_site_fract_z
_atom_type_partial_charge
C1    C     C_R   0.262259 0.499963 0.500650 0.559641
C2    C     C_R   0.521289 0.623904 0.935029 0.049014
C3    C     C_R   0.514587 0.499703 0.129129 0.008292
C4    C     C_R   0.518651 0.498403 0.870857 0.015454
C5    C     C_R   0.530401 0.373158 0.066214 -0.151737
C6    C     C_R   0.532192 0.372460 0.937541 -0.153311
C7    C     C_3   0.436873 0.746586 0.920603 -0.257978
C8    C     C_3   0.430494 0.745234 0.059546 -0.259134
C9    C     C_R   0.064012 0.373028 0.492820 -0.129703
C10   C     C_R   0.936211 0.372905 0.492574 -0.130806
C11   C     C_R   0.871713 0.499438 0.499784 0.022632
C12   C     C_R   0.737766 0.499763 0.499774 0.559077
C13   C     C_R   0.128347 0.499593 0.501464 0.022582
C14   C     C_R   0.936160 0.625812 0.507672 -0.112700
C15   C     C_R   0.063779 0.625710 0.510334 -0.115284
C16   C     C_R   0.418109 0.076863 0.427234 0.025591
C17   C     C_R   0.581140 0.074619 0.573924 0.021879
C18   C     C_R   0.416543 0.929441 0.427513 0.175117
C19   C     C_R   0.581552 0.926884 0.574974 0.175159
C20   C     C_R   0.501944 0.500286 0.262213 0.557095
C21   C     C_R   0.504067 0.499400 0.737566 0.557131
C22   C     C_R   0.518173 0.624609 0.062017 0.027373
Cu1   Cu    Cu3+1 0.500000 0.640660 0.500000 1.019874
Cu2   Cu    Cu3+1 0.500000 0.359340 0.500000 0.949962
H1    H     H_    0.535314 0.274303 0.115406 0.145986
H2    H     H_    0.337583 0.714344 0.089684 0.176547
H3    H     H_    0.347528 0.720790 0.872494 0.147797
H4    H     H_    0.471266 0.839784 0.103423 0.168261
H5    H     H_    0.537618 0.273270 0.890734 0.143031
H6    H     H_    0.112099 0.274194 0.486067 0.142432
H7    H     H_    0.888225 0.274008 0.486128 0.141921
H8    H     H_    0.888447 0.724904 0.512156 0.165967
H9    H     H_    0.111447 0.724408 0.519370 0.164199
H10   H     H_    0.352180 0.134998 0.369593 0.140849
H11   H     H_    0.645509 0.130982 0.633485 0.137474
H12   H     H_    0.484213 0.840303 0.884389 0.170007
I1    I     I_    0.271587 0.846222 0.315777 -0.437576
I2    I     I_    0.710846 0.836523 0.703840 -0.407465
N1    N     N_R   0.500000 0.852070 0.500000 -0.208951
N2    N     N_R   0.500000 0.147940 0.500000 -0.260748
O1    O     O_R   0.319640 0.618740 0.499990 -0.479632
O2    O     O_R   0.680360 0.618740 0.500010 -0.480822
O3    O     O_R   0.319620 0.381170 0.499990 -0.513574
O4    O     O_R   0.680380 0.381170 0.500010 -0.514867
O5    O     O_R   0.499990 0.618810 0.319660 -0.473681
O6    O     O_R   0.500010 0.618810 0.680340 -0.476454
O7    O     O_R   0.499960 0.381240 0.319650 -0.513111
O8    O     O_R   0.500040 0.381240 0.680350 -0.512809

loop_
_geom_bond_atom_site_label_1
_geom_bond_atom_site_label_2
_ccdc_geom_bond_type
C2    C22   A    
C8    C22   S    
C18   N1    A    
Cu1   O5    S    
C19   I2    S    
C8    H2    S    
C7    H12   S    
C2    C4    A    
C20   O5    A    
Cu1   O1    S    
C11   C12   S    
C21   O8    A    
C16   H10   S    
C7    C8    S    
C12   O4    A    
Cu1   O6    S    
C4    C21   S    
Cu1   O2    S    
C19   N1    A    
C9    H6    S    
C16   N2    A    
Cu1   N1    S    
C4    C6    A    
C17   C19   A    
C18   I1    S    
C15   H9    S    
C13   C15   A    
C5    C6    A    
Cu2   O4    S    
C11   C14   A    
C5    H1    S    
C20   O7    A    
C1    C13   S    
C10   C11   A    
Cu1   Cu2   S    
Cu2   O8    S    
C3    C20   S    
C6    H5    S    
C7    H3    S    
C8    H4    S    
C16   C18   A    
C21   O6    A    
C9    C10   A    
C1    O1    A    
Cu2   O3    S    
C9    C13   A    
C14   C15   A    
C3    C22   A    
C12   O2    A    
C17   H11   S    
Cu2   N2    S    
Cu2   O7    S    
C10   H7    S    
C1    O3    A    
C2    C7    S    
C14   H8    S    
C3    C5    A    
C17   N2    A    
