data_mof_unit_55672.cif
_audit_creation_date              2012-10-26T19:43:45-0400
_audit_creation_method            fapswitch 2.2
_symmetry_space_group_name_H-M    P1
_symmetry_Int_Tables_number       1
_space_group_crystal_system       triclinic
_cell_length_a                    12.385397
_cell_length_b                    13.415699
_cell_length_c                    13.856967
_cell_angle_alpha                 106.111709
_cell_angle_beta                  73.646585
_cell_angle_gamma                 116.735132
_cell_volume                      1942.31367381

loop_
_atom_site_label
_atom_site_type_symbol
_atom_type_description
_atom_site_fract_x
_atom_site_fract_y
_atom_site_fract_z
_atom_type_partial_charge
C1    C     C_R   0.144497 0.714064 0.511768 0.524867
C2    C     C_R   0.562288 0.025866 0.481209 0.024953
C3    C     C_R   0.607234 0.945922 0.481741 -0.009920
C4    C     C_R   0.983354 0.503234 0.686283 0.533763
C5    C     C_R   0.526114 0.844325 0.513547 -0.141183
C6    C     C_R   0.401974 0.820888 0.540378 -0.102565
C7    C     C_R   0.647481 0.137505 0.476646 -0.172317
C8    C     C_R   0.816667 0.079319 0.439005 0.265060
C9    C     C_R   0.225736 0.836526 0.507380 -0.010311
C10   C     C_R   0.638287 0.673160 0.661539 0.223150
C11   C     C_R   0.254987 0.359343 0.357425 0.001841
C12   C     C_1   0.972282 0.502816 0.791430 -0.033580
C13   C     C_R   0.351689 0.325017 0.325288 -0.120801
C14   C     C_R   0.448389 0.373380 0.378910 0.348613
C15   C     C_R   0.449193 0.458460 0.467104 0.016765
C16   C     C_R   0.856536 0.287068 0.480671 0.545351
C17   C     C_R   0.344074 0.486595 0.498887 0.136062
C18   C     C_R   0.548719 0.518859 0.524349 -0.053033
C19   C     C_R   0.539555 0.604656 0.609657 -0.017406
C20   C     C_R   0.432485 0.623150 0.642102 -0.175709
C21   C     C_R   0.338095 0.565696 0.587762 -0.116825
C22   C     C_R   0.658534 0.501135 0.500682 -0.007760
C23   C     C_R   0.733067 0.971009 0.455598 -0.125658
C24   C     C_R   0.740211 0.645767 0.638492 0.428171
C25   C     C_R   0.016233 0.495957 0.313608 0.525287
C26   C     C_1   0.027419 0.495425 0.208240 -0.022851
C27   C     C_2   0.045416 0.495820 0.014411 -0.124469
C28   C     C_2   0.955326 0.501998 0.984987 -0.125302
C29   C     C_1   0.963906 0.502300 0.879756 -0.061667
C30   C     C_1   0.036472 0.495464 0.119684 -0.055709
C31   C     C_3   0.799323 0.691112 0.793341 0.020691
C32   C     C_3   0.909332 0.755425 0.847965 -0.257990
C33   C     C_3   0.873148 0.737366 0.958571 -0.494040
C34   C     C_R   0.774083 0.166435 0.463757 -0.010033
C35   C     C_3   0.697318 0.865644 0.688915 0.016689
C36   C     C_3   0.786668 0.959820 0.755180 -0.253146
C37   C     C_3   0.851637 0.068766 0.710370 -0.460220
C38   C     C_3   0.970916 0.116449 0.298125 0.006900
C39   C     C_3   0.893797 0.017840 0.224039 -0.291546
C40   C     C_3   0.946969 0.036803 0.113802 -0.484284
C41   C     C_3   0.048098 0.804167 0.370729 0.037701
C42   C     C_3   0.079033 0.882722 0.296183 -0.297175
C43   C     C_3   0.050963 0.815185 0.191168 -0.492262
C44   C     C_R   0.180554 0.905789 0.483966 0.269063
C45   C     C_R   0.258227 0.017732 0.472836 -0.115723
C46   C     C_R   0.383313 0.059222 0.472508 -0.172516
C47   C     C_R   0.433525 0.991178 0.489433 0.027557
C48   C     C_R   0.352621 0.882201 0.512931 -0.014280
Cu1   Cu    Cu3+1 0.899780 0.525060 0.522890 0.989848
Cu2   Cu    Cu3+1 0.100220 0.474940 0.477110 0.938384
F1    F     F_    0.538426 0.334634 0.341757 -0.687531
H1    H     H_    0.874798 0.507022 0.039771 0.138699
H2    H     H_    0.766589 0.906368 0.446711 0.119009
H3    H     H_    0.615985 0.203842 0.489242 0.150655
H4    H     H_    0.439191 0.143006 0.454441 0.158216
H5    H     H_    0.222340 0.071015 0.457716 0.147500
H6    H     H_    0.761489 0.599285 0.796907 0.139081
H7    H     H_    0.727941 0.723650 0.835842 0.169615
H8    H     H_    0.983987 0.726393 0.807355 0.178305
H9    H     H_    0.945149 0.847516 0.847120 0.157748
H10   H     H_    0.801182 0.769212 0.001249 0.144762
H11   H     H_    0.954886 0.783779 0.995993 0.150368
H12   H     H_    0.344500 0.756053 0.583951 0.123505
H13   H     H_    0.836727 0.645951 0.961654 0.156750
H14   H     H_    0.627341 0.894300 0.685671 0.144568
H15   H     H_    0.749792 0.852892 0.609672 0.137065
H16   H     H_    0.735662 0.976889 0.833519 0.167066
H17   H     H_    0.856792 0.932286 0.760297 0.195357
H18   H     H_    0.906097 0.054239 0.633109 0.193221
H19   H     H_    0.914967 0.135923 0.760483 0.152265
H20   H     H_    0.783457 0.098469 0.704770 0.152181
H21   H     H_    0.068384 0.127914 0.270512 0.136375
H22   H     H_    0.966204 0.196213 0.294807 0.141354
H23   H     H_    0.422369 0.686060 0.708590 0.157315
H24   H     H_    0.891127 0.936430 0.231255 0.166262
H25   H     H_    0.797916 0.011694 0.242481 0.163641
H26   H     H_    0.954576 0.120042 0.105988 0.154007
H27   H     H_    0.885564 0.969483 0.062547 0.151018
H28   H     H_    0.039315 0.034326 0.089733 0.143624
H29   H     H_    0.950572 0.742885 0.373201 0.173766
H30   H     H_    0.104648 0.752992 0.341496 0.121517
H31   H     H_    0.024526 0.934987 0.327181 0.209959
H32   H     H_    0.178156 0.940138 0.287360 0.159650
H33   H     H_    0.104759 0.762065 0.159181 0.164560
H34   H     H_    0.675368 0.438293 0.438839 0.229942
H35   H     H_    0.076622 0.874581 0.138548 0.145430
H36   H     H_    0.951355 0.759778 0.196490 0.148569
H37   H     H_    0.182791 0.323584 0.313350 0.125210
H38   H     H_    0.352277 0.261107 0.257485 0.124963
H39   H     H_    0.264369 0.591421 0.615362 0.172300
H40   H     H_    0.126065 0.490946 0.959735 0.136853
H41   H     H_    0.559558 0.786576 0.523239 0.113631
N1    N     N_R   0.748810 0.563010 0.557590 -0.275273
N2    N     N_R   0.250540 0.437620 0.443020 -0.237751
O1    O     O_R   0.025040 0.682470 0.528790 -0.414097
O2    O     O_3   0.635756 0.767164 0.734353 -0.605207
O3    O     O_3   0.938392 0.096776 0.400165 -0.567169
O4    O     O_3   0.060159 0.865812 0.471255 -0.545805
O5    O     O_R   0.194310 0.640150 0.490130 -0.528096
O6    O     O_R   0.903380 0.524130 0.659910 -0.476908
O7    O     O_R   0.072660 0.481800 0.621240 -0.515374
O8    O     O_R   0.805690 0.359850 0.509870 -0.520803
O9    O     O_R   0.974960 0.317530 0.471210 -0.464023
O10   O     O_R   0.927340 0.518200 0.378760 -0.510989
O11   O     O_R   0.096620 0.475870 0.340090 -0.510708
O12   O     O_3   0.837390 0.708480 0.690664 -0.516587

loop_
_geom_bond_atom_site_label_1
_geom_bond_atom_site_label_2
_ccdc_geom_bond_type
C15   C18   A    
C37   H18   S    
C12   C29   T    
C28   H1    S    
C41   C42   S    
C3    C23   A    
C2    C7    A    
C42   H31   S    
C1    O5    A    
Cu1   O10   S    
C36   H16   S    
C25   O11   A    
C45   C46   A    
Cu2   O5    S    
C6    C48   A    
C31   H7    S    
C36   C37   S    
C38   C39   S    
C35   H14   S    
C8    C23   A    
C18   C19   A    
C22   H34   S    
C16   C34   S    
C44   O4    S    
C14   F1    S    
C45   H5    S    
C33   H11   S    
C46   H4    S    
Cu2   O11   S    
C27   H40   S    
C39   H24   S    
C4    C12   S    
C10   C19   A    
Cu2   O9    S    
C13   C14   A    
C27   C30   S    
C43   H33   S    
C41   H29   S    
C38   O3    S    
C23   H2    S    
C21   H39   S    
C38   H21   S    
C1    C9    S    
C39   C40   S    
Cu2   N2    S    
C35   H15   S    
C10   C24   A    
C25   C26   S    
C35   O2    S    
C41   O4    S    
C17   C21   A    
C35   C36   S    
C6    H12   S    
C8    O3    S    
C16   O9    A    
C47   C48   A    
C10   O2    S    
C11   H37   S    
C1    O1    A    
C41   H30   S    
C4    O7    A    
C40   H28   S    
C20   H23   S    
C8    C34   A    
C39   H25   S    
Cu1   O1    S    
C9    C48   A    
C11   N2    A    
C16   O8    A    
C26   C30   T    
C4    O6    A    
C22   N1    A    
C40   H27   S    
C24   O12   S    
C42   C43   S    
C32   H9    S    
Cu1   O8    S    
C44   C45   A    
C7    C34   A    
C15   C17   A    
C46   C47   A    
C28   C29   S    
C9    C44   A    
C13   H38   S    
C18   C22   A    
C43   H35   S    
C31   C32   S    
C42   H32   S    
C3    C5    A    
C36   H17   S    
C25   O10   A    
C2    C47   A    
C32   H8    S    
C43   H36   S    
C32   C33   S    
C31   H6    S    
C19   C20   A    
C37   H20   S    
C2    C3    A    
C24   N1    A    
Cu1   O6    S    
C11   C13   A    
C5    C6    A    
C33   H13   S    
C31   O12   S    
C40   H26   S    
C5    H41   S    
C20   C21   A    
Cu2   O7    S    
C33   H10   S    
Cu1   Cu2   S    
C27   C28   D    
C14   C15   A    
C17   N2    A    
C7    H3    S    
Cu1   N1    S    
C37   H19   S    
C38   H22   S    
