data_mof_unit_61559.cif
_audit_creation_date              2012-12-10T19:30:58-0500
_audit_creation_method            fapswitch 2.2
_symmetry_space_group_name_H-M    P1
_symmetry_Int_Tables_number       1
_space_group_crystal_system       triclinic
_cell_length_a                    17.889251
_cell_length_b                    16.671261
_cell_length_c                    23.499394
_cell_angle_alpha                 89.912992
_cell_angle_beta                  91.643776
_cell_angle_gamma                 89.929556
_cell_volume                      7005.47624909

loop_
_atom_site_label
_atom_site_type_symbol
_atom_type_description
_atom_site_fract_x
_atom_site_fract_y
_atom_site_fract_z
_atom_type_partial_charge
C1    C     C_R   0.354565 0.500254 0.498097 0.811642
C2    C     C_R   0.645118 0.500100 0.500743 0.828167
C3    C     C_R   0.552911 0.469224 0.236649 0.298948
C4    C     C_R   0.470635 0.455149 0.766146 0.306426
C5    C     C_R   0.556192 0.464884 0.296928 -0.006668
C6    C     C_R   0.458018 0.457723 0.706490 0.029723
C7    C     C_R   0.498262 0.500907 0.328196 -0.154786
C8    C     C_R   0.508909 0.500003 0.672215 -0.162311
C9    C     C_R   0.439975 0.542578 0.299167 0.193762
C10   C     C_R   0.568051 0.543051 0.698942 0.189737
C11   C     C_R   0.444206 0.556092 0.240761 -0.249518
C12   C     C_R   0.567926 0.555305 0.757750 -0.232831
C13   C     C_R   0.499338 0.519124 0.208808 0.236687
C14   C     C_R   0.519232 0.512317 0.791977 0.209312
C15   C     C_R   0.847735 0.576881 0.496329 0.227078
C16   C     C_R   0.147856 0.432364 0.481676 0.220824
C17   C     C_R   0.151553 0.578080 0.477267 0.211992
C18   C     C_R   0.845051 0.436509 0.467852 0.200225
C19   C     C_R   0.770077 0.575188 0.505749 0.075026
C20   C     C_R   0.226352 0.428726 0.490138 0.075348
C21   C     C_R   0.230302 0.577442 0.484758 0.073369
C22   C     C_R   0.769962 0.430301 0.483846 0.071925
C23   C     C_R   0.729177 0.501418 0.497975 -0.227963
C24   C     C_R   0.269725 0.501923 0.491873 -0.210917
C25   C     C_R   0.883998 0.508517 0.476141 -0.053750
C26   C     C_R   0.111398 0.506282 0.476561 -0.049362
C27   C     C_R   0.500010 0.500079 0.391001 0.865949
C28   C     C_R   0.501725 0.499885 0.609185 0.862320
C29   C     C_1   0.963988 0.508984 0.472025 -0.031527
C30   C     C_1   0.031032 0.508320 0.472458 -0.031505
C31   C     C_R   0.529714 0.831294 0.546441 -0.009606
C32   C     C_R   0.452560 0.170278 0.461836 0.036930
C33   C     C_R   0.468461 0.831262 0.453758 -0.002668
C34   C     C_R   0.545484 0.169424 0.538670 0.041130
C35   C     C_R   0.524663 0.745229 0.547230 0.327705
C36   C     C_R   0.460216 0.255696 0.458514 0.375455
C37   C     C_R   0.474761 0.745284 0.452831 0.318286
C38   C     C_R   0.540065 0.255222 0.541260 0.378371
C39   C     C_R   0.498795 0.874721 0.500126 0.019629
C40   C     C_R   0.498424 0.126273 0.500481 -0.057920
C41   C     C_1   0.498410 0.963695 0.500133 0.018092
C42   C     C_1   0.498275 0.037287 0.500242 -0.058482
C43   C     C_R   0.582366 0.526475 0.885097 0.557116
C44   C     C_R   0.437093 0.524555 0.114879 0.541393
C45   C     C_R   0.450397 0.545829 0.876416 0.522049
C46   C     C_R   0.567553 0.552847 0.123457 0.601168
C47   C     C_R   0.444209 0.547092 0.936138 -0.048442
C48   C     C_R   0.573962 0.551868 0.063696 -0.053967
C49   C     C_R   0.510744 0.544571 0.969942 -0.065877
C50   C     C_R   0.507767 0.544994 0.029891 -0.074561
C51   C     C_R   0.580385 0.539563 0.943975 -0.035068
C52   C     C_R   0.438507 0.536564 0.055898 -0.035223
C53   C     C_R   0.374323 0.547140 0.963251 0.250300
C54   C     C_R   0.643801 0.555035 0.036595 0.254105
C55   C     C_R   0.372386 0.538053 0.022449 -0.236609
C56   C     C_R   0.646291 0.545188 0.977454 -0.238316
Cu1   Cu    Cu3+1 0.500000 0.580420 0.500000 0.969988
Cu2   Cu    Cu3+1 0.500000 0.419580 0.500000 0.911631
H1    H     H_    0.318539 0.534016 0.042244 0.182278
H2    H     H_    0.700305 0.543530 0.957747 0.182493
H3    H     H_    0.403015 0.594545 0.219864 0.179736
H4    H     H_    0.607790 0.596583 0.777086 0.178433
N1    N     N_R   0.517645 0.528527 0.852414 -0.454876
N2    N     N_R   0.501202 0.532684 0.147877 -0.443491
N3    N     N_R   0.500000 0.701220 0.500000 -0.208569
N4    N     N_R   0.500000 0.298780 0.500000 -0.255821
O1    O     O_R   0.391260 0.567930 0.500000 -0.562658
O2    O     O_R   0.608740 0.432070 0.500000 -0.601494
O3    O     O_R   0.608740 0.567930 0.500000 -0.563400
O4    O     O_R   0.391260 0.432070 0.500000 -0.592475
O5    O     O_R   0.499980 0.567930 0.417880 -0.526179
O6    O     O_R   0.500020 0.432070 0.582120 -0.592211
O7    O     O_R   0.500020 0.567930 0.582120 -0.526367
O8    O     O_R   0.499980 0.432070 0.417880 -0.601697
O9    O     O_2   0.648259 0.510104 0.861079 -0.560023
O10   O     O_2   0.372304 0.503159 0.138677 -0.560608
O11   O     O_2   0.389610 0.558708 0.842313 -0.514953
O12   O     O_2   0.626865 0.573275 0.157045 -0.521969
N5    N     N_2   0.305500 0.551552 0.931547 -0.376784
H5    H     H_    0.265233 0.512892 0.946034 0.241766
C57   C     C_3   0.277021 0.632337 0.924672 -0.605277
H6    H     H_    0.262114 0.657545 0.966630 0.194682
H7    H     H_    0.226189 0.631516 0.896440 0.223514
H8    H     H_    0.319352 0.671485 0.904926 0.247167
N6    N     N_2   0.712262 0.562986 0.068354 -0.377870
H9    H     H_    0.753623 0.524762 0.055009 0.241756
C58   C     C_3   0.738521 0.644814 0.072965 -0.614686
H10   H     H_    0.753127 0.668198 0.030377 0.196805
H11   H     H_    0.789118 0.646853 0.101412 0.223372
H12   H     H_    0.694977 0.683805 0.091361 0.247232
N7    N     N_2   0.542691 0.705561 0.599099 -0.359665
H13   H     H_    0.598470 0.706631 0.610976 0.222405
C59   C     C_3   0.491400 0.719233 0.645068 -0.619812
H14   H     H_    0.474810 0.661630 0.664168 0.239003
H15   H     H_    0.438960 0.749138 0.629732 0.207735
H16   H     H_    0.518873 0.755730 0.679137 0.202288
N8    N     N_2   0.426095 0.294976 0.410548 -0.413776
H17   H     H_    0.398563 0.348235 0.415374 0.272164
C60   C     C_3   0.456373 0.279651 0.354958 -0.708254
H18   H     H_    0.477028 0.335794 0.336107 0.242859
H19   H     H_    0.411405 0.256262 0.326055 0.225766
H20   H     H_    0.503398 0.235955 0.357216 0.213136
N9    N     N_2   0.458124 0.705871 0.400716 -0.361982
H21   H     H_    0.402483 0.705480 0.388327 0.221697
C61   C     C_3   0.509982 0.720646 0.355301 -0.621527
H22   H     H_    0.528030 0.663396 0.336522 0.238069
H23   H     H_    0.561589 0.751506 0.371137 0.206808
H24   H     H_    0.482427 0.756772 0.320946 0.203355
N10   N     N_2   0.579407 0.294726 0.586743 -0.412508
H25   H     H_    0.604032 0.348880 0.579706 0.278557
C62   C     C_3   0.554600 0.281681 0.644222 -0.722913
H26   H     H_    0.539921 0.339281 0.663933 0.240429
H27   H     H_    0.601121 0.255802 0.670555 0.228223
H28   H     H_    0.505134 0.241410 0.645231 0.214649
N11   N     N_2   0.603079 0.424181 0.203136 -0.398942
H29   H     H_    0.658488 0.425135 0.216306 0.273819
C63   C     C_3   0.575852 0.345763 0.186702 -0.720063
H30   H     H_    0.569536 0.307316 0.224939 0.216746
H31   H     H_    0.616180 0.316963 0.158045 0.233101
H32   H     H_    0.521091 0.351103 0.163441 0.248661
N12   N     N_2   0.435812 0.394360 0.799289 -0.414068
H33   H     H_    0.430592 0.406026 0.841894 0.274765
C64   C     C_3   0.465657 0.314598 0.790985 -0.752368
H34   H     H_    0.434397 0.270892 0.816888 0.237467
H35   H     H_    0.525678 0.312593 0.804544 0.239831
H36   H     H_    0.459705 0.296235 0.745744 0.231959
C65   C     C_3   0.623911 0.427903 0.327388 -0.428845
C66   C     C_3   0.683009 0.491918 0.339993 -0.816721
H37   H     H_    0.701589 0.519570 0.299772 0.263473
H38   H     H_    0.660165 0.539384 0.367740 0.247157
H39   H     H_    0.732164 0.464545 0.362267 0.242107
H40   H     H_    0.608454 0.399199 0.367528 0.229929
H41   H     H_    0.648542 0.378372 0.302721 0.202072
C67   C     C_3   0.387677 0.420285 0.680928 -0.387592
C68   C     C_3   0.332159 0.485242 0.661287 -0.830812
H42   H     H_    0.323285 0.528926 0.696122 0.275247
H43   H     H_    0.352718 0.517610 0.623635 0.232459
H44   H     H_    0.277340 0.457778 0.649707 0.240827
H45   H     H_    0.402499 0.379799 0.645813 0.207499
H46   H     H_    0.358411 0.382422 0.712070 0.246071
N13   N     N_2   0.378051 0.573866 0.328841 -0.418373
H47   H     H_    0.353863 0.623735 0.309830 0.242183
C69   C     C_3   0.322648 0.514622 0.343149 -0.685666
H48   H     H_    0.297937 0.487381 0.303792 0.238995
H49   H     H_    0.277322 0.543753 0.366949 0.215053
H50   H     H_    0.347877 0.466880 0.370415 0.214714
N14   N     N_2   0.627883 0.574319 0.667049 -0.418945
H51   H     H_    0.652679 0.624401 0.685090 0.241717
C70   C     C_3   0.682938 0.514680 0.652488 -0.701066
H52   H     H_    0.708479 0.487725 0.691746 0.241979
H53   H     H_    0.727932 0.543110 0.628001 0.209995
H54   H     H_    0.656981 0.466734 0.625939 0.215545
N15   N     N_2   0.889278 0.648766 0.506640 -0.424808
H55   H     H_    0.924789 0.663768 0.474496 0.258174
C71   C     C_3   0.925282 0.653341 0.562563 -0.730130
H56   H     H_    0.970802 0.608241 0.566925 0.228595
H57   H     H_    0.884405 0.642601 0.596433 0.228186
H58   H     H_    0.949690 0.713991 0.568786 0.230363
N16   N     N_2   0.104889 0.360244 0.479526 -0.430376
H59   H     H_    0.058150 0.360716 0.504169 0.251124
C72   C     C_3   0.090429 0.329992 0.422572 -0.725251
H60   H     H_    0.056626 0.373718 0.397143 0.237447
H61   H     H_    0.059319 0.272545 0.424810 0.230742
H62   H     H_    0.143779 0.318898 0.400817 0.229617
N17   N     N_2   0.112262 0.652444 0.471813 -0.430915
H63   H     H_    0.067799 0.658171 0.498441 0.262408
C73   C     C_3   0.093728 0.675748 0.413741 -0.729145
H64   H     H_    0.051800 0.634039 0.394476 0.233622
H65   H     H_    0.144591 0.675786 0.387675 0.228068
H66   H     H_    0.069793 0.737220 0.413327 0.229456
N18   N     N_2   0.882639 0.367401 0.447066 -0.420149
H67   H     H_    0.931063 0.353107 0.469627 0.252160
C74   C     C_3   0.892049 0.366784 0.386115 -0.680884
H68   H     H_    0.928699 0.416914 0.373142 0.222129
H69   H     H_    0.837277 0.372531 0.363208 0.227438
H70   H     H_    0.917961 0.309197 0.373481 0.223455
C75   C     C_3   0.734381 0.652917 0.526261 -0.331018
C76   C     C_3   0.709894 0.706700 0.476315 -0.773646
H71   H     H_    0.759638 0.727823 0.453415 0.246070
H72   H     H_    0.672558 0.674357 0.445644 0.260884
H73   H     H_    0.679625 0.759813 0.492474 0.217412
H74   H     H_    0.688263 0.641787 0.555461 0.207781
H75   H     H_    0.773670 0.687817 0.553753 0.208317
C77   C     C_3   0.259933 0.345002 0.498496 -0.337858
C78   C     C_3   0.278595 0.327209 0.560662 -0.815011
H76   H     H_    0.318901 0.371630 0.577039 0.274754
H77   H     H_    0.227238 0.329765 0.586066 0.248339
H78   H     H_    0.303960 0.266582 0.564922 0.230912
H79   H     H_    0.222161 0.296391 0.483681 0.229115
H80   H     H_    0.308058 0.335654 0.471792 0.200447
C79   C     C_3   0.269018 0.659416 0.485286 -0.319395
C80   C     C_3   0.288333 0.687530 0.545893 -0.776685
H81   H     H_    0.236111 0.700952 0.568513 0.240615
H82   H     H_    0.320032 0.641581 0.570714 0.257892
H83   H     H_    0.322515 0.743019 0.544271 0.221754
H84   H     H_    0.317442 0.660534 0.457210 0.201354
H85   H     H_    0.233848 0.707155 0.465532 0.213453
C81   C     C_3   0.741500 0.345705 0.495024 -0.298953
C82   C     C_3   0.703687 0.305646 0.443242 -0.771038
H86   H     H_    0.643069 0.318651 0.441200 0.259728
H87   H     H_    0.729228 0.324823 0.403106 0.248394
H88   H     H_    0.709742 0.239579 0.446794 0.220343
H89   H     H_    0.788848 0.306809 0.509587 0.196070
H90   H     H_    0.705464 0.344672 0.532080 0.177921
C83   C     C_3   0.570073 0.876893 0.594634 -0.365755
C84   C     C_3   0.516782 0.922679 0.632963 -0.832029
H91   H     H_    0.491445 0.975189 0.610935 0.249345
H92   H     H_    0.470963 0.883771 0.647421 0.252707
H93   H     H_    0.548442 0.945129 0.671014 0.231212
H94   H     H_    0.605223 0.837020 0.621934 0.191795
H95   H     H_    0.610415 0.919441 0.576117 0.190372
C85   C     C_3   0.395170 0.126686 0.423497 -0.346205
C86   C     C_3   0.315114 0.152635 0.435102 -0.843390
H96   H     H_    0.305061 0.151657 0.481531 0.251890
H97   H     H_    0.303805 0.213460 0.417886 0.254234
H98   H     H_    0.275204 0.110774 0.413612 0.235397
H99   H     H_    0.407059 0.135649 0.377999 0.208397
H100  H     H_    0.396844 0.061004 0.429579 0.205305
C87   C     C_3   0.427592 0.876681 0.405563 -0.365066
C88   C     C_3   0.480315 0.923491 0.367379 -0.831366
H101  H     H_    0.503398 0.977232 0.389111 0.248675
H102  H     H_    0.527685 0.885869 0.353995 0.253103
H103  H     H_    0.448832 0.944238 0.328683 0.230945
H104  H     H_    0.393148 0.836398 0.378190 0.190437
H105  H     H_    0.386652 0.918672 0.424027 0.189436
C89   C     C_3   0.602938 0.124507 0.576303 -0.348454
C90   C     C_3   0.682959 0.143281 0.559847 -0.835781
H106  H     H_    0.690649 0.128994 0.514253 0.246912
H107  H     H_    0.696643 0.207141 0.567701 0.262599
H108  H     H_    0.722547 0.106089 0.585880 0.233899
H109  H     H_    0.595477 0.137261 0.621872 0.208680
H110  H     H_    0.596779 0.058818 0.573349 0.205067

loop_
_geom_bond_atom_site_label_1
_geom_bond_atom_site_label_2
_ccdc_geom_bond_type
C68   H44   S    
N18   H67   S    
C49   C50   A    
N17   H63   S    
C55   H1    S    
C69   H50   S    
C41   C42   T    
C62   H26   S    
C58   H10   S    
C43   C51   A    
C66   H37   S    
C72   H62   S    
C88   H102  S    
C72   H60   S    
C78   H76   S    
C43   N1    A    
C64   H34   S    
C39   C41   S    
C87   H105  S    
C18   N18   S    
C44   N2    A    
C15   C19   A    
N18   C74   S    
C79   H85   S    
C33   C39   A    
C34   C40   A    
C17   C26   A    
C32   C36   A    
N14   C70   S    
C31   C83   S    
C2    O2    A    
C63   H31   S    
N16   H59   S    
C67   H46   S    
C32   C85   S    
C84   H92   S    
C64   H35   S    
C71   H57   S    
C85   H99   S    
C35   N3    A    
N11   H29   S    
C7    C27   S    
C77   C78   S    
C53   N5    S    
C69   H49   S    
C51   C56   A    
C45   C47   A    
Cu1   O7    S    
C44   O10   S    
C79   H84   S    
N9    H21   S    
N14   H51   S    
N8    C60   S    
C87   H104  S    
C65   H40   S    
C70   H52   S    
Cu2   N4    S    
C20   C24   A    
N11   C63   S    
C90   H108  S    
C37   N3    A    
C82   H88   S    
C50   C52   A    
N16   C72   S    
C36   N8    S    
C83   C84   S    
N15   C71   S    
C27   O8    A    
C19   C75   S    
C3    C13   A    
C52   C55   A    
C10   N14   S    
C47   C53   A    
C44   C52   A    
C53   C55   A    
C82   H86   S    
N17   C73   S    
C18   C22   A    
C71   H58   S    
C43   O9    S    
C15   C25   A    
C28   O6    A    
C18   C25   A    
Cu1   O1    S    
C28   O7    A    
C88   H101  S    
C72   H61   S    
N8    H17   S    
C73   H66   S    
C46   C48   A    
C2    C23   S    
C74   H69   S    
C25   C29   S    
C61   H24   S    
C54   C56   A    
C58   H12   S    
C15   N15   S    
N6    C58   S    
C79   C80   S    
C80   H83   S    
C76   H71   S    
C68   H42   S    
C75   H75   S    
C73   H65   S    
C63   H32   S    
C67   H45   S    
C5    C7    A    
C9    N13   S    
C84   H91   S    
Cu2   O4    S    
C78   H78   S    
C6    C8    A    
C49   C51   A    
N6    H9    S    
C45   N1    A    
C57   H6    S    
C56   H2    S    
C46   N2    A    
N13   C69   S    
C80   H82   S    
C48   C54   A    
C19   C23   A    
C3    N11   S    
C11   H3    S    
C29   C30   T    
C61   H23   S    
N7    C59   S    
C12   H4    S    
C36   N4    A    
C90   H106  S    
C86   H96   S    
C16   C20   A    
C5    C65   S    
C62   H27   S    
C59   H14   S    
Cu1   O5    S    
C38   N10   S    
C9    C11   A    
N12   H33   S    
C81   C82   S    
C10   C12   A    
C75   C76   S    
C34   C89   S    
C4    C6    A    
C90   H107  S    
C81   H89   S    
C12   C14   A    
C26   C30   S    
C59   H16   S    
C32   C40   A    
C58   H11   S    
C81   H90   S    
C87   C88   S    
C8    C28   S    
N9    C61   S    
C31   C35   A    
C70   H54   S    
C89   H109  S    
C65   C66   S    
C2    O3    A    
C66   H39   S    
C3    C5    A    
C73   H64   S    
C57   H8    S    
C27   O5    A    
Cu2   O8    S    
C46   O12   S    
C75   H74   S    
C74   H70   S    
Cu2   O2    S    
C68   H43   S    
C38   N4    A    
C60   H19   S    
C34   C38   A    
C33   C87   S    
C22   C81   S    
C65   H41   S    
Cu1   N3    S    
C40   C42   S    
C64   H36   S    
C16   C26   A    
C66   H38   S    
C57   H7    S    
C54   N6    S    
C76   H72   S    
C86   H98   S    
C47   C49   A    
C61   H22   S    
C67   C68   S    
N5    C57   S    
C1    O4    A    
C60   H18   S    
C20   C77   S    
C33   C37   A    
C80   H81   S    
C70   H53   S    
C86   H97   S    
C6    C67   S    
C17   N17   S    
N13   H47   S    
C11   C13   A    
C84   H93   S    
Cu2   O6    S    
Cu1   Cu2   S    
C59   H15   S    
C13   N2    S    
C85   H100  S    
C83   H94   S    
C89   H110  S    
C14   N1    S    
N10   C62   S    
C48   C50   A    
C1    O1    A    
C31   C39   A    
C4    N12   S    
C62   H28   S    
C77   H80   S    
C37   N9    S    
C4    C14   A    
C17   C21   A    
N12   C64   S    
C76   H73   S    
C78   H77   S    
C74   H68   S    
N5    H5    S    
C7    C9    A    
C60   H20   S    
C85   C86   S    
C1    C24   S    
C8    C10   A    
C89   C90   S    
C21   C24   A    
N10   H25   S    
C71   H56   S    
C82   H87   S    
C83   H95   S    
C22   C23   A    
C45   O11   S    
C21   C79   S    
Cu1   O3    S    
N15   H55   S    
C63   H30   S    
C77   H79   S    
C88   H103  S    
N7    H13   S    
C69   H48   S    
C16   N16   S    
C35   N7    S    
