data_mof_unit_9270.cif
_audit_creation_date              2013-03-05T16:08:07-0500
_audit_creation_method            fapswitch 2.2
_symmetry_space_group_name_H-M    P1
_symmetry_Int_Tables_number       1
_space_group_crystal_system       triclinic
_cell_length_a                    23.520189
_cell_length_b                    11.544238
_cell_length_c                    10.746246
_cell_angle_alpha                 89.581181
_cell_angle_beta                  90.508946
_cell_angle_gamma                 90.108631
_cell_volume                      2917.65133827

loop_
_atom_site_label
_atom_site_type_symbol
_atom_site_description
_atom_site_fract_x
_atom_site_fract_y
_atom_site_fract_z
_atom_type_partial_charge
O1    O     O_R   0.500000 0.334450 0.602530 -0.621391
O2    O     O_R   0.500000 0.665550 0.397470 -0.614654
O3    O     O_R   0.500000 0.665550 0.602530 -0.610169
O4    O     O_R   0.500000 0.334450 0.397470 -0.628937
C1    C     C_R   0.499746 0.281124 0.500364 0.894899
C2    C     C_R   0.499339 0.718869 0.499655 0.896754
O5    O     O_R   0.416150 0.500000 0.602560 -0.571764
O6    O     O_R   0.583850 0.500000 0.397440 -0.574118
O7    O     O_R   0.583850 0.500000 0.602560 -0.606012
O8    O     O_R   0.416150 0.500000 0.397440 -0.579985
C3    C     C_R   0.388796 0.494691 0.499398 0.962700
C4    C     C_R   0.611225 0.501489 0.500619 0.986273
Zn1   Zn    Zn3+2 0.500000 0.500000 0.636920 0.991752
Zn2   Zn    Zn3+2 0.500000 0.500000 0.363080 0.991684
C5    C     C_R   0.880804 0.590512 0.504932 0.638673
C6    C     C_R   0.119286 0.384654 0.490940 0.633766
C7    C     C_R   0.880429 0.385805 0.473491 0.669902
C8    C     C_R   0.119619 0.591376 0.499369 0.664250
N1    N     N_R   0.852749 0.488067 0.489721 -0.318476
N2    N     N_R   0.147256 0.487964 0.496083 -0.317222
C9    C     C_R   0.940087 0.382494 0.476254 -0.161536
C10   C     C_R   0.060007 0.594389 0.495708 -0.162603
C11   C     C_R   0.940392 0.593782 0.503793 -0.147001
C12   C     C_R   0.059695 0.381788 0.490924 -0.147951
C13   C     C_R   0.970117 0.488128 0.490701 -0.142273
C14   C     C_R   0.029951 0.488104 0.492382 -0.140116
C15   C     C_R   0.970221 0.277060 0.467277 0.380348
C16   C     C_R   0.029915 0.700014 0.495687 0.381199
C17   C     C_R   0.970748 0.699173 0.514467 0.382816
C18   C     C_R   0.029348 0.276199 0.489132 0.383755
O9    O     O_2   0.850491 0.688534 0.519593 -0.519945
O10   O     O_2   0.149592 0.285781 0.483962 -0.518038
O11   O     O_2   0.849762 0.288157 0.456976 -0.485724
O12   O     O_2   0.150209 0.690063 0.507743 -0.484989
C19   C     C_R   0.237073 0.473957 0.609699 0.185733
C20   C     C_R   0.763861 0.451397 0.599358 0.200810
C21   C     C_R   0.236693 0.493224 0.383999 0.181307
C22   C     C_R   0.761922 0.533213 0.389804 0.199575
C23   C     C_R   0.296452 0.466858 0.610440 0.369777
C24   C     C_R   0.704577 0.459550 0.605209 0.327734
C25   C     C_R   0.296020 0.484899 0.383184 0.365514
C26   C     C_R   0.702959 0.546422 0.396773 0.352974
C27   C     C_R   0.326395 0.482580 0.497723 -0.373092
C28   C     C_R   0.673710 0.503132 0.501483 -0.357129
C29   C     C_R   0.207733 0.487215 0.496840 0.049696
C30   C     C_R   0.792160 0.488788 0.492111 0.045633
C31   C     C_1   0.498766 0.161076 0.500951 -0.169476
C32   C     C_1   0.498386 0.838951 0.499229 -0.169389
C33   C     C_1   0.498082 0.059153 0.500639 -0.005187
C34   C     C_1   0.497896 0.940883 0.499806 0.003523
N3    N     N_1   0.500000 0.500000 0.180630 -0.084346
N4    N     N_1   0.500000 0.500000 0.819370 -0.083646
C35   C     C_1   0.499824 0.499984 0.069672 0.044889
C36   C     C_1   0.499797 0.500010 0.930324 0.038509
O13   O     O_3   0.941272 0.173191 0.451426 -0.595031
C37   C     C_3   0.954587 0.123383 0.335058 0.104459
H1    H     H_    0.947460 0.028588 0.343651 0.177883
H2    H     H_    0.999836 0.135105 0.307853 0.145354
C38   C     C_3   0.915464 0.170170 0.231707 -0.299097
H3    H     H_    0.870438 0.152685 0.256169 0.273630
H4    H     H_    0.921400 0.265320 0.221947 0.228407
C39   C     C_3   0.928300 0.113039 0.107427 -0.955784
H5    H     H_    0.972893 0.130929 0.079903 0.265427
H6    H     H_    0.899357 0.148178 0.034270 0.293354
H7    H     H_    0.921808 0.017868 0.114309 0.271631
O14   O     O_3   0.058655 0.804712 0.485580 -0.607117
C40   C     C_3   0.046609 0.857871 0.368964 0.083511
H8    H     H_    0.052461 0.952614 0.380342 0.188817
H9    H     H_    0.001933 0.844935 0.336459 0.145251
C41   C     C_3   0.087828 0.816318 0.269199 -0.288869
H10   H     H_    0.132271 0.833356 0.300009 0.277036
H11   H     H_    0.082552 0.721581 0.255469 0.234588
C42   C     C_3   0.076959 0.878532 0.145378 -0.939226
H12   H     H_    0.032930 0.861443 0.111942 0.261272
H13   H     H_    0.107210 0.846664 0.074717 0.293304
H14   H     H_    0.083051 0.973431 0.155940 0.269693
O15   O     O_3   0.942045 0.803014 0.529964 -0.596578
C43   C     C_3   0.955180 0.851618 0.647593 0.111187
H15   H     H_    0.947961 0.946410 0.639937 0.177078
H16   H     H_    0.000421 0.840096 0.676537 0.146072
C44   C     C_3   0.916017 0.803290 0.748714 -0.306291
H17   H     H_    0.870998 0.820658 0.722631 0.270425
H18   H     H_    0.921985 0.708101 0.757505 0.225822
C45   C     C_3   0.928758 0.859112 0.874279 -0.956843
H19   H     H_    0.973323 0.841204 0.903491 0.266920
H20   H     H_    0.899746 0.822979 0.945742 0.288453
H21   H     H_    0.922287 0.954300 0.868339 0.274205
O16   O     O_3   0.057799 0.171460 0.501081 -0.608659
C46   C     C_3   0.045688 0.119187 0.617688 0.093588
H22   H     H_    0.051100 0.024321 0.607134 0.186560
H23   H     H_    0.001110 0.132845 0.648657 0.145809
C47   C     C_3   0.087279 0.160808 0.718467 -0.299659
H24   H     H_    0.131592 0.143030 0.689175 0.269992
H25   H     H_    0.082487 0.255686 0.731437 0.233153
C48   C     C_3   0.076333 0.099440 0.842351 -0.945073
H26   H     H_    0.032454 0.117314 0.874340 0.263547
H27   H     H_    0.106880 0.131306 0.913712 0.286530
H28   H     H_    0.081926 0.004401 0.832588 0.273302
Br1   Br    Br    0.195818 0.469275 0.763769 -0.454995
Br2   Br    Br    0.806206 0.385136 0.736837 -0.456290
Br3   Br    Br    0.194968 0.516745 0.230715 -0.454743
Br4   Br    Br    0.801164 0.572031 0.238422 -0.498542
O17   O     O_3   0.325249 0.449167 0.722120 -0.571935
C49   C     C_3   0.321580 0.330812 0.758231 0.135102
H29   H     H_    0.282453 0.286105 0.723540 0.148170
H30   H     H_    0.319752 0.327338 0.861487 0.170724
C50   C     C_3   0.374272 0.264413 0.716479 -0.372237
H31   H     H_    0.377469 0.268608 0.613483 0.199424
H32   H     H_    0.412803 0.304808 0.758204 0.257798
C51   C     C_3   0.371688 0.137427 0.756312 -0.920442
H33   H     H_    0.369328 0.130012 0.859182 0.261762
H34   H     H_    0.410555 0.092189 0.724753 0.276343
H35   H     H_    0.333972 0.094535 0.713898 0.277197
O18   O     O_3   0.676672 0.413090 0.706737 -0.579655
C52   C     C_3   0.675417 0.496060 0.802804 0.145661
H36   H     H_    0.646856 0.569187 0.776652 0.140033
H37   H     H_    0.718398 0.532115 0.823601 0.161775
C53   C     C_3   0.653092 0.437487 0.920401 -0.335442
H38   H     H_    0.610545 0.399423 0.901074 0.227681
H39   H     H_    0.682315 0.366176 0.948481 0.257486
C54   C     C_3   0.648602 0.523029 0.027064 -0.855299
H40   H     H_    0.691240 0.558678 0.050283 0.303439
H41   H     H_    0.631450 0.477669 0.110111 0.301215
H42   H     H_    0.619562 0.595316 0.001531 0.242654
O19   O     O_3   0.324402 0.485382 0.270581 -0.571463
C55   C     C_3   0.319299 0.375400 0.213024 0.151603
H43   H     H_    0.319179 0.389897 0.110686 0.184280
H44   H     H_    0.278821 0.329213 0.234779 0.153391
C56   C     C_3   0.369864 0.297637 0.247300 -0.372713
H45   H     H_    0.409980 0.341213 0.219707 0.258899
H46   H     H_    0.370852 0.282016 0.349449 0.204577
C57   C     C_3   0.366077 0.181187 0.181605 -0.933477
H47   H     H_    0.326751 0.134530 0.209170 0.279067
H48   H     H_    0.403392 0.127284 0.208077 0.277157
H49   H     H_    0.365960 0.194197 0.079136 0.256086
O20   O     O_3   0.673254 0.597016 0.298851 -0.612981
C58   C     C_3   0.682938 0.718298 0.295450 0.115917
H50   H     H_    0.696630 0.741845 0.199837 0.186980
H51   H     H_    0.716888 0.749423 0.360677 0.158175
C59   C     C_3   0.627695 0.781818 0.323427 -0.359460
H52   H     H_    0.593624 0.751457 0.259068 0.251346
H53   H     H_    0.614961 0.761856 0.420522 0.204283
C60   C     C_3   0.634737 0.912623 0.308482 -0.913833
H54   H     H_    0.667317 0.945398 0.374976 0.278130
H55   H     H_    0.593750 0.956203 0.327485 0.272321
H56   H     H_    0.647687 0.934637 0.211992 0.267522

loop_
_geom_bond_atom_site_label_1
_geom_bond_atom_site_label_2
_geom_bond_distance
_ccdc_geom_bond_type
C60   H56   1.110845 S    
O13   C37   1.417971 S    
C55   H43   1.111184 S    
C42   H13   1.110346 S    
C42   H12   1.110905 S    
C19   C23   1.399119 A    
C48   H26   1.110864 S    
C45   H21   1.110950 S    
O3    C2    1.261378 A    
C49   H30   1.111248 S    
C44   H17   1.111159 S    
C48   H28   1.111107 S    
C31   C33   1.176739 T    
C35   C36   1.497456 S    
O5    C3    1.278618 A    
C58   H51   1.118357 S    
C2    C32   1.386457 S    
O1    C1    1.262592 A    
C11   C17   1.414378 A    
C16   C17   1.407959 A    
C59   H53   1.110533 S    
C22   C26   1.398201 A    
C43   H16   1.113893 S    
C60   H54   1.110898 S    
C37   H1    1.110084 S    
C54   H41   1.110039 S    
C26   O20   1.384224 S    
O7    Zn1   2.009657 S    
C53   H38   1.110679 S    
C54   H42   1.110709 S    
C39   H6    1.110363 S    
C51   H34   1.110561 S    
C5    N1    1.363358 A    
C24   O18   1.382622 S    
C57   H47   1.110883 S    
C52   H37   1.113963 S    
O6    Zn2   2.003209 S    
C50   H31   1.110739 S    
C59   C60   1.526246 S    
C20   C30   1.401019 A    
C41   H10   1.111299 S    
C46   H23   1.114681 S    
N2    C29   1.422421 S    
O3    Zn1   1.943898 S    
O6    C4    1.277423 A    
C56   C57   1.525064 S    
C32   C34   1.176865 T    
O14   C40   1.417905 S    
C9    C15   1.413975 A    
C38   H3    1.111183 S    
C6    C12   1.401920 A    
C10   C16   1.411042 A    
C15   C18   1.408348 A    
C21   C25   1.398981 A    
C25   C27   1.417786 A    
O2    C2    1.262997 A    
C26   C28   1.411888 A    
C19   Br1   1.926847 S    
C49   H29   1.116783 S    
C44   H18   1.111302 S    
N4    C36   1.192397 T    
O18   C52   1.413917 S    
C12   C18   1.411544 A    
C58   C59   1.526495 S    
N1    C30   1.425563 S    
C38   H4    1.111329 S    
C40   H8    1.109606 S    
C25   O19   1.387131 S    
C20   C24   1.399729 A    
C59   H52   1.111735 S    
C20   Br2   1.928714 S    
O8    Zn2   2.009659 S    
C43   H15   1.110061 S    
O4    C1    1.261666 A    
C23   C27   1.416896 A    
C55   C56   1.532125 S    
C13   C14   1.407258 A    
O15   C43   1.418068 S    
C47   C48   1.527129 S    
C7    C9    1.403807 A    
C51   H33   1.110029 S    
N3    C35   1.192354 T    
C53   C54   1.522911 S    
C16   O14   1.387757 S    
C39   H5    1.110849 S    
Zn1   N4    1.960652 S    
C1    C31   1.385972 S    
Zn2   N3    1.960653 S    
C24   C28   1.414740 A    
C6    N2    1.362186 A    
C52   C53   1.525745 S    
C41   C42   1.527208 S    
C47   H25   1.111203 S    
C7    O11   1.349092 S    
C45   H19   1.110868 S    
C46   C47   1.532219 S    
C3    C27   1.474027 S    
C8    O12   1.349427 S    
C51   H35   1.110995 S    
C54   H40   1.110330 S    
C57   H48   1.110624 S    
O19   C55   1.420766 S    
C42   H14   1.111106 S    
O1    Zn1   1.949204 S    
C18   O16   1.387644 S    
C19   C29   1.397625 A    
C44   C45   1.526637 S    
C56   H45   1.110064 S    
C60   H55   1.109495 S    
C9    C13   1.416908 A    
C38   C39   1.526629 S    
C55   H44   1.116054 S    
C39   H7    1.110966 S    
C8    C10   1.402773 A    
C12   C14   1.414135 A    
O20   C58   1.418345 S    
C48   H27   1.110369 S    
C5    O9    1.349546 S    
C6    O10   1.349746 S    
C58   H50   1.111208 S    
C15   O13   1.388622 S    
C37   C38   1.531954 S    
C50   C51   1.525417 S    
C40   C41   1.532033 S    
C22   Br4   1.927063 S    
C21   Br3   1.927674 S    
C43   C44   1.532165 S    
C50   H32   1.110875 S    
C57   H49   1.110237 S    
C5    C11   1.402129 A    
C47   H24   1.111333 S    
C7    N1    1.362305 A    
C37   H2    1.113935 S    
C8    N2    1.361234 A    
C11   C13   1.415538 A    
O4    Zn2   1.943899 S    
O2    Zn2   1.949203 S    
O7    C4    1.275597 A    
C53   H39   1.111771 S    
C22   C30   1.398853 A    
O8    C3    1.276536 A    
O5    Zn1   2.003212 S    
C17   O15   1.388704 S    
O16   C46   1.417810 S    
C4    C28   1.469693 S    
C33   C34   1.365428 S    
C10   C14   1.415412 A    
O17   C49   1.420305 S    
C23   O17   1.386833 S    
C45   H20   1.110364 S    
C41   H11   1.111222 S    
C40   H9    1.114506 S    
C46   H22   1.109520 S    
C21   C29   1.397308 A    
C49   C50   1.530780 S    
C52   H36   1.112762 S    
C56   H46   1.111184 S    
