data_mof_unit_25742.cif
_audit_creation_date              2012-10-26T17:11:31-0400
_audit_creation_method            fapswitch 2.2
_symmetry_space_group_name_H-M    P1
_symmetry_Int_Tables_number       1
_space_group_crystal_system       triclinic
_cell_length_a                    28.019021
_cell_length_b                    18.732967
_cell_length_c                    16.854262
_cell_angle_alpha                 90.000352
_cell_angle_beta                  62.53431
_cell_angle_gamma                 90.000695
_cell_volume                      7849.34597657

loop_
_atom_site_label
_atom_site_type_symbol
_atom_type_description
_atom_site_fract_x
_atom_site_fract_y
_atom_site_fract_z
_atom_type_partial_charge
C1    C     C_R   0.295001 0.728277 0.329666 0.548705
C2    C     C_R   0.589551 0.000023 0.536191 0.009745
C3    C     C_R   0.690444 0.713706 0.903957 0.010573
C4    C     C_R   0.926526 0.903084 0.066592 0.552994
C5    C     C_R   0.073502 0.096883 0.933404 0.553274
C6    C     C_R   0.073475 0.903087 0.933406 0.552989
C7    C     C_R   0.926497 0.096883 0.066596 0.553275
C8    C     C_R   0.426525 0.403086 0.066593 0.552997
C9    C     C_R   0.573499 0.596890 0.933408 0.553261
C10   C     C_R   0.573476 0.403088 0.933406 0.553007
C11   C     C_R   0.426497 0.596882 0.066597 0.553260
C12   C     C_R   0.041424 0.629375 0.524945 0.012665
C13   C     C_R   0.910453 0.500024 0.463792 0.009754
C14   C     C_R   0.958583 0.370683 0.475018 0.014636
C15   C     C_R   0.958595 0.629376 0.474987 0.012644
C16   C     C_R   0.041430 0.370683 0.524921 0.014631
C17   C     C_R   0.541411 0.129375 0.524995 0.012618
C18   C     C_R   0.458575 0.870684 0.475051 0.014645
C19   C     C_R   0.458582 0.129377 0.475037 0.012623
C20   C     C_R   0.541423 0.870683 0.524953 0.014630
C21   C     C_R   0.019980 0.694075 0.513771 -0.138561
C22   C     C_R   0.980028 0.305986 0.486184 -0.121884
C23   C     C_R   0.980045 0.694075 0.486152 -0.138597
C24   C     C_R   0.089558 0.500023 0.536160 0.009747
C25   C     C_R   0.019984 0.305986 0.513752 -0.121889
C26   C     C_R   0.519963 0.194075 0.513830 -0.138643
C27   C     C_R   0.480021 0.805987 0.486215 -0.121881
C28   C     C_R   0.480028 0.194075 0.486211 -0.138633
C29   C     C_R   0.519977 0.805986 0.513782 -0.121890
C30   C     C_R   0.978485 0.564618 0.489103 0.023488
C31   C     C_R   0.021535 0.435443 0.510823 0.023042
C32   C     C_R   0.021534 0.564618 0.510828 0.023482
C33   C     C_R   0.978481 0.435443 0.489113 0.023041
C34   C     C_R   0.478472 0.064618 0.489150 0.023455
C35   C     C_R   0.582984 0.871220 0.548677 -0.111418
C36   C     C_R   0.521525 0.935443 0.510861 0.023038
C37   C     C_R   0.521521 0.064618 0.510875 0.023456
C38   C     C_R   0.478471 0.935444 0.489151 0.023041
C39   C     C_R   0.456236 0.000030 0.479411 0.003440
C40   C     C_R   0.543759 0.000029 0.520606 0.003436
C41   C     C_R   0.956246 0.500029 0.479372 0.003446
C42   C     C_R   0.043769 0.500028 0.520566 0.003448
C43   C     C_R   0.387730 0.934436 0.456407 -0.047776
C44   C     C_R   0.612261 0.065604 0.543627 -0.046885
C45   C     C_R   0.612269 0.934434 0.543599 -0.047774
C46   C     C_R   0.417024 0.128829 0.451298 -0.113779
C47   C     C_R   0.387735 0.065606 0.456389 -0.046884
C48   C     C_R   0.887734 0.434435 0.456383 -0.047771
C49   C     C_R   0.112267 0.565604 0.543600 -0.046896
C50   C     C_R   0.112273 0.434434 0.543577 -0.047769
C51   C     C_R   0.887741 0.565605 0.456363 -0.046872
C52   C     C_R   0.337151 0.934456 0.454203 -0.023172
C53   C     C_R   0.662844 0.065563 0.545821 -0.022790
C54   C     C_R   0.662849 0.934455 0.545800 -0.023182
C55   C     C_R   0.337155 0.065564 0.454186 -0.022791
C56   C     C_R   0.837152 0.434455 0.454191 -0.023182
C57   C     C_R   0.417015 0.871222 0.451325 -0.111392
C58   C     C_R   0.162846 0.565563 0.545808 -0.022784
C59   C     C_R   0.162850 0.434455 0.545791 -0.023186
C60   C     C_R   0.837156 0.565564 0.454176 -0.022780
C61   C     C_R   0.315103 0.000007 0.445639 0.224135
C62   C     C_R   0.684897 0.000007 0.554364 0.224126
C63   C     C_R   0.815102 0.500007 0.445634 0.224123
C64   C     C_R   0.184896 0.500007 0.554358 0.224130
C65   C     C_3   0.285805 0.999981 0.340929 -0.088756
C66   C     C_3   0.714201 0.999966 0.659068 -0.088744
C67   C     C_3   0.785789 0.499956 0.340942 -0.088717
C68   C     C_R   0.582971 0.128826 0.548729 -0.113789
C69   C     C_3   0.214189 0.499955 0.659074 -0.088748
C70   C     C_3   0.109937 0.745531 0.165556 -0.130987
C71   C     C_3   0.867276 0.348986 0.937712 -0.115121
C72   C     C_3   0.890101 0.746380 0.835294 -0.130617
C73   C     C_3   0.132761 0.349008 0.062206 -0.115165
C74   C     C_3   0.609930 0.245915 0.165404 -0.130908
C75   C     C_3   0.367273 0.848969 0.937712 -0.115166
C76   C     C_3   0.390072 0.245621 0.834489 -0.130930
C77   C     C_3   0.632877 0.849365 0.061936 -0.115153
C78   C     C_R   0.082989 0.371220 0.548651 -0.111406
C79   C     C_R   0.917032 0.628827 0.451261 -0.113781
C80   C     C_R   0.917020 0.371221 0.451298 -0.111412
C81   C     C_R   0.704935 0.271589 0.670387 0.548623
C82   C     C_R   0.082979 0.628826 0.548690 -0.113768
C83   C     C_R   0.219695 0.765484 0.954488 -0.006717
C84   C     C_R   0.779061 0.232951 0.046995 -0.014419
C85   C     C_R   0.780267 0.765553 0.045546 -0.006973
C86   C     C_R   0.220946 0.232938 0.952998 -0.014396
C87   C     C_R   0.719702 0.265493 0.954480 -0.006790
C88   C     C_R   0.279054 0.732936 0.047001 -0.014374
C89   C     C_R   0.280303 0.265480 0.045516 -0.006758
C90   C     C_R   0.720920 0.732997 0.953017 -0.014519
C91   C     C_R   0.275288 0.778465 0.915102 -0.147442
C92   C     C_R   0.705000 0.728273 0.670333 0.548708
C93   C     C_R   0.723554 0.219438 0.086275 -0.153800
C94   C     C_R   0.724702 0.778720 0.084827 -0.147493
C95   C     C_R   0.276451 0.219411 0.913725 -0.153876
C96   C     C_R   0.775295 0.278475 0.915093 -0.147431
C97   C     C_R   0.223548 0.719421 0.086280 -0.153896
C98   C     C_R   0.224711 0.278475 0.084895 -0.147440
C99   C     C_R   0.776397 0.719308 0.913852 -0.153559
C100  C     C_R   0.304844 0.763830 0.961236 0.270703
C101  C     C_R   0.693167 0.236905 0.041625 0.278431
C102  C     C_R   0.695152 0.764070 0.038677 0.270742
C103  C     C_R   0.295064 0.271589 0.329613 0.548622
C104  C     C_R   0.306841 0.236878 0.958377 0.278440
C105  C     C_R   0.804852 0.263843 0.961229 0.270688
C106  C     C_R   0.193156 0.736891 0.041631 0.278462
C107  C     C_R   0.195157 0.263845 0.038755 0.270706
C108  C     C_R   0.806770 0.736772 0.958510 0.278370
C109  C     C_R   0.144053 0.828715 0.944369 -0.074601
C110  C     C_R   0.855385 0.170449 0.056006 -0.073728
C111  C     C_R   0.855931 0.828735 0.055640 -0.074839
C112  C     C_R   0.144618 0.170445 0.943992 -0.073721
C113  C     C_R   0.644060 0.328726 0.944363 -0.074635
C114  C     C_R   0.795002 0.228277 0.329666 0.548695
C115  C     C_R   0.355380 0.670439 0.056010 -0.073726
C116  C     C_R   0.355945 0.328715 0.055631 -0.074616
C117  C     C_R   0.644592 0.670499 0.944020 -0.073658
C118  C     C_R   0.117611 0.851448 0.895370 -0.020525
C119  C     C_R   0.882184 0.148265 0.104710 -0.024733
C120  C     C_R   0.882386 0.851449 0.104627 -0.020397
C121  C     C_R   0.117817 0.148265 0.895290 -0.024729
C122  C     C_R   0.617614 0.351451 0.895369 -0.020489
C123  C     C_R   0.382182 0.648262 0.104711 -0.024728
C124  C     C_R   0.382388 0.351448 0.104629 -0.020507
C125  C     C_R   0.204935 0.771589 0.670387 0.548626
C126  C     C_R   0.617807 0.648284 0.895302 -0.024706
C127  C     C_R   0.136315 0.829240 0.807115 -0.138396
C128  C     C_R   0.863622 0.170674 0.192870 -0.138755
C129  C     C_R   0.863686 0.829232 0.192878 -0.138374
C130  C     C_R   0.136378 0.170675 0.807130 -0.138756
C131  C     C_R   0.636314 0.329238 0.807116 -0.138369
C132  C     C_R   0.363621 0.670674 0.192870 -0.138748
C133  C     C_R   0.363685 0.329240 0.192884 -0.138373
C134  C     C_R   0.636380 0.670674 0.807132 -0.138754
C135  C     C_R   0.182180 0.786858 0.766190 -0.016549
C136  C     C_R   0.204999 0.228277 0.670334 0.548701
C137  C     C_R   0.817556 0.212652 0.234023 -0.015425
C138  C     C_R   0.817808 0.786874 0.233815 -0.016556
C139  C     C_R   0.182445 0.212649 0.765976 -0.015430
C140  C     C_R   0.682180 0.286858 0.766190 -0.016548
C141  C     C_R   0.317555 0.712649 0.234024 -0.015424
C142  C     C_R   0.317819 0.286858 0.233810 -0.016551
C143  C     C_R   0.682446 0.712650 0.765977 -0.015420
C144  C     C_R   0.208455 0.763994 0.815466 -0.125424
C145  C     C_R   0.790830 0.234712 0.185202 -0.137901
C146  C     C_R   0.791511 0.764046 0.184556 -0.125259
C147  C     C_R   0.795061 0.771596 0.329614 0.548615
C148  C     C_R   0.209176 0.234704 0.814793 -0.137909
C149  C     C_R   0.708458 0.263997 0.815463 -0.125409
C150  C     C_R   0.290826 0.734704 0.185205 -0.137903
C151  C     C_R   0.291542 0.263994 0.184537 -0.125419
C152  C     C_R   0.709171 0.734715 0.814799 -0.137890
C153  C     C_R   0.196230 0.631826 0.528639 0.568165
C154  C     C_R   0.803769 0.368180 0.471365 0.567916
C155  C     C_R   0.803770 0.631826 0.471356 0.568175
C156  C     C_R   0.196232 0.368181 0.528629 0.567914
C157  C     C_R   0.696230 0.131826 0.528643 0.568158
C158  C     C_R   0.410446 0.000024 0.463823 0.009746
C159  C     C_R   0.303769 0.868180 0.471368 0.567936
C160  C     C_R   0.303770 0.131826 0.471359 0.568151
C161  C     C_R   0.696231 0.868180 0.528632 0.567919
C162  C     C_R   0.189541 0.784792 0.904800 0.026603
C163  C     C_R   0.809541 0.213672 0.096056 0.010489
C164  C     C_R   0.810429 0.784838 0.095223 0.026627
C165  C     C_R   0.190465 0.213664 0.903938 0.010495
C166  C     C_R   0.689547 0.284799 0.904795 0.026590
C167  C     C_R   0.309535 0.713660 0.096061 0.010490
C168  C     C_R   0.310456 0.284790 0.095203 0.026595
Cu1   Cu    Cu3+1 0.209920 0.785290 0.495070 0.929082
Cu2   Cu    Cu3+1 0.504760 0.500000 0.075850 0.930757
Cu3   Cu    Cu3+1 0.995240 1.000000 0.924150 0.930573
Cu4   Cu    Cu3+1 0.004760 1.000000 0.075850 0.930861
Cu5   Cu    Cu3+1 0.790080 0.214710 0.504930 0.939933
Cu6   Cu    Cu3+1 0.790080 0.785290 0.504930 0.929141
Cu7   Cu    Cu3+1 0.209920 0.214710 0.495070 0.939924
Cu8   Cu    Cu3+1 0.709920 0.285290 0.495070 0.929101
Cu9   Cu    Cu3+1 0.290080 0.714710 0.504930 0.939939
Cu10  Cu    Cu3+1 0.290080 0.285290 0.504930 0.929090
Cu11  Cu    Cu3+1 0.709920 0.714710 0.495070 0.939935
Cu12  Cu    Cu3+1 0.495240 0.500000 0.924150 0.930844
H1    H     H_    0.535207 0.755414 0.523780 0.107613
H2    H     H_    0.410016 0.178437 0.426232 0.147322
H3    H     H_    0.410006 0.821612 0.426263 0.149273
H4    H     H_    0.589981 0.178433 0.573797 0.147310
H5    H     H_    0.089995 0.321608 0.573712 0.149270
H6    H     H_    0.910019 0.678436 0.426199 0.147301
H7    H     H_    0.910008 0.321610 0.426241 0.149261
H8    H     H_    0.089985 0.678434 0.573763 0.147315
H9    H     H_    0.295796 0.801527 0.848764 0.130924
H10   H     H_    0.704313 0.193437 0.150855 0.118113
H11   H     H_    0.704216 0.801915 0.151089 0.130935
H12   H     H_    0.464810 0.244647 0.476187 0.100996
H13   H     H_    0.295687 0.193407 0.849147 0.118012
H14   H     H_    0.795804 0.301535 0.848754 0.130947
H15   H     H_    0.204315 0.693422 0.150861 0.117958
H16   H     H_    0.204204 0.301549 0.151227 0.130934
H17   H     H_    0.795628 0.693155 0.849373 0.118522
H18   H     H_    0.130702 0.847425 0.012134 0.147972
H19   H     H_    0.868737 0.151908 0.988156 0.168673
H20   H     H_    0.869273 0.847452 0.987882 0.147058
H21   H     H_    0.131266 0.151905 0.011841 0.168659
H22   H     H_    0.630715 0.347446 0.012125 0.147796
H23   H     H_    0.464793 0.755415 0.476211 0.107611
H24   H     H_    0.368731 0.651896 0.988162 0.168684
H25   H     H_    0.369295 0.347425 0.987863 0.147908
H26   H     H_    0.631224 0.651994 0.011888 0.168499
H27   H     H_    0.116448 0.847563 0.768884 0.156172
H28   H     H_    0.883788 0.152866 0.230842 0.158370
H29   H     H_    0.883567 0.847532 0.231098 0.156172
H30   H     H_    0.116209 0.152870 0.769161 0.158372
H31   H     H_    0.616444 0.347556 0.768888 0.156187
H32   H     H_    0.383790 0.652869 0.230840 0.158371
H33   H     H_    0.383553 0.347561 0.231114 0.156188
H34   H     H_    0.535180 0.244646 0.523861 0.100999
H35   H     H_    0.616220 0.652852 0.769154 0.158372
H36   H     H_    0.309331 0.048797 0.308196 0.106337
H37   H     H_    0.249386 0.999889 0.330855 0.138327
H38   H     H_    0.309432 0.951237 0.308176 0.102075
H39   H     H_    0.690620 0.048747 0.691842 0.106256
H40   H     H_    0.750629 0.999949 0.669136 0.138314
H41   H     H_    0.690621 0.951173 0.691788 0.102128
H42   H     H_    0.749357 0.499980 0.330884 0.138337
H43   H     H_    0.809340 0.451136 0.308235 0.102165
H44   H     H_    0.809398 0.548714 0.308149 0.106255
H45   H     H_    0.035213 0.255414 0.523754 0.107614
H46   H     H_    0.250612 0.500001 0.669150 0.138333
H47   H     H_    0.190652 0.451127 0.691764 0.102182
H48   H     H_    0.190566 0.548699 0.691870 0.106214
H49   H     H_    0.122928 0.800096 0.173691 0.097278
H50   H     H_    0.112986 0.707802 0.213820 0.125182
H51   H     H_    0.066820 0.748994 0.182122 0.146461
H52   H     H_    0.850603 0.359194 0.010770 0.117859
H53   H     H_    0.849402 0.386579 0.907581 0.117125
H54   H     H_    0.911124 0.359732 0.906506 0.146994
H55   H     H_    0.877544 0.801628 0.828643 0.097022
H56   H     H_    0.964828 0.744646 0.476124 0.100992
H57   H     H_    0.886716 0.710069 0.786013 0.124314
H58   H     H_    0.933253 0.748761 0.818756 0.146749
H59   H     H_    0.149444 0.359189 0.989138 0.117832
H60   H     H_    0.150644 0.386609 0.092322 0.117041
H61   H     H_    0.088916 0.359772 0.093391 0.146977
H62   H     H_    0.622869 0.300649 0.173119 0.097175
H63   H     H_    0.613019 0.208531 0.213976 0.124985
H64   H     H_    0.566806 0.249182 0.181948 0.146526
H65   H     H_    0.350606 0.859176 0.010771 0.117854
H66   H     H_    0.349395 0.886565 0.907587 0.117037
H67   H     H_    0.964798 0.255415 0.476184 0.107617
H68   H     H_    0.411122 0.859710 0.906496 0.146979
H69   H     H_    0.377082 0.300237 0.826460 0.097222
H70   H     H_    0.387028 0.207966 0.786133 0.125156
H71   H     H_    0.433195 0.249053 0.817948 0.146472
H72   H     H_    0.649629 0.859511 0.988864 0.117778
H73   H     H_    0.650747 0.886921 0.092098 0.117068
H74   H     H_    0.589048 0.860222 0.093004 0.146976
H75   H     H_    0.244281 0.731237 0.784114 0.131102
H76   H     H_    0.754822 0.267118 0.216736 0.124207
H77   H     H_    0.755668 0.731321 0.215916 0.131158
H78   H     H_    0.035198 0.744646 0.523797 0.100983
H79   H     H_    0.245186 0.267107 0.783257 0.124206
H80   H     H_    0.744283 0.231240 0.784111 0.131099
H81   H     H_    0.254817 0.767109 0.216739 0.124209
H82   H     H_    0.255716 0.231238 0.215889 0.131105
H83   H     H_    0.745187 0.767106 0.783262 0.124215
H84   H     H_    0.589994 0.821607 0.573732 0.149268
O1    O     O_R   0.255040 0.869590 0.478480 -0.442109
O2    O     O_R   0.817950 0.203450 0.375560 -0.514586
O3    O     O_R   0.817950 0.796550 0.375560 -0.515855
O4    O     O_R   0.182050 0.203450 0.624440 -0.514580
O5    O     O_R   0.682050 0.296550 0.624440 -0.515853
O6    O     O_R   0.317950 0.703450 0.375560 -0.514585
O7    O     O_R   0.317950 0.296550 0.375560 -0.515854
O8    O     O_R   0.682050 0.703450 0.624440 -0.514588
O9    O     O_R   0.250530 0.763330 0.367210 -0.520162
O10   O     O_R   0.749470 0.236670 0.632790 -0.517224
O11   O     O_R   0.749470 0.763330 0.632790 -0.520152
O12   O     O_R   0.744960 0.130410 0.521520 -0.441605
O13   O     O_R   0.250530 0.236670 0.367210 -0.517229
O14   O     O_R   0.750530 0.263330 0.367210 -0.520166
O15   O     O_R   0.249470 0.736670 0.632790 -0.517218
O16   O     O_R   0.249470 0.263330 0.632790 -0.520168
O17   O     O_R   0.750530 0.736670 0.367210 -0.517231
O18   O     O_R   0.177260 0.690030 0.513710 -0.539107
O19   O     O_R   0.822740 0.309970 0.486290 -0.537733
O20   O     O_R   0.822740 0.690030 0.486290 -0.539075
O21   O     O_R   0.177260 0.309970 0.513710 -0.537745
O22   O     O_R   0.677260 0.190030 0.513710 -0.539084
O23   O     O_R   0.744960 0.869590 0.521520 -0.442126
O24   O     O_R   0.322740 0.809970 0.486290 -0.537747
O25   O     O_R   0.322740 0.190030 0.486290 -0.539093
O26   O     O_R   0.677260 0.809970 0.513710 -0.537748
O27   O     O_R   0.051640 0.926880 0.885090 -0.510955
O28   O     O_R   0.948360 0.073120 0.114910 -0.508045
O29   O     O_R   0.948360 0.926880 0.114910 -0.510890
O30   O     O_R   0.051640 0.073120 0.885090 -0.508042
O31   O     O_R   0.551640 0.426880 0.885090 -0.510906
O32   O     O_R   0.448360 0.573120 0.114910 -0.508061
O33   O     O_R   0.448360 0.426880 0.114910 -0.510919
O34   O     O_R   0.255040 0.130410 0.478480 -0.441616
O35   O     O_R   0.551640 0.573120 0.885090 -0.508052
O36   O     O_R   0.940620 0.926560 0.986760 -0.517768
O37   O     O_R   0.059380 0.073440 0.013240 -0.512540
O38   O     O_R   0.059380 0.926560 0.013240 -0.517629
O39   O     O_R   0.940620 0.073440 0.986760 -0.512547
O40   O     O_R   0.440620 0.426560 0.986760 -0.517650
O41   O     O_R   0.559380 0.573440 0.013240 -0.512559
O42   O     O_R   0.559380 0.426560 0.013240 -0.517671
O43   O     O_R   0.440620 0.573440 0.986760 -0.512547
O44   O     O_3   0.269476 0.000001 0.433611 -0.520631
O45   O     O_R   0.755040 0.369590 0.478480 -0.442129
O46   O     O_3   0.730528 0.000003 0.566384 -0.520614
O47   O     O_3   0.769468 0.500004 0.433623 -0.520624
O48   O     O_3   0.230522 0.500005 0.566391 -0.520628
O49   O     O_3   0.138924 0.719694 0.077234 -0.558495
O50   O     O_3   0.859473 0.277422 0.920594 -0.568519
O51   O     O_3   0.860934 0.719279 0.922978 -0.558065
O52   O     O_3   0.140541 0.277449 0.079374 -0.568492
O53   O     O_3   0.638938 0.219685 0.077255 -0.558371
O54   O     O_3   0.359466 0.777404 0.920599 -0.568505
O55   O     O_3   0.361077 0.219669 0.922764 -0.558433
O56   O     O_R   0.244960 0.630410 0.521520 -0.441595
O57   O     O_3   0.640554 0.777795 0.079202 -0.568394
O58   O     O_R   0.244960 0.369590 0.521520 -0.442130
O59   O     O_R   0.755040 0.630410 0.478480 -0.441603
O60   O     O_R   0.182050 0.796550 0.624440 -0.515864

loop_
_geom_bond_atom_site_label_1
_geom_bond_atom_site_label_2
_ccdc_geom_bond_type
C8    O40   A    
C31   C42   A    
C43   C158  A    
C76   H70   S    
Cu9   O6    S    
C14   C33   A    
C19   C46   A    
C93   H10   S    
C16   C31   A    
C124  C133  A    
C50   C59   A    
C73   H59   S    
C52   C61   A    
Cu2   O41   S    
C10   O42   A    
C28   H12   S    
C71   H54   S    
C127  H27   S    
C131  C140  A    
C134  C143  A    
C13   C51   A    
C44   C53   A    
C113  C122  A    
C141  C150  A    
C91   C100  A    
C74   O53   S    
C117  C126  A    
C88   C97   A    
C74   H64   S    
C119  C128  A    
C125  C135  S    
Cu12  O43   S    
Cu10  O25   S    
C58   C64   A    
C148  C165  A    
C86   C165  S    
Cu5   O2    S    
C109  C118  A    
Cu4   O29   S    
C144  H75   S    
C115  C123  A    
C7    C119  S    
C56   C154  S    
C117  H26   S    
C93   C101  A    
C113  C166  A    
Cu11  O8    S    
C134  H35   S    
C34   C39   A    
C35   H84   S    
Cu7   O4    S    
C149  H80   S    
C66   H39   S    
C58   C153  S    
C7    O28   A    
C73   H61   S    
C84   C105  A    
C67   H43   S    
C152  H83   S    
C55   C160  S    
Cu12  O31   S    
C69   O48   S    
C129  H29   S    
C35   C45   A    
C83   C91   A    
Cu10  O7    S    
C15   C30   A    
C16   C25   A    
C68   H4    S    
C10   C122  S    
C105  O50   S    
Cu3   O36   S    
C72   H55   S    
C72   O51   S    
C157  O22   A    
Cu4   O28   S    
Cu12  O40   S    
C108  O51   S    
C97   H15   S    
C18   C38   A    
C60   C155  S    
C5    O30   A    
C65   H37   S    
C112  C165  A    
C25   H45   S    
C84   C93   A    
C86   C95   A    
C150  H81   S    
C74   H62   S    
C2    C40   A    
C126  C134  A    
C85   C164  S    
C77   O57   S    
C72   H57   S    
C116  C168  A    
C4    O36   A    
C70   O49   S    
C5    O37   A    
C75   H68   S    
Cu6   O3    S    
C7    O39   A    
C81   C140  S    
C123  C132  A    
C27   C29   A    
C121  C130  A    
C69   H46   S    
C157  O12   A    
C99   C108  A    
C91   H9    S    
C133  C142  A    
C3    C90   S    
C27   H23   S    
C37   C40   A    
C114  O2    A    
C38   C39   A    
C43   C52   A    
C114  C137  S    
C155  O59   A    
Cu6   O23   S    
C81   O10   A    
Cu7   O21   S    
C70   H51   S    
C90   C102  A    
C109  H18   S    
C151  H82   S    
C87   C101  A    
C20   C35   A    
Cu3   O39   S    
C15   C79   A    
C2    C44   A    
C22   C25   A    
C145  H76   S    
C3    C117  A    
Cu1   Cu9   S    
C156  O21   A    
Cu8   O5    S    
C2    C45   A    
C24   C50   A    
C139  C148  A    
C11   O43   A    
C149  C166  A    
C120  C129  A    
C77   H73   S    
C4    O29   A    
Cu9   O56   S    
C145  C163  A    
C146  C164  A    
C82   H8    S    
C103  O7    A    
Cu8   O14   S    
C111  H20   S    
C98   H16   S    
C77   H72   S    
C19   C28   A    
C75   H66   S    
C94   C102  A    
C84   C163  S    
C83   C162  S    
C39   C158  A    
C131  H31   S    
Cu8   O45   S    
C118  C127  A    
C69   H48   S    
C90   C99   A    
Cu3   O30   S    
C132  C141  A    
C125  O60   A    
C153  O18   A    
C104  O55   S    
C111  C164  A    
C153  O56   A    
C110  C119  A    
C59   C156  S    
Cu5   O19   S    
C62   O46   S    
Cu6   O20   S    
Cu1   O1    S    
C159  O24   A    
C89   C98   A    
C136  O4    A    
C46   H2    S    
C70   H49   S    
C112  C121  A    
Cu11  O59   S    
C138  C146  A    
C55   C61   A    
Cu12  O35   S    
C71   H53   S    
C54   C161  S    
C51   C79   A    
C130  H30   S    
C43   C57   A    
Cu5   O10   S    
Cu4   O37   S    
C51   C60   A    
C140  C149  A    
C106  O49   S    
C96   C105  A    
C79   H6    S    
C34   C37   A    
C24   C42   A    
C122  C131  A    
C13   C41   A    
C66   O46   S    
C76   O55   S    
C3    C152  A    
C137  C145  A    
C136  O16   A    
C127  C135  A    
C109  C162  A    
C66   H41   S    
C92   O8    A    
C76   H69   S    
Cu11  O26   S    
C92   C143  S    
C94   H11   S    
C66   H40   S    
C6    O38   A    
C85   C108  A    
C96   H14   S    
C154  O19   A    
C112  H21   S    
C136  C139  S    
C130  C139  A    
C50   C78   A    
Cu7   Cu10  S    
C101  O53   S    
C77   H74   S    
C73   O52   S    
Cu1   O9    S    
C73   H60   S    
C8    C124  S    
C54   C62   A    
C98   C107  A    
C89   C168  S    
C65   O44   S    
Cu5   O12   S    
C18   C57   A    
Cu6   O11   S    
C88   C167  S    
C115  H24   S    
C81   O5    A    
C78   H5    S    
C113  H22   S    
C92   O11   A    
C88   C100  A    
C74   H63   S    
C143  C152  A    
Cu1   O60   S    
C21   C23   A    
C72   H58   S    
C148  H79   S    
C75   O54   S    
C6    O27   A    
C46   C47   A    
Cu11  O17   S    
C17   C68   A    
C116  C124  A    
C26   C28   A    
C11   C123  S    
Cu7   O13   S    
C110  C163  A    
C83   C106  A    
C26   H34   S    
C33   C41   A    
C36   C38   A    
C14   C22   A    
C22   H67   S    
C150  C167  A    
C67   H44   S    
C9    O35   A    
C1    C141  S    
C71   O50   S    
C20   C36   A    
C9    O41   A    
C8    O33   A    
C32   C42   A    
C76   H71   S    
C100  O54   S    
C49   C82   A    
Cu3   Cu4   S    
C86   C107  A    
C132  H32   S    
C160  O25   A    
C59   C64   A    
C29   H1    S    
C60   C63   A    
C17   C26   A    
Cu2   O42   S    
C65   H38   S    
C147  O17   A    
C21   H78   S    
C87   C166  S    
C151  C168  A    
C5    C121  S    
Cu7   O34   S    
Cu1   O18   S    
C155  O20   A    
C160  O34   A    
C107  O52   S    
C129  C138  A    
C71   H52   S    
C31   C33   A    
C14   C80   A    
C1    O9    A    
C116  H25   S    
C75   H65   S    
C52   C159  S    
C15   C23   A    
C95   H13   S    
C12   C32   A    
C69   H47   S    
Cu2   O32   S    
C20   C29   A    
C11   O32   A    
C102  O57   S    
C36   C40   A    
C128  H28   S    
C65   H36   S    
C147  O3    A    
Cu9   O15   S    
C1    O6    A    
C125  O15   A    
C12   C21   A    
C49   C58   A    
Cu2   Cu12  S    
C111  C120  A    
C67   H42   S    
C128  C137  A    
C70   H50   S    
Cu2   O33   S    
C85   C94   A    
C138  C147  S    
C87   C96   A    
C99   H17   S    
C56   C63   A    
C12   C82   A    
C30   C41   A    
C17   C37   A    
C23   H56   S    
C135  C144  A    
Cu4   O38   S    
C45   C54   A    
C89   C104  A    
C44   C68   A    
C63   O47   S    
C103  O13   A    
C115  C167  A    
C64   O48   S    
C103  C142  S    
C57   H3    S    
C95   C104  A    
C61   O44   S    
C47   C55   A    
Cu5   Cu8   S    
C24   C49   A    
C48   C56   A    
C144  C162  A    
C110  H19   S    
C18   C27   A    
C19   C34   A    
C13   C48   A    
C156  O58   A    
Cu9   O24   S    
C159  O1    A    
C142  C151  A    
C53   C157  S    
C9    C126  S    
C133  H33   S    
C48   C80   A    
C161  O26   A    
C30   C32   A    
Cu10  O58   S    
C67   O47   S    
C80   H7    S    
C16   C78   A    
C114  O14   A    
C154  O45   A    
Cu10  O16   S    
C53   C62   A    
C4    C120  S    
C146  H77   S    
Cu8   O22   S    
Cu6   Cu11  S    
C6    C118  S    
C161  O23   A    
Cu3   O27   S    
C10   O31   A    
C47   C158  A    
C97   C106  A    
