data_mof_unit_68394.cif
_audit_creation_date              2012-10-26T19:39:32-0400
_audit_creation_method            fapswitch 2.2
_symmetry_space_group_name_H-M    P1
_symmetry_Int_Tables_number       1
_space_group_crystal_system       triclinic
_cell_length_a                    11.067888
_cell_length_b                    8.837671
_cell_length_c                    7.709895
_cell_angle_alpha                 104.635698
_cell_angle_beta                  95.451791
_cell_angle_gamma                 102.990144
_cell_volume                      701.717694403

loop_
_atom_site_label
_atom_site_type_symbol
_atom_type_description
_atom_site_fract_x
_atom_site_fract_y
_atom_site_fract_z
_atom_type_partial_charge
C1    C     C_R   0.496284 0.199268 0.451388 0.517025
C2    C     C_2   0.494463 0.029566 0.427230 -0.147691
C3    C     C_R   0.100497 0.518854 0.703785 0.045652
C4    C     C_R   0.012120 0.403784 0.755647 -0.076629
C5    C     C_R   0.970588 0.446547 0.922321 -0.101686
C6    C     C_R   0.022311 0.600650 0.042734 -0.096638
C7    C     C_R   0.118542 0.709732 0.999647 -0.108989
C8    C     C_R   0.156051 0.670793 0.829642 -0.071814
C9    C     C_R   0.350424 0.317114 0.947115 0.205815
C10   C     C_R   0.278315 0.231058 0.054019 -0.069461
C11   C     C_R   0.164496 0.112607 0.989462 -0.175839
C12   C     C_2   0.505071 0.970272 0.572692 -0.151106
C13   C     C_R   0.117172 0.058344 0.807401 -0.122372
C14   C     C_R   0.183854 0.124632 0.691681 -0.171239
C15   C     C_R   0.294980 0.248536 0.759029 -0.065650
C16   C     C_R   0.646455 0.687492 0.053274 0.198723
C17   C     C_R   0.714991 0.778657 0.947088 -0.062333
C18   C     C_R   0.816683 0.915431 0.015409 -0.164831
C19   C     C_R   0.862238 0.971748 0.197971 -0.121667
C20   C     C_R   0.804995 0.891432 0.310913 -0.170471
C21   C     C_R   0.701743 0.756237 0.241362 -0.073702
C22   C     C_R   0.265262 0.496071 0.500583 0.514894
C23   C     C_R   0.503545 0.800665 0.548583 0.514759
C24   C     C_R   0.733691 0.503330 0.500293 0.523581
C25   C     C_2   0.907872 0.419511 0.371155 -0.171275
C26   C     C_2   0.866438 0.521779 0.498274 -0.101908
C27   C     C_2   0.042942 0.428925 0.366789 -0.196376
C28   C     C_2   0.132070 0.484194 0.515315 -0.021671
Cu1   Cu    Cu3+1 0.513740 0.517380 0.684380 0.902527
Cu2   Cu    Cu3+1 0.486260 0.482620 0.315620 0.903202
H1    H     H_    0.840589 0.325921 0.264182 0.150595
H2    H     H_    0.514930 0.046590 0.710615 0.140927
H3    H     H_    0.301193 0.244904 0.192295 0.176674
H4    H     H_    0.113932 0.060919 0.082861 0.093743
H5    H     H_    0.030922 0.963637 0.755690 0.106938
H6    H     H_    0.148286 0.080890 0.547032 0.091177
H7    H     H_    0.323874 0.275014 0.645669 0.180844
H8    H     H_    0.698882 0.755164 0.806466 0.177189
H9    H     H_    0.860438 0.977965 0.924423 0.095076
H10   H     H_    0.941228 0.076695 0.251899 0.111392
H11   H     H_    0.840390 0.935229 0.455612 0.089480
H12   H     H_    0.929014 0.624715 0.599162 0.104837
H13   H     H_    0.676943 0.723363 0.353452 0.182841
H14   H     H_    0.069380 0.382929 0.235584 0.146191
H15   H     H_    0.970342 0.284571 0.662799 0.113208
H16   H     H_    0.897770 0.360520 0.957416 0.112885
H17   H     H_    0.989096 0.635593 0.170576 0.135320
H18   H     H_    0.162652 0.825321 0.097320 0.106316
H19   H     H_    0.226252 0.760184 0.794478 0.134820
H20   H     H_    0.484517 0.953223 0.289290 0.143337
N1    N     N_2   0.465540 0.456420 0.038510 -0.149152
N2    N     N_2   0.534460 0.543580 0.961490 -0.150380
O1    O     O_R   0.508930 0.286130 0.619780 -0.522298
O2    O     O_R   0.485720 0.256780 0.308360 -0.526528
O3    O     O_R   0.333540 0.514670 0.655670 -0.518943
O4    O     O_R   0.310330 0.485320 0.344250 -0.522176
O5    O     O_R   0.514280 0.743220 0.691640 -0.528925
O6    O     O_R   0.491070 0.713870 0.380220 -0.518183
O7    O     O_R   0.689670 0.514680 0.655750 -0.520532
O8    O     O_R   0.666460 0.485330 0.344330 -0.519502

loop_
_geom_bond_atom_site_label_1
_geom_bond_atom_site_label_2
_ccdc_geom_bond_type
C25   H1    S    
C23   O6    A    
C16   N2    S    
C18   H9    S    
C16   C21   A    
C6    C7    A    
C25   C27   S    
Cu1   Cu2   S    
C11   C13   A    
C9    C10   A    
C1    C2    S    
C19   C20   A    
C9    N1    S    
C24   O8    A    
C2    C12   D    
C7    H18   S    
C20   C21   A    
C2    H20   S    
C20   H11   S    
C9    C15   A    
C7    C8    A    
C22   C28   S    
C13   C14   A    
C12   H2    S    
Cu2   O2    S    
C12   C23   S    
C22   O3    A    
Cu1   O1    S    
C1    O2    A    
C19   H10   S    
C27   H14   S    
Cu2   O6    S    
C3    C28   S    
Cu2   N1    S    
C24   C26   S    
C13   H5    S    
C10   H3    S    
C4    H15   S    
C24   O7    A    
C14   H6    S    
C5    C6    A    
C16   C17   A    
C10   C11   A    
N1    N2    D    
C6    H17   S    
C17   H8    S    
C26   H12   S    
C17   C18   A    
C3    C8    A    
C5    H16   S    
C27   C28   D    
C23   O5    A    
C1    O1    A    
C14   C15   A    
C18   C19   A    
C22   O4    A    
Cu1   O3    S    
C25   C26   D    
C21   H13   S    
Cu2   O4    S    
C8    H19   S    
C11   H4    S    
C15   H7    S    
C3    C4    A    
Cu1   O7    S    
Cu1   O5    S    
C4    C5    A    
Cu1   N2    S    
Cu2   O8    S    
