data_mof_unit_9060.cif
_audit_creation_date              2012-12-11T16:28:31-0500
_audit_creation_method            fapswitch 2.2
_symmetry_space_group_name_H-M    P1
_symmetry_Int_Tables_number       1
_space_group_crystal_system       triclinic
_cell_length_a                    16.601791
_cell_length_b                    7.253356
_cell_length_c                    15.16234
_cell_angle_alpha                 89.999835
_cell_angle_beta                  94.71903
_cell_angle_gamma                 89.999866
_cell_volume                      1819.63992978

loop_
_atom_site_label
_atom_site_type_symbol
_atom_type_description
_atom_site_fract_x
_atom_site_fract_y
_atom_site_fract_z
_atom_type_partial_charge
O1    O     O_R   0.663460 0.361760 0.165970 -0.531450
O2    O     O_R   0.336540 0.638240 0.834030 -0.532748
O3    O     O_R   0.836540 0.861760 0.334030 -0.532750
O4    O     O_R   0.163460 0.138240 0.665970 -0.531451
O5    O     O_R   0.827100 0.689870 0.163730 -0.533554
O6    O     O_R   0.172900 0.310130 0.836270 -0.530498
O7    O     O_R   0.672900 0.189870 0.336270 -0.530496
O8    O     O_R   0.327100 0.810130 0.663730 -0.533548
H1    H     H_    0.208191 0.098108 0.502706 0.116697
H2    H     H_    0.792489 0.888674 0.495574 0.118472
H3    H     H_    0.292490 0.611340 0.995571 0.118469
H4    H     H_    0.708191 0.401882 0.002707 0.116700
C1    C     C_R   0.853310 0.522953 0.143617 0.707554
C2    C     C_R   0.146819 0.477055 0.856537 0.709934
C3    C     C_R   0.646819 0.022945 0.356538 0.709933
C4    C     C_R   0.353310 0.977047 0.643616 0.707561
O9    O     O_R   0.663490 0.691370 0.155500 -0.536757
O10   O     O_R   0.336510 0.308630 0.844500 -0.534656
O11   O     O_R   0.836510 0.191370 0.344500 -0.534654
O12   O     O_R   0.163490 0.808630 0.655500 -0.536756
O13   O     O_R   0.671770 0.863320 0.325740 -0.536952
O14   O     O_R   0.328230 0.136680 0.674260 -0.535826
O15   O     O_R   0.828230 0.363320 0.174260 -0.535823
O16   O     O_R   0.171770 0.636680 0.825740 -0.536953
C5    C     C_R   0.636146 0.522985 0.133745 0.682548
C6    C     C_R   0.363596 0.477179 0.866529 0.682527
C7    C     C_R   0.863596 0.022820 0.366529 0.682524
C8    C     C_R   0.136146 0.977016 0.633745 0.682546
O17   O     O_3   0.752910 0.528800 0.305860 -0.372578
O18   O     O_3   0.247090 0.471200 0.694140 -0.374397
O19   O     O_3   0.747090 0.028800 0.194140 -0.374398
O20   O     O_3   0.252910 0.971200 0.805860 -0.372580
V1    V     V_3+5 0.749460 0.803010 0.239640 1.421631
V2    V     V_3+5 0.250540 0.196990 0.760360 1.431719
V3    V     V_3+5 0.750540 0.303010 0.260360 1.431725
V4    V     V_3+5 0.249460 0.696990 0.739640 1.421644
C9    C     C_1   0.469067 0.994776 0.530400 0.002611
C10   C     C_1   0.531476 0.005317 0.470265 -0.001277
C11   C     C_1   0.031476 0.494683 0.970265 -0.001295
C12   C     C_1   0.969067 0.505224 0.030400 0.002614
H5    H     H_    0.775320 0.753418 0.637731 0.127537
H6    H     H_    0.227561 0.207758 0.356006 0.130220
H7    H     H_    0.727560 0.292215 0.856015 0.130198
H8    H     H_    0.275323 0.746626 0.137721 0.127523
C13   C     C_R   0.024541 0.136200 0.329291 -0.221285
C14   C     C_R   0.976157 0.850255 0.668893 -0.217081
C15   C     C_R   0.476159 0.649776 0.168887 -0.217082
C16   C     C_R   0.524540 0.363775 0.829296 -0.221271
C17   C     C_R   0.101644 0.189640 0.307694 0.345388
C18   C     C_R   0.899723 0.788809 0.689125 0.349744
C19   C     C_R   0.399727 0.711237 0.189116 0.349751
C20   C     C_R   0.601643 0.310326 0.807698 0.345407
C21   C     C_R   0.166911 0.173862 0.371752 -0.132463
C22   C     C_R   0.834620 0.803284 0.624799 -0.130701
C23   C     C_R   0.334623 0.696752 0.124792 -0.130671
C24   C     C_R   0.666910 0.326113 0.871757 -0.132449
C25   C     C_R   0.155286 0.109529 0.456369 -0.210221
C26   C     C_R   0.845290 0.879155 0.542152 -0.201779
C27   C     C_R   0.345292 0.620864 0.042148 -0.201774
C28   C     C_R   0.655285 0.390456 0.956371 -0.210216
C29   C     C_R   0.077816 0.056889 0.479637 0.069110
C30   C     C_R   0.922147 0.939116 0.520095 0.069179
C31   C     C_R   0.422148 0.560894 0.020093 0.069178
C32   C     C_R   0.577816 0.443102 0.979639 0.069103
C33   C     C_R   0.011083 0.070192 0.414739 0.029778
C34   C     C_R   0.988935 0.925067 0.584889 0.030266
C35   C     C_R   0.488936 0.574947 0.084887 0.030268
C36   C     C_R   0.511082 0.429795 0.914742 0.029777
C37   C     C_R   0.066721 0.986188 0.565091 -0.142593
C38   C     C_R   0.932988 0.012829 0.435150 -0.142190
C39   C     C_R   0.432988 0.487169 0.935150 -0.142187
C40   C     C_R   0.566722 0.513814 0.065091 -0.142592
C41   C     C_1   0.416144 0.986163 0.581642 -0.199691
C42   C     C_1   0.584260 0.013873 0.418845 -0.199233
C43   C     C_1   0.084260 0.486127 0.918845 -0.199238
C44   C     C_1   0.916145 0.513837 0.081642 -0.199689
H9    H     H_    0.975431 0.145491 0.277979 0.109848
H10   H     H_    0.025430 0.838260 0.719850 0.111564
H11   H     H_    0.525433 0.661778 0.219843 0.111569
H12   H     H_    0.475429 0.354482 0.777984 0.109844
N1    N     N_2   0.113546 0.248813 0.219898 -0.517682
H13   H     H_    0.063862 0.233775 0.174919 0.256648
C45   C     C_3   0.153606 0.424610 0.211992 -0.547329
H14   H     H_    0.156899 0.458487 0.140933 0.201229
H15   H     H_    0.216357 0.418979 0.243096 0.200699
H16   H     H_    0.119357 0.535307 0.243149 0.194414
N2    N     N_2   0.890210 0.703261 0.772473 -0.516843
H17   H     H_    0.943396 0.680764 0.811079 0.256667
C46   C     C_3   0.826490 0.774551 0.822602 -0.550381
H18   H     H_    0.827373 0.701384 0.887048 0.201687
H19   H     H_    0.766322 0.750789 0.787025 0.201490
H20   H     H_    0.835709 0.924185 0.835551 0.190979
N3    N     N_2   0.390217 0.796815 0.272458 -0.516839
H21   H     H_    0.443404 0.819306 0.311064 0.256665
C47   C     C_3   0.326489 0.725577 0.322590 -0.550364
H22   H     H_    0.327378 0.798767 0.387031 0.201682
H23   H     H_    0.335694 0.575941 0.335550 0.190977
H24   H     H_    0.266323 0.749360 0.287009 0.201485
N4    N     N_2   0.613537 0.251134 0.719903 -0.517672
H25   H     H_    0.563830 0.266017 0.674943 0.256663
C48   C     C_3   0.653705 0.075472 0.711990 -0.547439
H26   H     H_    0.656921 0.041502 0.640933 0.201221
H27   H     H_    0.619589 0.964702 0.743253 0.194429
H28   H     H_    0.716486 0.081377 0.742981 0.200757

loop_
_geom_bond_atom_site_label_1
_geom_bond_atom_site_label_2
_ccdc_geom_bond_type
C26   C30   A    
N2    H17   S    
C48   H26   S    
C23   C27   A    
C47   H22   S    
C8    C37   S    
O10   C6    A    
C15   H11   S    
N1    H13   S    
C47   H24   S    
C30   C38   A    
O16   V4    S    
C2    O16   A    
C32   C36   A    
H2    C26   S    
C14   C34   A    
C16   C20   A    
H6    C21   S    
C22   C26   A    
C34   C37   A    
O13   V1    S    
O3    V1    S    
O2    V4    S    
C33   C38   A    
C1    O15   A    
C35   C40   A    
O8    V4    S    
C17   N1    S    
O4    C8    A    
C45   H14   S    
C12   C44   T    
O5    V1    S    
O19   V1    S    
C11   C43   T    
C46   H19   S    
O11   C7    A    
O5    C1    A    
O7    C3    A    
O8    C4    A    
O1    C5    A    
C6    C39   S    
O9    V1    S    
H3    C27   S    
C15   C35   A    
N1    C45   S    
C14   C18   A    
O4    V2    S    
O14   V2    S    
C31   C35   A    
C30   C34   A    
C4    C41   S    
H1    C25   S    
C11   C12   S    
C14   H10   S    
C21   C25   A    
C15   C19   A    
O12   C8    A    
O6    V2    S    
O20   V2    S    
C9    C10   S    
O6    C2    A    
N4    H25   S    
C1    C44   S    
C13   C17   A    
C45   H16   S    
O2    C6    A    
C5    C40   S    
C18   C22   A    
C16   C36   A    
C46   H20   S    
O10   V2    S    
C7    C38   S    
C18   N2    S    
C19   N3    S    
H4    C28   S    
N4    C48   S    
C31   C39   A    
C48   H28   S    
O15   V3    S    
N2    C46   S    
C13   C33   A    
O1    V3    S    
C10   C42   T    
C29   C37   A    
C9    C41   T    
C4    O14   A    
C45   H15   S    
O7    V3    S    
C47   H23   S    
C25   C29   A    
N3    H21   S    
O17   V3    S    
C20   N4    S    
C27   C31   A    
O18   V4    S    
C28   C32   A    
O9    C5    A    
C2    C43   S    
C16   H12   S    
O3    C7    A    
O11   V3    S    
H8    C23   S    
N3    C47   S    
C36   C39   A    
C17   C21   A    
C19   C23   A    
C32   C40   A    
H5    C22   S    
O12   V4    S    
C29   C33   A    
H7    C24   S    
C3    O13   A    
C3    C42   S    
C24   C28   A    
C48   H27   S    
C13   H9    S    
C46   H18   S    
C20   C24   A    
