data_mof_unit_22574.cif
_audit_creation_date              2012-12-10T17:11:02-0500
_audit_creation_method            fapswitch 2.2
_symmetry_space_group_name_H-M    P1
_symmetry_Int_Tables_number       1
_space_group_crystal_system       triclinic
_cell_length_a                    11.710448
_cell_length_b                    13.03405
_cell_length_c                    13.426822
_cell_angle_alpha                 93.233139
_cell_angle_beta                  76.621451
_cell_angle_gamma                 100.543154
_cell_volume                      1959.90965189

loop_
_atom_site_label
_atom_site_type_symbol
_atom_type_description
_atom_site_fract_x
_atom_site_fract_y
_atom_site_fract_z
_atom_type_partial_charge
C1    C     C_R   0.523270 0.701106 0.495433 0.864308
C2    C     C_R   0.449677 0.498353 0.975583 0.092361
C3    C     C_R   0.469140 0.467261 0.870928 0.016946
C4    C     C_R   0.533242 0.483513 0.033072 0.097519
C5    C     C_R   0.628522 0.430243 0.987871 0.164788
C6    C     C_R   0.639186 0.391581 0.888051 -0.249982
C7    C     C_R   0.559973 0.408444 0.830927 -0.177696
C8    C     C_R   0.524104 0.518365 0.134943 -0.271134
C9    C     C_R   0.694139 0.442712 0.147143 -0.194713
C10   C     C_R   0.396090 0.494248 0.809092 -0.207569
C11   C     C_R   0.466581 0.186118 0.495672 -0.040917
C12   C     C_R   0.435737 0.493519 0.696171 0.809960
C13   C     C_R   0.538665 0.815358 0.484627 -0.250944
C14   C     C_R   0.660281 0.988462 0.475026 -0.353179
C15   C     C_R   0.652827 0.879079 0.475127 0.419615
C16   C     C_R   0.437966 0.860981 0.482424 0.304952
C17   C     C_R   0.446833 0.969223 0.488005 0.083998
C18   C     C_R   0.558528 0.032735 0.484246 0.050122
C19   C     C_R   0.567898 0.140758 0.487512 -0.210066
C20   C     C_R   0.355110 0.122926 0.500742 -0.225444
C21   C     C_R   0.345257 0.015162 0.496790 -0.161324
C22   C     C_R   0.953474 0.602398 0.587049 -0.327861
C23   C     C_R   0.478658 0.299292 0.498330 0.791902
C24   C     C_R   0.833730 0.595944 0.580412 0.497389
C25   C     C_R   0.852734 0.451519 0.464199 -0.023174
C26   C     C_R   0.974903 0.459124 0.467392 -0.021430
C27   C     C_R   0.024149 0.535253 0.531040 -0.051161
C28   C     C_R   0.144695 0.545094 0.536766 -0.038150
C29   C     C_R   0.170321 0.405471 0.417646 0.404329
C30   C     C_R   0.049909 0.393890 0.408685 0.098855
C31   C     C_R   0.563493 0.503232 0.304292 0.788281
C32   C     C_R   0.709877 0.412820 0.044427 -0.205190
C33   C     C_R   0.598679 0.492528 0.193185 -0.043600
C34   C     C_R   0.290171 0.532229 0.855897 0.469902
C35   C     C_R   0.267932 0.556577 0.960442 -0.239077
C36   C     C_R   0.346593 0.541598 0.018994 -0.275077
Cu1   Cu    Cu3+1 0.386470 0.492430 0.492410 0.961142
Cu2   Cu    Cu3+1 0.613530 0.507570 0.507590 0.946550
H1    H     H_    0.752533 0.422132 0.191674 0.142914
H2    H     H_    0.275488 0.156525 0.508352 0.151577
H3    H     H_    0.744587 0.040971 0.467233 0.153359
H4    H     H_    0.257849 0.968210 0.501640 0.163952
H5    H     H_    0.181784 0.603747 0.586417 0.196856
H6    H     H_    0.994044 0.660765 0.634714 0.157236
H7    H     H_    0.708287 0.346857 0.854239 0.147128
H8    H     H_    0.811677 0.392623 0.417442 0.140527
H9    H     H_    0.782563 0.372055 0.010479 0.129191
H10   H     H_    0.457097 0.562815 0.172885 0.134265
H11   H     H_    0.322225 0.563105 0.098587 0.143063
H12   H     H_    0.191013 0.591398 0.996253 0.150186
H13   H     H_    0.568912 0.371672 0.756014 0.169037
H14   H     H_    0.654533 0.189447 0.483250 0.142282
N1    N     N_R   0.215880 0.481050 0.481000 -0.222289
N2    N     N_R   0.784100 0.518950 0.519000 -0.213854
O1    O     O_R   0.419710 0.645650 0.494620 -0.551810
O2    O     O_R   0.611450 0.658430 0.507430 -0.540257
O3    O     O_R   0.357340 0.490460 0.641450 -0.544830
O4    O     O_R   0.549080 0.503250 0.654260 -0.621434
O5    O     O_R   0.388550 0.341570 0.492570 -0.569994
O6    O     O_R   0.580290 0.354350 0.505380 -0.606791
O7    O     O_R   0.450920 0.496750 0.345740 -0.571156
O8    O     O_R   0.642660 0.509540 0.358550 -0.582529
O9    O     O_3   0.752841 0.829900 0.456788 -0.575243
C37   C     C_3   0.858944 0.892781 0.473768 0.107351
H15   H     H_    0.912989 0.840310 0.496419 0.165472
H16   H     H_    0.842298 0.948126 0.539642 0.126959
C38   C     C_3   0.933474 0.946046 0.374565 -0.372766
H17   H     H_    0.976100 0.887282 0.322980 0.220426
H18   H     H_    0.876200 0.977954 0.333178 0.227030
C39   C     C_3   0.029818 0.034586 0.396499 -0.952902
H19   H     H_    0.988424 0.097075 0.442890 0.253678
H20   H     H_    0.085544 0.068442 0.323308 0.270480
H21   H     H_    0.087856 0.005190 0.438827 0.243999
O10   O     O_3   0.328978 0.800544 0.477091 -0.599173
C40   C     C_3   0.323521 0.783225 0.372892 0.068505
H22   H     H_    0.361318 0.712120 0.343888 0.174886
H23   H     H_    0.373936 0.849528 0.322389 0.114467
C41   C     C_3   0.193349 0.767597 0.364543 -0.336309
H24   H     H_    0.135895 0.718343 0.427793 0.243437
H25   H     H_    0.163995 0.844481 0.371773 0.203967
C42   C     C_3   0.176316 0.715950 0.262916 -0.926655
H26   H     H_    0.234215 0.762956 0.197787 0.255518
H27   H     H_    0.081866 0.709730 0.258182 0.260906
H28   H     H_    0.198201 0.636097 0.257440 0.249783
N3    N     N_2   0.241077 0.331632 0.367976 -0.371510
H29   H     H_    0.205756 0.255950 0.390662 0.233305
C43   C     C_3   0.283729 0.340049 0.258115 -0.601423
H30   H     H_    0.225580 0.283280 0.218499 0.217917
H31   H     H_    0.374849 0.320953 0.236167 0.225891
H32   H     H_    0.286900 0.420134 0.232190 0.211062
N4    N     N_2   0.006375 0.315096 0.342085 -0.436494
H33   H     H_    0.929674 0.265973 0.376773 0.240634
C44   C     C_3   0.000126 0.352293 0.244100 -0.705668
H34   H     H_    0.929970 0.401063 0.253610 0.213658
H35   H     H_    0.978787 0.284597 0.193536 0.226823
H36   H     H_    0.086392 0.399677 0.206110 0.235839
N5    N     N_2   0.766917 0.672426 0.634068 -0.392097
H37   H     H_    0.677268 0.649683 0.657868 0.304333
C45   C     C_3   0.813442 0.744312 0.707519 -0.779828
H38   H     H_    0.748063 0.795891 0.740917 0.236932
H39   H     H_    0.897046 0.795513 0.669721 0.225018
H40   H     H_    0.828461 0.700516 0.770626 0.235650
O11   O     O_3   0.217441 0.558969 0.796863 -0.605598
C46   C     C_3   0.102300 0.496558 0.821358 0.047810
H41   H     H_    0.041226 0.537406 0.792566 0.168036
H42   H     H_    0.065433 0.487846 0.905258 0.122915
C47   C     C_3   0.101187 0.388816 0.768666 -0.331478
H43   H     H_    0.139590 0.397967 0.685407 0.247290
H44   H     H_    0.156089 0.343958 0.800743 0.202007
C48   C     C_3   0.974770 0.327121 0.783192 -0.954147
H45   H     H_    0.934063 0.314923 0.865873 0.251510
H46   H     H_    0.977125 0.249746 0.744441 0.257095
H47   H     H_    0.919269 0.369393 0.748994 0.258844

loop_
_geom_bond_atom_site_label_1
_geom_bond_atom_site_label_2
_ccdc_geom_bond_type
C43   H30   S    
C44   H34   S    
C6    H7    S    
C14   C18   A    
C35   C36   A    
C4    C8    A    
C46   H42   S    
N5    H37   S    
N3    H29   S    
C23   O5    A    
C11   C19   A    
C26   C27   A    
C29   C30   A    
C16   O10   S    
C1    O2    A    
C18   C19   A    
C3    C7    A    
C5    C6    A    
C20   H2    S    
C41   H25   S    
C24   N2    A    
C9    H1    S    
C34   C35   A    
C31   O7    A    
C48   H45   S    
C9    C32   A    
N5    C45   S    
Cu2   O4    S    
C19   H14   S    
C22   H6    S    
C16   C17   A    
C47   H43   S    
C31   C33   S    
C39   H19   S    
C29   N3    S    
C5    C32   A    
C12   O4    A    
C44   H35   S    
C9    C33   A    
C47   H44   S    
C31   O8    A    
C39   H21   S    
C46   H41   S    
C42   H27   S    
C42   H26   S    
N3    C43   S    
C23   O6    A    
C11   C20   A    
O10   C40   S    
C38   H17   S    
C37   C38   S    
C25   N2    A    
N4    H33   S    
C41   H24   S    
C30   N4    S    
C25   C26   A    
C17   C21   A    
C24   N5    S    
C38   H18   S    
C37   H16   S    
C2    C4    A    
C40   H22   S    
C8    H10   S    
Cu1   Cu2   S    
N4    C44   S    
C45   H38   S    
Cu2   N2    S    
C35   H12   S    
C17   C18   A    
C10   C34   A    
C40   H23   S    
C48   H47   S    
Cu1   O5    S    
C10   C12   S    
C14   H3    S    
Cu2   O6    S    
C12   O3    A    
C45   H39   S    
C26   C30   A    
C44   H36   S    
C22   C27   A    
C13   C15   A    
C32   H9    S    
C22   C24   A    
C43   H32   S    
C1    C13   S    
O11   C46   S    
C42   H28   S    
C2    C36   A    
C21   H4    S    
C4    C5    A    
Cu1   O7    S    
C28   N1    A    
C6    C7    A    
C28   H5    S    
C34   O11   S    
C38   C39   S    
C37   H15   S    
C43   H31   S    
C2    C3    A    
C1    O1    A    
C7    H13   S    
C3    C10   A    
C41   C42   S    
C29   N1    A    
C11   C23   S    
C47   C48   S    
C8    C33   A    
C40   C41   S    
C48   H46   S    
Cu1   N1    S    
O9    C37   S    
Cu1   O1    S    
C45   H40   S    
Cu2   O2    S    
C20   C21   A    
C13   C16   A    
C27   C28   A    
C15   O9    S    
C14   C15   A    
C39   H20   S    
C25   H8    S    
C46   C47   S    
Cu1   O3    S    
C36   H11   S    
Cu2   O8    S    
