data_mof_unit_20341.cif
_audit_creation_date              2012-12-10T19:11:32-0500
_audit_creation_method            fapswitch 2.2
_symmetry_space_group_name_H-M    P1
_symmetry_Int_Tables_number       1
_space_group_crystal_system       triclinic
_cell_length_a                    10.782748
_cell_length_b                    9.899331
_cell_length_c                    10.758855
_cell_angle_alpha                 93.006728
_cell_angle_beta                  89.679232
_cell_angle_gamma                 88.843325
_cell_volume                      1146.58149506

loop_
_atom_site_label
_atom_site_type_symbol
_atom_type_description
_atom_site_fract_x
_atom_site_fract_y
_atom_site_fract_z
_atom_type_partial_charge
C1    C     C_R   0.259153 0.501235 0.496143 0.837650
C2    C     C_3   0.931199 0.465278 0.371358 -0.506531
C3    C     C_3   0.391944 0.078302 0.429962 -0.230254
C4    C     C_3   0.399307 0.918047 0.419539 -0.284122
C5    C     C_3   0.618084 0.075410 0.439470 0.363341
C6    C     C_3   0.622243 0.912867 0.448201 0.252620
C7    C     C_3   0.490541 0.086772 0.624720 -0.386784
C8    C     C_3   0.481828 0.927069 0.623634 -0.355166
C9    C     C_R   0.490083 0.497736 0.258123 0.940567
C10   C     C_R   0.743057 0.499807 0.504117 1.036145
C11   C     C_R   0.492238 0.502910 0.742632 0.942290
C12   C     C_3   0.478765 0.495954 0.123265 -0.080692
C13   C     C_3   0.394410 0.592433 0.051838 -0.191581
C14   C     C_3   0.445431 0.376657 0.033618 -0.199069
C15   C     C_3   0.364261 0.473195 0.957162 -0.252814
C16   C     C_3   0.479486 0.506699 0.878764 -0.101067
C17   C     C_3   0.508005 0.623721 0.971895 0.255456
C18   C     C_3   0.558141 0.412021 0.955591 0.211397
C19   C     C_3   0.592724 0.530747 0.045483 -0.137970
C20   C     C_3   0.437440 0.853387 0.927006 -0.782452
C21   C     C_3   0.742324 0.275086 0.989882 -0.469104
C22   C     C_3   0.073644 0.649474 0.527921 -0.420633
C23   C     C_3   0.080727 0.411212 0.598312 -0.404332
C24   C     C_3   0.932167 0.648682 0.542277 0.322981
C25   C     C_3   0.941059 0.391648 0.588127 0.298950
C26   C     C_3   0.074161 0.454948 0.368901 -0.445291
C27   C     C_3   0.124285 0.504131 0.496991 0.022593
C28   C     C_3   0.881782 0.502151 0.506601 -0.162494
H1    H     H_    0.270865 0.450747 0.919417 0.187767
H2    H     H_    0.408317 0.133635 0.674319 0.199765
H3    H     H_    0.389718 0.899783 0.660613 0.188481
H4    H     H_    0.696682 0.112362 0.496749 0.038831
H5    H     H_    0.692513 0.892941 0.520816 0.112828
H6    H     H_    0.325675 0.665128 0.096037 0.149402
H7    H     H_    0.415398 0.274854 0.057054 0.190963
H8    H     H_    0.687183 0.554471 0.079229 0.205010
H9    H     H_    0.098794 0.716463 0.451965 0.174447
H10   H     H_    0.126505 0.309248 0.589946 0.174659
H11   H     H_    0.118742 0.692111 0.613798 0.222726
H12   H     H_    0.900897 0.541818 0.305783 0.255380
H13   H     H_    0.108232 0.458803 0.689545 0.221010
H14   H     H_    0.894806 0.717500 0.473351 0.170754
H15   H     H_    0.928032 0.292215 0.536783 0.124673
H16   H     H_    0.111250 0.517250 0.294453 0.193046
H17   H     H_    0.104776 0.348185 0.346952 0.202983
H18   H     H_    0.567474 0.093220 0.107700 0.381059
H19   H     H_    0.549542 0.818596 0.176386 0.356016
H20   H     H_    0.610393 0.764567 0.878453 0.301587
H21   H     H_    0.472774 0.951378 0.897517 0.228444
H22   H     H_    0.387891 0.873650 0.016927 0.246014
H23   H     H_    0.896393 0.366606 0.335545 0.252887
H24   H     H_    0.371685 0.811490 0.856684 0.245746
H25   H     H_    0.596040 0.221734 0.874055 0.206011
H26   H     H_    0.791441 0.179827 0.958109 0.268432
H27   H     H_    0.705117 0.263374 0.081863 0.257370
H28   H     H_    0.807911 0.359568 0.997916 0.273022
H29   H     H_    0.905701 0.934576 0.770320 0.406138
H30   H     H_    0.754988 0.209234 0.676100 0.347017
H31   H     H_    0.380385 0.120238 0.337767 0.218269
H32   H     H_    0.412154 0.883004 0.320962 0.165322
H33   H     H_    0.304517 0.110107 0.479846 0.156668
H34   H     H_    0.308599 0.877715 0.448160 0.172251
H35   H     H_    0.571702 0.118103 0.680292 0.157132
H36   H     H_    0.552258 0.886775 0.687479 0.211115
N1    N     N_3   0.499750 0.138610 0.497240 -0.111098
N2    N     N_3   0.499750 0.861390 0.497240 -0.113454
N3    N     N_2   0.540053 0.759533 0.942245 -0.267768
N4    N     N_2   0.641929 0.306192 0.907432 -0.257085
O1    O     O_R   0.314910 0.616040 0.499970 -0.654429
O2    O     O_2   0.767217 0.073032 0.220014 -0.220536
O3    O     O_3   0.535258 0.128404 0.189696 -0.615337
O4    O     O_2   0.830411 0.868144 0.310381 -0.263197
O5    O     O_2   0.711430 0.674435 0.294467 -0.337299
O6    O     O_3   0.628646 0.866979 0.177256 -0.477901
O7    O     O_2   0.752393 0.728863 0.711658 -0.326063
O8    O     O_2   0.955385 0.665980 0.795593 -0.237797
O9    O     O_3   0.932618 0.892972 0.688595 -0.564276
O10   O     O_2   0.969958 0.383217 0.839015 -0.279272
O11   O     O_2   0.769492 0.464848 0.764702 -0.274253
O12   O     O_R   0.314910 0.383960 0.499970 -0.651818
O13   O     O_3   0.826307 0.207968 0.732714 -0.577801
O14   O     O_R   0.500080 0.616020 0.313900 -0.606633
O15   O     O_R   0.500080 0.383980 0.313900 -0.526219
O16   O     O_R   0.685320 0.616040 0.499930 -0.550790
O17   O     O_R   0.685320 0.383960 0.499930 -0.598427
O18   O     O_R   0.500150 0.616060 0.686000 -0.609867
O19   O     O_R   0.500150 0.383940 0.686000 -0.636565
O20   O     O_2   0.698578 0.281966 0.296631 -0.335342
S1    S     S_3+6 0.657725 0.139718 0.285605 0.045392
S2    S     S_3+6 0.697811 0.824170 0.308931 0.072178
S3    S     S_3+6 0.889556 0.730779 0.690659 0.022203
S4    S     S_3+6 0.875533 0.367626 0.737187 0.023088
Zn1   Zn    Zn3+2 0.500150 0.654960 0.499940 0.997075
Zn2   Zn    Zn3+2 0.500150 0.345040 0.499940 0.996433

loop_
_geom_bond_atom_site_label_1
_geom_bond_atom_site_label_2
_ccdc_geom_bond_type
C10   O17   A    
C8    N2    S    
C24   H14   S    
C14   C18   S    
C20   N3    S    
C25   H15   S    
C26   H16   S    
C7    C8    S    
C25   C28   S    
C26   C27   S    
O14   Zn1   S    
O5    S2    D    
O1    Zn1   S    
C19   H8    S    
C21   H26   S    
C11   O18   A    
C18   N4    S    
C15   C16   S    
O19   Zn2   S    
C4    H34   S    
C18   C19   S    
O17   Zn2   S    
H25   N4    S    
C20   H22   S    
C26   H17   S    
O13   S4    S    
C11   O19   A    
C16   C17   S    
C23   C27   S    
O7    S3    D    
C9    O14   A    
C5    H4    S    
C7    H2    S    
C3    N1    S    
C15   H1    S    
C3    H33   S    
C17   N3    S    
H29   O9    S    
C5    N1    S    
H30   O13   S    
C14   H7    S    
C21   H27   S    
O10   S4    D    
C6    S2    S    
C22   H9    S    
C1    O1    A    
C20   H21   S    
O18   Zn1   S    
C7    N1    S    
O4    S2    D    
C11   C16   S    
O3    S1    S    
C4    H32   S    
H18   O3    S    
C2    C26   S    
C12   C13   S    
C7    H35   S    
O11   S4    D    
C9    O15   A    
N2    Zn1   S    
N1    Zn2   S    
C8    H36   S    
C22   C27   S    
C13   C15   S    
C21   N4    S    
C22   C24   S    
O2    S1    D    
O12   Zn2   S    
C3    C4    S    
C24   S3    S    
C10   C28   S    
O9    S3    S    
C25   S4    S    
C8    H3    S    
C24   C28   S    
H19   O6    S    
C12   C14   S    
C21   H28   S    
C23   H10   S    
C23   H13   S    
C6    H5    S    
C13   C17   S    
O6    S2    S    
C13   H6    S    
C20   H24   S    
C4    N2    S    
O15   Zn2   S    
C5    C6    S    
C22   H11   S    
C12   C19   S    
C10   O16   A    
C17   C19   S    
O16   Zn1   S    
C23   C25   S    
H20   N3    S    
C9    C12   S    
C2    H23   S    
O8    S3    D    
C2    H12   S    
C6    N2    S    
O20   S1    D    
C16   C18   S    
C1    C27   S    
C1    O12   A    
C14   C15   S    
C2    C28   S    
C5    S1    S    
C3    H31   S    
