data_mof_unit_13041.cif
_audit_creation_date              2012-12-10T16:51:32-0500
_audit_creation_method            fapswitch 2.2
_symmetry_space_group_name_H-M    P1
_symmetry_Int_Tables_number       1
_space_group_crystal_system       triclinic
_cell_length_a                    7.803434
_cell_length_b                    8.639204
_cell_length_c                    12.150078
_cell_angle_alpha                 91.887568
_cell_angle_beta                  101.121235
_cell_angle_gamma                 94.342478
_cell_volume                      800.46734774

loop_
_atom_site_label
_atom_site_type_symbol
_atom_type_description
_atom_site_fract_x
_atom_site_fract_y
_atom_site_fract_z
_atom_type_partial_charge
C1    C     C_R   0.047921 0.794586 0.502095 0.946691
C2    C     C_R   0.159669 0.509654 0.832003 -0.118015
C3    C     C_2   0.083594 0.957637 0.514663 -0.000920
C4    C     C_R   0.106275 0.505310 0.710382 0.847182
C5    C     C_2   0.942562 0.042070 0.511155 -0.419438
C6    C     C_R   0.958434 0.205637 0.506841 0.961525
C7    C     C_R   0.892548 0.489355 0.289885 0.873424
C8    C     C_R   0.810975 0.294663 0.004688 -0.188651
C9    C     C_R   0.830682 0.460703 0.170757 -0.067946
C10   C     C_R   0.073953 0.602087 0.897709 -0.179404
C11   C     C_R   0.145621 0.634672 0.010488 -0.129620
C12   C     C_R   0.397376 0.492311 0.990142 0.079466
C13   C     C_R   0.307829 0.583598 0.056341 -0.199374
C14   C     C_3   0.276547 0.020030 0.532129 -0.817074
C15   C     C_R   0.311005 0.440360 0.881453 0.080704
C16   C     C_R   0.569668 0.450759 0.027712 0.080481
C17   C     C_R   0.642102 0.339877 0.964766 0.169119
C18   C     C_R   0.543114 0.273155 0.864634 -0.246487
C19   C     C_R   0.379026 0.322495 0.823764 -0.203591
C20   C     C_R   0.672833 0.518135 0.125875 -0.271196
C21   C     C_R   0.903923 0.352484 0.109257 -0.183005
H1    H     H_    0.027508 0.307241 0.144229 0.156640
H2    H     H_    0.078543 0.704608 0.061547 0.143976
H3    H     H_    0.304005 0.266787 0.747128 0.157811
H4    H     H_    0.368840 0.928611 0.551506 0.222445
H5    H     H_    0.304502 0.073997 0.455073 0.249332
H6    H     H_    0.310928 0.103680 0.605168 0.236696
H7    H     H_    0.809695 0.989222 0.504126 0.154934
H8    H     H_    0.470650 0.375849 0.417286 0.188260
H9    H     H_    0.529322 0.624073 0.582763 0.188874
H10   H     H_    0.593167 0.184398 0.817242 0.147161
H11   H     H_    0.867127 0.209664 0.957712 0.136087
H12   H     H_    0.629343 0.610606 0.172846 0.147385
H13   H     H_    0.954821 0.653289 0.861077 0.156527
H14   H     H_    0.357597 0.613942 0.144110 0.139896
N1    N     N_2   0.434800 0.456690 0.470850 -0.174852
N2    N     N_2   0.565200 0.543310 0.529150 -0.169217
O1    O     O_R   0.893060 0.738880 0.507150 -0.634966
O2    O     O_R   0.172250 0.711130 0.488470 -0.620754
O3    O     O_R   0.944700 0.520730 0.667600 -0.613445
O4    O     O_R   0.223890 0.492980 0.648920 -0.619311
O5    O     O_R   0.827750 0.288870 0.511530 -0.625242
O6    O     O_R   0.106940 0.261120 0.492850 -0.604678
O7    O     O_R   0.776110 0.507020 0.351080 -0.617127
O8    O     O_R   0.055300 0.479270 0.332400 -0.618657
Zn1   Zn    Zn3+2 0.813580 0.518530 0.512470 0.932156
Zn2   Zn    Zn3+2 0.186420 0.481470 0.487530 0.926198

loop_
_geom_bond_atom_site_label_1
_geom_bond_atom_site_label_2
_ccdc_geom_bond_type
C17   C18   A    
C2    C4    S    
C15   C19   A    
C14   H6    S    
C5    H7    S    
C9    C20   A    
C8    C17   A    
C12   C15   A    
C16   C20   A    
C10   C11   A    
C8    C21   A    
O4    Zn2   S    
C10   H13   S    
C21   H1    S    
C14   H5    S    
O3    Zn1   S    
C2    C15   A    
C11   C13   A    
H8    N1    S    
C9    C21   A    
C3    C14   S    
O6    Zn2   S    
C1    O1    A    
C20   H12   S    
C7    O8    A    
C11   H2    S    
N1    N2    D    
O7    Zn1   S    
C13   H14   S    
C6    O6    A    
O8    Zn2   S    
C14   H4    S    
O5    Zn1   S    
C5    C6    S    
O1    Zn1   S    
C4    O4    A    
C1    O2    A    
C2    C10   A    
C12   C16   A    
C12   C13   A    
N1    Zn2   S    
O2    Zn2   S    
C18   C19   A    
C6    O5    A    
C7    C9    S    
C18   H10   S    
C3    C5    D    
N2    Zn1   S    
C7    O7    A    
C19   H3    S    
C4    O3    A    
H9    N2    S    
C16   C17   A    
C1    C3    S    
C8    H11   S    
