data_mof_unit_50655.cif
_audit_creation_date              2013-03-05T16:02:30-0500
_audit_creation_method            fapswitch 2.2
_symmetry_space_group_name_H-M    P1
_symmetry_Int_Tables_number       1
_space_group_crystal_system       triclinic
_cell_length_a                    17.021522
_cell_length_b                    7.25187
_cell_length_c                    14.843846
_cell_angle_alpha                 89.914116
_cell_angle_beta                  94.309926
_cell_angle_gamma                 89.490407
_cell_volume                      1827.034586

loop_
_atom_site_label
_atom_site_type_symbol
_atom_site_description
_atom_site_fract_x
_atom_site_fract_y
_atom_site_fract_z
_atom_type_partial_charge
O1    O     O_R   0.663460 0.361760 0.165970 -0.595182
O2    O     O_R   0.336540 0.638240 0.834030 -0.595159
O3    O     O_R   0.836540 0.861760 0.334030 -0.578200
O4    O     O_R   0.163460 0.138240 0.665970 -0.578211
O5    O     O_R   0.827100 0.689870 0.163730 -0.583441
O6    O     O_R   0.172900 0.310130 0.836270 -0.583446
O7    O     O_R   0.672900 0.189870 0.336270 -0.564358
O8    O     O_R   0.327100 0.810130 0.663730 -0.564350
C1    C     C_R   0.854694 0.523087 0.145413 1.045300
C2    C     C_R   0.145306 0.476913 0.854587 1.045312
C3    C     C_R   0.645289 0.023680 0.354607 1.042634
C4    C     C_R   0.354711 0.976320 0.645393 1.042630
O9    O     O_R   0.663490 0.691370 0.155500 -0.577661
O10   O     O_R   0.336510 0.308630 0.844500 -0.577684
O11   O     O_R   0.836510 0.191370 0.344500 -0.590957
O12   O     O_R   0.163490 0.808630 0.655500 -0.590956
O13   O     O_R   0.671770 0.863320 0.325740 -0.585185
O14   O     O_R   0.328230 0.136680 0.674260 -0.585193
O15   O     O_R   0.828230 0.363320 0.174260 -0.567148
O16   O     O_R   0.171770 0.636680 0.825740 -0.567115
C5    C     C_R   0.637662 0.523319 0.131380 0.976094
C6    C     C_R   0.362337 0.476681 0.868621 0.976097
C7    C     C_R   0.862205 0.021929 0.368622 0.976599
C8    C     C_R   0.137794 0.978070 0.631378 0.976598
H1    H     H_    0.081566 0.765137 0.220605 0.159805
H2    H     H_    0.918430 0.234841 0.779396 0.159817
H3    H     H_    0.416405 0.831969 0.254517 0.156241
H4    H     H_    0.583597 0.168007 0.745491 0.156237
O17   O     O_3   0.752910 0.528800 0.305860 -0.275910
O18   O     O_3   0.247090 0.471200 0.694140 -0.275913
O19   O     O_3   0.747090 0.028800 0.194140 -0.278422
O20   O     O_3   0.252910 0.971200 0.805860 -0.278398
V1    V     V_3+5 0.749460 0.803010 0.239640 1.241918
V2    V     V_3+5 0.250540 0.196990 0.760360 1.241915
V3    V     V_3+5 0.750540 0.303010 0.260360 1.246849
V4    V     V_3+5 0.249460 0.696990 0.739640 1.246880
C9    C     C_1   0.469425 0.994180 0.530832 0.079102
C10   C     C_1   0.530573 0.005819 0.469166 0.079109
C11   C     C_1   0.030557 0.494671 0.969123 0.077382
C12   C     C_1   0.969447 0.505334 0.030881 0.077399
H5    H     H_    0.797763 0.227415 0.680160 0.163460
H6    H     H_    0.202230 0.772516 0.319847 0.163461
H7    H     H_    0.704288 0.216389 0.841005 0.164472
H8    H     H_    0.295719 0.783640 0.158988 0.164466
C13   C     C_R   0.009793 0.881311 0.318986 -0.185507
C14   C     C_R   0.990206 0.118689 0.681012 -0.185523
C15   C     C_R   0.489287 0.683647 0.167460 -0.184648
C16   C     C_R   0.510713 0.316332 0.832546 -0.184657
C17   C     C_R   0.079481 0.812898 0.289498 -0.176683
C18   C     C_R   0.920516 0.187082 0.710503 -0.176678
C19   C     C_R   0.418896 0.759474 0.191031 -0.171775
C20   C     C_R   0.581107 0.240512 0.808977 -0.171766
C21   C     C_R   0.147319 0.814888 0.346396 -0.143038
C22   C     C_R   0.852676 0.185066 0.653608 -0.143020
C23   C     C_R   0.350985 0.733974 0.135997 -0.142121
C24   C     C_R   0.649018 0.266043 0.864003 -0.142089
C25   C     C_R   0.146665 0.884361 0.434254 0.341579
C26   C     C_R   0.853331 0.115600 0.565750 0.341562
C27   C     C_R   0.352217 0.632915 0.055823 0.341229
C28   C     C_R   0.647787 0.367121 0.944171 0.341184
C29   C     C_R   0.074015 0.938598 0.470030 -0.042210
C30   C     C_R   0.925984 0.061386 0.529971 -0.042205
C31   C     C_R   0.425425 0.569090 0.024688 -0.041416
C32   C     C_R   0.574575 0.430921 0.975310 -0.041396
C33   C     C_R   0.004464 0.941874 0.409290 0.109720
C34   C     C_R   0.995536 0.058122 0.590709 0.109724
C35   C     C_R   0.495135 0.590716 0.084074 0.105285
C36   C     C_R   0.504865 0.409277 0.915928 0.105295
C37   C     C_R   0.068732 0.992025 0.562316 -0.254254
C38   C     C_R   0.931268 0.007972 0.437683 -0.254251
C39   C     C_R   0.431049 0.482748 0.938541 -0.251539
C40   C     C_R   0.568952 0.517252 0.061459 -0.251511
C41   C     C_1   0.417385 0.984944 0.583105 -0.192167
C42   C     C_1   0.582614 0.015055 0.416893 -0.192164
C43   C     C_1   0.082592 0.486007 0.916801 -0.192120
C44   C     C_1   0.917411 0.513996 0.083202 -0.192109
H9    H     H_    0.960495 0.885656 0.268878 0.131671
H10   H     H_    0.039506 0.114362 0.731119 0.131678
H11   H     H_    0.538657 0.699894 0.216612 0.132293
H12   H     H_    0.461342 0.300070 0.783396 0.132302
N1    N     N_R   0.221682 0.920643 0.479835 0.197958
O21   O     O_R   0.276946 0.795731 0.478406 -0.423702
O22   O     O_R   0.241510 0.091682 0.493749 -0.430367
N2    N     N_R   0.778316 0.079299 0.520169 0.197952
O23   O     O_R   0.723043 0.204188 0.521609 -0.423725
O24   O     O_R   0.758498 0.908254 0.506243 -0.430341
N3    N     N_R   0.277543 0.577650 0.015015 0.199415
O25   O     O_R   0.219905 0.697191 0.008978 -0.427369
O26   O     O_R   0.261035 0.402781 0.013217 -0.433713
N4    N     N_R   0.722457 0.422460 0.984960 0.199414
O27   O     O_R   0.780129 0.302978 0.990960 -0.427423
O28   O     O_R   0.738931 0.597343 0.986786 -0.433666

loop_
_geom_bond_atom_site_label_1
_geom_bond_atom_site_label_2
_geom_bond_distance
_ccdc_geom_bond_type
C26   C30   1.434105 A    
N3    O25   1.301351 A    
O1    C5    1.335768 A    
C23   C27   1.399983 A    
O3    C7    1.334445 A    
C15   H11   1.078088 S    
N1    O21   1.301453 A    
O7    C3    1.332580 A    
O5    C1    1.329461 A    
C18   C22   1.378631 A    
C32   C36   1.433904 A    
N2    O24   1.301091 A    
C14   C34   1.420305 A    
H2    C18   1.083199 S    
H6    C21   1.083487 S    
C10   C42   1.222876 T    
O4    C8    1.334448 A    
C34   C37   1.424282 A    
O3    V1    2.010603 S    
O2    V4    2.004115 S    
C33   C38   1.424280 A    
C30   C38   1.433265 A    
C35   C40   1.423821 A    
O8    V4    1.982341 S    
O11   V3    2.014427 S    
C9    C41   1.222874 T    
C1    O15   1.328693 A    
C2    O16   1.328692 A    
O5    V1    1.973994 S    
O2    C6    1.335771 A    
O19   V1    1.769259 S    
C1    C44   1.464184 S    
C11   C43   1.222373 T    
O11   C7    1.339758 A    
O12   C8    1.339754 A    
C4    C41   1.464961 S    
C7    C38   1.503169 S    
O13   V1    1.954195 S    
C15   C35   1.419852 A    
N1    O22   1.301066 A    
H3    C19   1.083221 S    
C8    C37   1.503172 S    
O4    V2    2.010601 S    
C31   C35   1.433927 A    
C30   C34   1.433178 A    
C5    C40   1.505189 S    
N2    O23   1.301467 A    
C27   N3    1.427301 S    
C11   C12   1.438912 S    
C14   H10   1.078892 S    
C21   C25   1.399561 A    
C15   C19   1.382837 A    
O6    V2    1.973994 S    
O20   V2    1.769259 S    
O9    V1    2.026357 S    
C9    C10   1.439750 S    
C26   N2    1.426229 S    
C2    C43   1.464183 S    
N4    O28   1.301170 A    
C13   C17   1.383116 A    
O8    C4    1.332578 A    
O9    C5    1.339341 A    
C16   C36   1.419843 A    
O14   V2    1.954195 S    
C31   C39   1.433922 A    
N3    O26   1.301203 A    
C13   C33   1.420305 A    
C25   N1    1.426238 S    
C6    C39   1.505203 S    
O1    V3    2.004115 S    
C22   C26   1.399553 A    
C29   C37   1.433272 A    
C14   C18   1.383120 A    
C3    O13   1.326780 A    
O7    V3    1.982344 S    
C3    C42   1.464962 S    
O10   V2    2.026358 S    
C25   C29   1.434097 A    
C28   N4    1.427309 S    
O17   V3    1.771796 S    
C27   C31   1.434424 A    
O18   V4    1.771794 S    
C28   C32   1.434449 A    
O10   C6    1.339343 A    
O15   V3    1.958597 S    
O12   V4    2.014426 S    
H4    C20   1.083248 S    
H8    C23   1.083372 S    
C16   H12   1.078090 S    
N4    O27   1.301478 A    
C36   C39   1.423834 A    
C17   C21   1.378635 A    
C19   C23   1.378437 A    
C32   C40   1.433916 A    
C29   C33   1.433188 A    
H1    C17   1.083202 S    
H5    C22   1.083496 S    
O6    C2    1.329466 A    
O16   V4    1.958595 S    
C12   C44   1.222375 T    
H7    C24   1.083444 S    
C16   C20   1.382856 A    
C24   C28   1.399985 A    
C4    O14   1.326778 A    
C13   H9    1.078893 S    
C20   C24   1.378415 A    
