data_mof_unit_7227.cif
_audit_creation_date              2012-12-10T16:54:57-0500
_audit_creation_method            fapswitch 2.2
_symmetry_space_group_name_H-M    P1
_symmetry_Int_Tables_number       1
_space_group_crystal_system       triclinic
_cell_length_a                    7.772964
_cell_length_b                    8.576021
_cell_length_c                    15.719124
_cell_angle_alpha                 90.822009
_cell_angle_beta                  85.857623
_cell_angle_gamma                 93.63031
_cell_volume                      1042.96932356

loop_
_atom_site_label
_atom_site_type_symbol
_atom_type_description
_atom_site_fract_x
_atom_site_fract_y
_atom_site_fract_z
_atom_type_partial_charge
C1    C     C_R   0.545766 0.794722 0.497827 0.961386
C2    C     C_2   0.430149 0.041797 0.503478 -0.367568
C3    C     C_R   0.502006 0.499879 0.661592 0.910021
C4    C     C_R   0.454236 0.205279 0.502205 0.966148
C5    C     C_R   0.497975 0.499992 0.338404 0.900609
C6    C     C_3   0.405237 0.635170 0.953871 -0.462172
C7    C     C_3   0.689882 0.509561 0.946136 -0.365598
C8    C     C_3   0.685557 0.509054 0.044398 -0.394439
C9    C     C_1   0.493683 0.499514 0.249641 -0.176745
C10   C     C_3   0.503075 0.494210 0.917268 0.245650
C11   C     C_3   0.400887 0.636495 0.052144 -0.396120
C12   C     C_3   0.495982 0.496752 0.082749 0.290903
C13   C     C_3   0.405668 0.342551 0.051486 -0.423297
C14   C     C_3   0.407644 0.341096 0.952928 0.258031
C15   C     C_1   0.493151 0.498493 0.174289 -0.098446
C16   C     C_1   0.506125 0.495900 0.825666 -0.037290
C17   C     C_1   0.505891 0.497786 0.750335 -0.131832
C18   C     C_2   0.569855 0.958206 0.496608 -0.369668
Cl1   Cl    Cl    0.502150 0.168586 0.909512 -0.669377
H1    H     H_    0.463443 0.748489 0.074633 0.195878
H2    H     H_    0.765757 0.412151 0.919515 0.215583
H3    H     H_    0.757165 0.620300 0.921849 0.174374
H4    H     H_    0.753809 0.618071 0.067265 0.175037
H5    H     H_    0.755776 0.408813 0.065424 0.182004
H6    H     H_    0.271764 0.335109 0.934411 0.113650
H7    H     H_    0.269506 0.331137 0.079105 0.145731
H8    H     H_    0.270625 0.628229 0.933556 0.175958
H9    H     H_    0.264275 0.629655 0.079229 0.174400
H10   H     H_    0.471708 0.241293 0.074387 0.210513
H11   H     H_    0.701811 0.009243 0.490061 0.181238
H12   H     H_    0.298193 0.990760 0.510031 0.181471
H13   H     H_    0.013408 0.381945 0.436578 0.191783
H14   H     H_    0.986592 0.618053 0.563424 0.195976
H15   H     H_    0.469800 0.746657 0.929008 0.231066
N1    N     N_2   0.950340 0.457950 0.477370 -0.172235
N2    N     N_2   0.049660 0.542050 0.522630 -0.170399
O1    O     O_R   0.389240 0.738570 0.505550 -0.613023
O2    O     O_R   0.678400 0.711630 0.491050 -0.631341
O3    O     O_R   0.355360 0.513470 0.630110 -0.610067
O4    O     O_R   0.644510 0.486530 0.615610 -0.617241
O5    O     O_R   0.321600 0.288370 0.508950 -0.628857
O6    O     O_R   0.610760 0.261430 0.494450 -0.612307
O7    O     O_R   0.355490 0.513470 0.384390 -0.623650
O8    O     O_R   0.644640 0.486530 0.369890 -0.614120
Zn1   Zn    Zn3+2 0.306930 0.517990 0.509680 0.954971
Zn2   Zn    Zn3+2 0.693070 0.482010 0.490320 0.953412

loop_
_geom_bond_atom_site_label_1
_geom_bond_atom_site_label_2
_ccdc_geom_bond_type
C6    C10   S    
C7    C10   S    
C2    C4    S    
C11   C12   S    
C5    C9    S    
C18   H11   S    
C8    C12   S    
C2    C18   D    
C7    H3    S    
C6    H8    S    
N1    N2    D    
C12   C15   S    
C1    O1    A    
O3    Zn1   S    
C8    H4    S    
C5    O7    A    
C3    O3    A    
N2    Zn1   S    
C10   C16   S    
C13   C14   S    
O4    Zn2   S    
O7    Zn1   S    
C1    C18   S    
C4    O6    A    
C1    O2    A    
C11   H9    S    
C13   H10   S    
C8    H5    S    
C5    O8    A    
O8    Zn2   S    
C3    O4    A    
C3    C17   S    
C14   H6    S    
C10   C14   S    
C13   H7    S    
C11   H1    S    
O2    Zn2   S    
C4    O5    A    
O1    Zn1   S    
H13   N1    S    
C7    C8    S    
H14   N2    S    
C12   C13   S    
O6    Zn2   S    
C6    C11   S    
O5    Zn1   S    
C2    H12   S    
C7    H2    S    
N1    Zn2   S    
C14   Cl1   S    
C6    H15   S    
C9    C15   T    
C16   C17   T    
