data_mof_unit_27185.cif
_audit_creation_date              2012-12-10T19:00:14-0500
_audit_creation_method            fapswitch 2.2
_symmetry_space_group_name_H-M    P1
_symmetry_Int_Tables_number       1
_space_group_crystal_system       triclinic
_cell_length_a                    9.586101
_cell_length_b                    10.866402
_cell_length_c                    13.470417
_cell_angle_alpha                 91.971333
_cell_angle_beta                  71.004304
_cell_angle_gamma                 91.082688
_cell_volume                      1325.92386099

loop_
_atom_site_label
_atom_site_type_symbol
_atom_type_description
_atom_site_fract_x
_atom_site_fract_y
_atom_site_fract_z
_atom_type_partial_charge
C1    C     C_R   0.499455 0.737471 0.503899 0.799492
C2    C     C_R   0.427777 0.485872 0.980550 0.085975
C3    C     C_R   0.466314 0.456381 0.871465 0.089134
C4    C     C_R   0.538518 0.480780 0.030309 0.053866
C5    C     C_R   0.675091 0.423749 0.973817 0.135381
C6    C     C_R   0.701200 0.376999 0.871963 -0.239697
C7    C     C_R   0.598540 0.392668 0.821554 -0.199462
C8    C     C_R   0.521882 0.531877 0.132559 0.125901
C9    C     C_R   0.759729 0.450651 0.122901 -0.275054
C10   C     C_R   0.368740 0.487401 0.816368 -0.108763
C11   C     C_R   0.366360 0.933354 0.526497 0.126875
C12   C     C_R   0.419712 0.494053 0.700437 0.778613
C13   C     C_R   0.495464 0.870529 0.517426 -0.097591
C14   C     C_R   0.618963 0.938444 0.523157 -0.217999
C15   C     C_R   0.617989 0.067031 0.521905 -0.218397
C16   C     C_R   0.494184 0.128827 0.513819 -0.098619
C17   C     C_R   0.366028 0.060201 0.523645 0.132524
C18   C     C_3   0.269740 0.055790 0.456179 -0.497101
C19   C     C_3   0.266711 0.917395 0.462166 -0.460040
C20   C     C_R   0.935775 0.393677 0.477793 0.229478
C21   C     C_R   0.911149 0.599559 0.536079 -0.074293
C22   C     C_R   0.059021 0.598849 0.537432 -0.086991
C23   C     C_R   0.498392 0.262113 0.502129 0.785762
C24   C     C_R   0.084402 0.396312 0.473692 0.209268
C25   C     C_3   0.137451 0.326750 0.372476 -0.479660
C26   C     C_3   0.976881 0.309157 0.381577 -0.112051
C27   C     C_R   0.579677 0.504143 0.299283 0.802083
C28   C     C_R   0.785868 0.414018 0.019168 -0.203539
C29   C     C_R   0.624131 0.499847 0.183076 -0.055030
C30   C     C_R   0.223968 0.522414 0.873655 -0.189667
C31   C     C_R   0.177917 0.529443 0.982791 -0.165174
C32   C     C_R   0.278119 0.511247 0.035949 -0.191731
Cu1   Cu    Cu3+1 0.359330 0.500020 0.500010 0.937033
Cu2   Cu    Cu3+1 0.640670 0.499980 0.499990 0.933620
H1    H     H_    0.846224 0.439463 0.155126 0.164353
H2    H     H_    0.716683 0.116991 0.521973 0.152542
H3    H     H_    0.160017 0.097272 0.496962 0.192461
H4    H     H_    0.329994 0.086055 0.375323 0.196344
H5    H     H_    0.156421 0.880989 0.508143 0.184884
H6    H     H_    0.320044 0.869606 0.385025 0.204407
H7    H     H_    0.845219 0.681061 0.563828 0.136402
H8    H     H_    0.101643 0.679039 0.567750 0.138251
H9    H     H_    0.202147 0.386367 0.307535 0.214079
H10   H     H_    0.192008 0.240836 0.375939 0.176074
H11   H     H_    0.802846 0.329319 0.830259 0.142874
H12   H     H_    0.938057 0.213053 0.401069 0.156380
H13   H     H_    0.891669 0.373975 0.975290 0.146706
H14   H     H_    0.145995 0.544387 0.834153 0.157092
H15   H     H_    0.235282 0.513105 0.120460 0.146772
H16   H     H_    0.064737 0.552334 0.026489 0.150209
H17   H     H_    0.622444 0.349719 0.744378 0.170005
H18   H     H_    0.718596 0.892793 0.522785 0.155176
N1    N     N_R   0.852320 0.499070 0.499340 -0.177485
N2    N     N_R   0.148230 0.499110 0.499340 -0.179724
O1    O     O_R   0.381190 0.680360 0.500000 -0.585189
O2    O     O_R   0.618780 0.680320 0.499990 -0.587324
O3    O     O_R   0.323230 0.500000 0.650990 -0.577795
O4    O     O_R   0.560820 0.499960 0.650980 -0.579415
O5    O     O_R   0.381220 0.319680 0.500010 -0.573654
O6    O     O_R   0.618810 0.319640 0.500000 -0.591380
O7    O     O_R   0.439180 0.500040 0.349020 -0.567784
O8    O     O_R   0.676770 0.500000 0.349010 -0.580283
C33   C     C_3   0.944746 0.352553 0.286316 -0.778062
H19   H     H_    0.831635 0.321547 0.292246 0.250068
H20   H     H_    0.958158 0.454171 0.280498 0.243033
H21   H     H_    0.021507 0.308177 0.214129 0.217273
C34   C     C_3   0.421343 0.640230 0.178967 -0.869274
H22   H     H_    0.476662 0.707120 0.218479 0.221167
H23   H     H_    0.397320 0.692259 0.117029 0.235300
H24   H     H_    0.317103 0.609869 0.238198 0.241374

loop_
_geom_bond_atom_site_label_1
_geom_bond_atom_site_label_2
_ccdc_geom_bond_type
C17   C18   S    
Cu1   O1    S    
C2    C4    A    
C26   C33   S    
C33   H20   S    
C28   H13   S    
Cu2   O2    S    
C6    C7    A    
C27   O8    A    
C27   C29   S    
C5    C28   A    
C27   O7    A    
C10   C30   A    
C31   C32   A    
C9    C29   A    
C30   C31   A    
C4    C8    A    
C34   H24   S    
C12   O4    A    
C25   H9    S    
C2    C3    A    
C1    O1    A    
C33   H21   S    
C7    H17   S    
Cu1   O5    S    
C3    C10   A    
C13   C14   A    
Cu2   O6    S    
C11   C13   A    
C11   C19   S    
C22   H8    S    
C20   C26   S    
C8    C34   S    
C5    C6    A    
C8    C29   A    
C21   N1    A    
C25   H10   S    
C2    C32   A    
C6    H11   S    
C18   H3    S    
Cu1   Cu2   S    
C16   C23   S    
C3    C7    A    
C22   N2    A    
C18   H4    S    
C23   O6    A    
C10   C12   S    
Cu2   O4    S    
C21   H7    S    
C32   H15   S    
C1    C13   S    
C19   H6    S    
C12   O3    A    
C19   H5    S    
C24   N2    A    
C33   H19   S    
C16   C17   A    
C20   C24   A    
C15   H2    S    
Cu2   O8    S    
C14   H18   S    
C24   C25   S    
Cu2   N1    S    
Cu1   O7    S    
C18   C19   S    
C30   H14   S    
Cu1   N2    S    
C9    H1    S    
C26   H12   S    
C14   C15   A    
C4    C5    A    
Cu1   O3    S    
C31   H16   S    
C23   O5    A    
C25   C26   S    
C21   C22   A    
C1    O2    A    
C15   C16   A    
C11   C17   A    
C34   H22   S    
C9    C28   A    
C20   N1    A    
C34   H23   S    
