data_mof_unit_56497.cif
_audit_creation_date              2012-12-10T17:00:03-0500
_audit_creation_method            fapswitch 2.2
_symmetry_space_group_name_H-M    P1
_symmetry_Int_Tables_number       1
_space_group_crystal_system       triclinic
_cell_length_a                    15.020154
_cell_length_b                    15.170718
_cell_length_c                    10.072799
_cell_angle_alpha                 89.847751
_cell_angle_beta                  92.442716
_cell_angle_gamma                 89.815961
_cell_volume                      2293.14724146

loop_
_atom_site_label
_atom_site_type_symbol
_atom_type_description
_atom_site_fract_x
_atom_site_fract_y
_atom_site_fract_z
_atom_type_partial_charge
C1    C     C_R   0.376987 0.885466 0.497836 0.926143
C2    C     C_2   0.745763 0.184176 0.400451 -0.157034
C3    C     C_2   0.246016 0.316626 0.399628 -0.147148
C4    C     C_2   0.176451 0.747643 0.407037 -0.140939
C5    C     C_2   0.701049 0.832483 0.510772 -0.384422
C6    C     C_2   0.700379 0.168059 0.508928 -0.389676
C7    C     C_2   0.202150 0.333726 0.509154 -0.392947
C8    C     C_2   0.183308 0.686175 0.502210 -0.380557
C9    C     C_2   0.322081 0.256963 0.406165 0.172632
C10   C     C_2   0.248463 0.809562 0.387007 0.200090
C11   C     C_2   0.826421 0.761571 0.414021 0.209352
C12   C     C_R   0.382647 0.120136 0.497684 0.904152
C13   C     C_2   0.823021 0.241735 0.408825 0.199387
C14   C     C_2   0.317392 0.188051 0.490521 -0.396497
C15   C     C_2   0.297752 0.832918 0.496324 -0.425420
C16   C     C_2   0.818891 0.689093 0.490636 -0.364746
C17   C     C_2   0.819210 0.310887 0.492374 -0.382798
C18   C     C_2   0.572530 0.001196 0.931211 0.200115
C19   C     C_2   0.072165 0.509635 0.930634 0.188809
C20   C     C_2   0.567827 0.978258 0.077452 0.033364
C21   C     C_2   0.070716 0.490063 0.078122 0.034596
C22   C     C_3   0.399719 0.270715 0.315404 -0.318915
C23   C     C_R   0.883791 0.378999 0.498108 0.913834
C24   C     C_3   0.407094 0.364663 0.261358 -0.908197
C25   C     C_3   0.265206 0.843961 0.247922 -0.351299
C26   C     C_3   0.199325 0.813695 0.137247 -0.934157
C27   C     C_3   0.907212 0.784611 0.334875 -0.363996
C28   C     C_3   0.948169 0.871762 0.381608 -0.904705
C29   C     C_3   0.900175 0.222432 0.319770 -0.369026
C30   C     C_3   0.930567 0.126361 0.331166 -0.897335
C31   C     C_3   0.660993 0.027920 0.876018 -0.335870
C32   C     C_3   0.741081 0.024061 0.975114 -0.987010
C33   C     C_3   0.158055 0.541413 0.872569 -0.342987
C34   C     C_R   0.883683 0.620980 0.497754 0.906731
C35   C     C_3   0.240457 0.540659 0.967335 -0.989205
C36   C     C_3   0.359654 0.032533 0.094868 -0.220373
C37   C     C_3   0.854614 0.498028 0.112226 -0.162547
C38   C     C_R   0.621870 0.115561 0.502076 0.925645
C39   C     C_R   0.622200 0.884764 0.502461 0.943894
C40   C     C_R   0.118487 0.618760 0.501514 0.924929
C41   C     C_R   0.122395 0.384918 0.502284 0.931866
C42   C     C_2   0.750377 0.821106 0.405182 -0.174471
H1    H     H_    0.735210 0.855252 0.311860 0.162627
H2    H     H_    0.276626 0.815388 0.594744 0.150636
H3    H     H_    0.759857 0.675660 0.545734 0.125990
H4    H     H_    0.762953 0.322133 0.554415 0.130563
H5    H     H_    0.445400 0.972577 0.890171 0.180483
H6    H     H_    0.948535 0.467116 0.890641 0.193469
H7    H     H_    0.623660 0.944738 0.127227 0.095051
H8    H     H_    0.131445 0.468611 0.130498 0.101463
H9    H     H_    0.351073 0.379608 0.189299 0.250621
H10   H     H_    0.407647 0.413087 0.343930 0.269039
H11   H     H_    0.470178 0.371319 0.208633 0.256973
H12   H     H_    0.726847 0.154896 0.305019 0.172070
H13   H     H_    0.463311 0.256124 0.371899 0.208072
H14   H     H_    0.393242 0.224483 0.230236 0.244698
H15   H     H_    0.198327 0.740636 0.130788 0.275271
H16   H     H_    0.131392 0.839220 0.154317 0.259904
H17   H     H_    0.220252 0.840131 0.040538 0.249755
H18   H     H_    0.261802 0.916858 0.251109 0.198690
H19   H     H_    0.332452 0.822449 0.219158 0.226799
H20   H     H_    0.899204 0.926344 0.368351 0.268255
H21   H     H_    0.970212 0.867040 0.488088 0.269556
H22   H     H_    0.006907 0.887158 0.322475 0.249354
H23   H     H_    0.224337 0.343833 0.303734 0.172002
H24   H     H_    0.960551 0.734369 0.343486 0.226148
H25   H     H_    0.886407 0.790091 0.227973 0.206571
H26   H     H_    0.947810 0.109249 0.436480 0.269244
H27   H     H_    0.877439 0.081583 0.291890 0.257804
H28   H     H_    0.990462 0.116288 0.271982 0.250936
H29   H     H_    0.878679 0.236627 0.214956 0.194441
H30   H     H_    0.959515 0.263200 0.345239 0.225271
H31   H     H_    0.729738 0.066611 0.062452 0.267535
H32   H     H_    0.754177 0.955125 0.008022 0.260160
H33   H     H_    0.801220 0.048395 0.926265 0.267199
H34   H     H_    0.119243 0.747843 0.337627 0.179192
H35   H     H_    0.676172 0.985024 0.791169 0.237873
H36   H     H_    0.654904 0.097077 0.840611 0.229290
H37   H     H_    0.229841 0.583033 0.055040 0.272010
H38   H     H_    0.256849 0.472270 0.999806 0.259569
H39   H     H_    0.298282 0.567047 0.914935 0.267099
H40   H     H_    0.173712 0.499433 0.786764 0.242759
H41   H     H_    0.147770 0.610523 0.838808 0.233686
H42   H     H_    0.330763 0.046793 0.191344 0.187019
H43   H     H_    0.353862 0.961086 0.071351 0.119442
H44   H     H_    0.318907 0.068697 0.018002 0.149533
H45   H     H_    0.721527 0.806586 0.608110 0.160007
H46   H     H_    0.830188 0.513213 0.211537 0.201076
H47   H     H_    0.863309 0.425475 0.100819 0.116210
H48   H     H_    0.802057 0.519223 0.038140 0.132843
H49   H     H_    0.724017 0.189800 0.606895 0.156175
H50   H     H_    0.227270 0.312736 0.607032 0.160522
H51   H     H_    0.238862 0.680587 0.574176 0.142722
H52   H     H_    0.261655 0.178272 0.554079 0.137594
N1    N     N_2   0.501330 0.000000 0.852150 -0.202674
N2    N     N_2   0.001330 0.500000 0.852150 -0.201208
N3    N     N_2   0.501360 0.000000 0.147810 0.070239
N4    N     N_2   0.001360 0.500000 0.147810 0.066068
O1    O     O_R   0.409520 0.909540 0.613040 -0.618585
O2    O     O_R   0.590440 0.909540 0.613100 -0.635727
O3    O     O_R   0.090440 0.590460 0.613100 -0.639817
O4    O     O_R   0.090440 0.409540 0.613100 -0.634174
O5    O     O_R   0.590480 0.090460 0.386960 -0.603083
O6    O     O_R   0.590480 0.909540 0.386960 -0.627891
O7    O     O_R   0.090480 0.590460 0.386960 -0.610664
O8    O     O_R   0.090480 0.409540 0.386960 -0.636602
O9    O     O_3   0.448024 0.062710 0.091430 -0.531196
O10   O     O_3   0.933128 0.544754 0.087782 -0.543091
O11   O     O_R   0.409520 0.090460 0.613040 -0.597856
O12   O     O_R   0.909520 0.409540 0.613040 -0.613501
O13   O     O_R   0.909520 0.590460 0.613040 -0.594193
O14   O     O_R   0.409560 0.909540 0.386900 -0.630030
O15   O     O_R   0.409560 0.090460 0.386900 -0.611287
O16   O     O_R   0.909560 0.409540 0.386900 -0.637843
O17   O     O_R   0.909560 0.590460 0.386900 -0.608779
O18   O     O_R   0.590440 0.090460 0.613100 -0.638788
Zn1   Zn    Zn3+2 0.499970 0.000000 0.650990 0.927392
Zn2   Zn    Zn3+2 0.999970 0.500000 0.650990 0.929205
Zn3   Zn    Zn3+2 0.500030 0.000000 0.349010 0.958596
Zn4   Zn    Zn3+2 0.000030 0.500000 0.349010 0.950953

loop_
_geom_bond_atom_site_label_1
_geom_bond_atom_site_label_2
_ccdc_geom_bond_type
C24   H10   S    
C5    C42   D    
C34   O13   A    
C37   H46   S    
C4    C8    D    
C1    O1    A    
C32   H33   S    
C35   H39   S    
O11   Zn1   S    
C39   O6    A    
C3    H23   S    
N1    Zn1   S    
C38   O5    A    
C37   H48   S    
O13   Zn2   S    
O3    Zn2   S    
N2    Zn2   S    
C19   C21   S    
C15   H2    S    
C3    C7    D    
C10   C15   D    
C1    O14   A    
C32   H32   S    
C9    C22   S    
C6    H49   S    
C33   H41   S    
C35   H38   S    
N4    O10   S    
C41   O4    A    
C11   C42   S    
C2    C13   S    
C12   O11   A    
C16   C34   S    
C40   O3    A    
O15   Zn3   S    
C20   N3    D    
C6    C38   S    
O7    Zn4   S    
C1    C15   S    
C25   H18   S    
C26   H17   S    
O4    Zn2   S    
O6    Zn3   S    
C24   H9    S    
C36   O9    S    
C18   N1    D    
O12   Zn2   S    
C2    C6    D    
C21   H8    S    
C30   H28   S    
C31   H35   S    
C41   O8    A    
C17   H4    S    
C37   O10   S    
C2    H12   S    
C32   H31   S    
C25   H19   S    
C36   H44   S    
C25   C26   S    
C5    H45   S    
N3    Zn3   S    
C9    C14   D    
C29   C30   S    
C3    C9    S    
O1    Zn1   S    
C20   H7    S    
C38   O18   A    
C11   C16   D    
C31   C32   S    
C11   C27   S    
C17   C23   S    
C26   H16   S    
C28   H22   S    
C10   C25   S    
C12   C14   S    
C5    C39   S    
C19   C33   S    
C22   C24   S    
C42   H1    S    
C4    C10   S    
C30   H27   S    
C31   H36   S    
C12   O15   A    
C33   H40   S    
C13   C29   S    
C23   O12   A    
H6    N2    S    
O8    Zn4   S    
O5    Zn3   S    
C8    H51   S    
C16   H3    S    
O14   Zn3   S    
C22   H14   S    
N4    Zn4   S    
C22   H13   S    
O2    Zn1   S    
C37   H47   S    
C36   H43   S    
C24   H11   S    
C13   C17   D    
C29   H30   S    
C34   O17   A    
C27   H24   S    
C23   O16   A    
C21   N4    D    
C39   O2    A    
C36   H42   S    
C7    H50   S    
C35   H37   S    
C33   C35   S    
O18   Zn1   S    
C18   C20   S    
C7    C41   S    
C26   H15   S    
O16   Zn4   S    
C4    H34   S    
C27   H25   S    
N3    O9    S    
C28   H21   S    
O17   Zn4   S    
C27   C28   S    
H5    N1    S    
C18   C31   S    
C8    C40   S    
C14   H52   S    
C30   H26   S    
C19   N2    D    
C40   O7    A    
C29   H29   S    
C28   H20   S    
