data_mof_unit_34029.cif
_audit_creation_date              2012-10-26T20:35:49-0400
_audit_creation_method            fapswitch 2.2
_symmetry_space_group_name_H-M    P1
_symmetry_Int_Tables_number       1
_space_group_crystal_system       triclinic
_cell_length_a                    8.728946
_cell_length_b                    15.837727
_cell_length_c                    17.033427
_cell_angle_alpha                 97.164334
_cell_angle_beta                  91.48167
_cell_angle_gamma                 84.823982
_cell_volume                      2326.6477212

loop_
_atom_site_label
_atom_site_type_symbol
_atom_type_description
_atom_site_fract_x
_atom_site_fract_y
_atom_site_fract_z
_atom_type_partial_charge
C1    C     C_R   0.502735 0.488737 0.348505 0.632069
C2    C     C_R   0.368653 0.156632 0.442949 -0.016144
C3    C     C_R   0.615050 0.755009 0.561171 0.129637
C4    C     C_R   0.384950 0.244991 0.438829 0.129637
C5    C     C_R   0.205564 0.521704 0.500537 0.585784
C6    C     C_R   0.794436 0.478296 0.499463 0.585784
C7    C     C_2   0.040891 0.533628 0.500082 -0.098008
C8    C     C_2   0.959109 0.466372 0.499918 -0.098008
C9    C     C_R   0.507988 0.480889 0.261838 -0.043420
C10   C     C_R   0.492012 0.519111 0.738162 -0.043420
C11   C     C_R   0.413922 0.539625 0.223209 0.380373
C12   C     C_R   0.497264 0.511263 0.651495 0.632069
C13   C     C_R   0.586078 0.460375 0.776791 0.380373
C14   C     C_R   0.409474 0.533260 0.141341 0.460011
C15   C     C_R   0.590527 0.466739 0.858659 0.460011
C16   C     C_R   0.502297 0.468840 0.095897 0.136986
C17   C     C_R   0.497704 0.531160 0.904103 0.136986
C18   C     C_R   0.595731 0.407843 0.133413 -0.075904
C19   C     C_R   0.404270 0.592157 0.866587 -0.075904
C20   C     C_R   0.599900 0.414021 0.217288 -0.062417
C21   C     C_R   0.400101 0.585979 0.782712 -0.062418
C22   C     C_2   0.692697 0.341023 0.082930 0.319611
C23   C     C_R   0.432667 0.752058 0.455686 0.065026
C24   C     C_2   0.307305 0.658977 0.917070 0.319610
C25   C     C_2   0.699448 0.350801 0.257502 0.361032
C26   C     C_2   0.300553 0.649199 0.742498 0.361032
C27   C     C_2   0.639203 0.122068 0.616659 0.272314
C28   C     C_2   0.360795 0.877932 0.383342 0.272315
C29   C     C_2   0.746561 0.890830 0.606779 0.246653
C30   C     C_2   0.253439 0.109171 0.393220 0.246652
C31   C     C_2   0.706359 0.709489 0.619217 0.374891
C32   C     C_2   0.293641 0.290511 0.380783 0.374890
C33   C     C_R   0.567333 0.247941 0.544314 0.065025
C34   C     C_R   0.442767 0.839569 0.449358 -0.002804
C35   C     C_R   0.557232 0.160431 0.550642 -0.002804
C36   C     C_R   0.541282 0.886967 0.501870 0.132847
C37   C     C_R   0.458718 0.113033 0.498129 0.132848
C38   C     C_R   0.631347 0.843368 0.557051 -0.016144
Cu1   Cu    Cu3+1 0.492520 0.415770 0.496210 1.051230
Cu2   Cu    Cu3+1 0.507480 0.584230 0.503790 1.051230
F1    F     F_    0.678649 0.398005 0.734943 -0.558175
F2    F     F_    0.321350 0.601994 0.265056 -0.558174
F3    F     F_    0.688391 0.410674 0.893748 -0.540216
F4    F     F_    0.311608 0.589325 0.106251 -0.540216
H1    H     H_    0.986833 0.598099 0.499465 0.129452
H2    H     H_    0.394060 0.936962 0.365645 0.155957
H3    H     H_    0.791638 0.945868 0.586635 0.142077
H4    H     H_    0.208361 0.054133 0.413365 0.142077
H5    H     H_    0.813225 0.672431 0.602177 0.111813
H6    H     H_    0.186774 0.327569 0.397823 0.111811
H7    H     H_    0.013167 0.401901 0.500535 0.129452
H8    H     H_    0.640625 0.284537 0.585043 0.220843
H9    H     H_    0.359375 0.715462 0.414957 0.220843
H10   H     H_    0.654905 0.319415 0.023196 0.200004
H11   H     H_    0.345098 0.680585 0.976803 0.200002
H12   H     H_    0.705172 0.283498 0.234773 0.172041
H13   H     H_    0.294829 0.716503 0.765227 0.172041
H14   H     H_    0.605938 0.063038 0.634355 0.155957
N1    N     N_2   0.505047 0.464339 0.012202 -0.145329
N2    N     N_2   0.494954 0.535661 0.987798 -0.145329
N3    N     N_R   0.518730 0.710760 0.509500 -0.291806
N4    N     N_R   0.481270 0.289240 0.490500 -0.291806
N5    N     N_2   0.560910 0.975707 0.496942 -0.268645
N6    N     N_2   0.439089 0.024293 0.503058 -0.268645
O1    O     O_R   0.493000 0.421040 0.382520 -0.471888
O2    O     O_2   0.182139 0.688132 0.894221 -0.437241
O3    O     O_2   0.779359 0.373641 0.314745 -0.478228
O4    O     O_2   0.220642 0.626359 0.685255 -0.478228
O5    O     O_2   0.743295 0.156828 0.653199 -0.436705
O6    O     O_2   0.256703 0.843172 0.346802 -0.436706
O7    O     O_2   0.791435 0.870432 0.670774 -0.422473
O8    O     O_2   0.208569 0.129567 0.329224 -0.422472
O9    O     O_2   0.664337 0.715472 0.687645 -0.443016
O10   O     O_2   0.335664 0.284528 0.312355 -0.443015
O11   O     O_R   0.507000 0.578960 0.617480 -0.471888
O12   O     O_R   0.505640 0.563310 0.388930 -0.471922
O13   O     O_R   0.494360 0.436690 0.611070 -0.471922
O14   O     O_R   0.269980 0.445280 0.497530 -0.544675
O15   O     O_R   0.730020 0.554720 0.502470 -0.544675
O16   O     O_R   0.282610 0.587550 0.503940 -0.471631
O17   O     O_R   0.717390 0.412450 0.496060 -0.471631
O18   O     O_2   0.817862 0.311868 0.105779 -0.437242

loop_
_geom_bond_atom_site_label_1
_geom_bond_atom_site_label_2
_ccdc_geom_bond_type
C21   C26   S    
C25   O3    D    
C25   H12   S    
C13   F1    S    
C7    C8    D    
C22   H10   S    
C33   H8    S    
C28   H2    S    
C29   H3    S    
C22   O18   D    
C30   H4    S    
C35   C37   A    
C32   O10   D    
C11   C14   A    
C31   O9    D    
C20   C25   S    
C4    N4    A    
C11   F2    S    
C17   C19   A    
C3    C38   A    
C33   N4    A    
C29   C38   S    
C1    O1    A    
Cu2   O16   S    
C36   N5    S    
C34   C36   A    
C27   O5    D    
C24   O2    D    
C28   C34   S    
N1    N2    D    
C6    O17   A    
Cu1   O1    S    
C31   H5    S    
C23   H9    S    
C3    N3    A    
C10   C21   A    
Cu1   O14   S    
C1    C9    S    
Cu1   O17   S    
Cu1   Cu2   S    
C5    C7    S    
C6    C8    S    
C27   C35   S    
C10   C13   A    
Cu2   N3    S    
Cu2   O12   S    
C24   H11   S    
C16   N1    S    
C2    C4    A    
C9    C20   A    
C23   C34   A    
C12   O13   A    
Cu2   O15   S    
C5    O16   A    
C3    C31   S    
C9    C11   A    
C8    H7    S    
C32   H6    S    
C4    C32   S    
C10   C12   S    
C13   C15   A    
C14   C16   A    
C7    H1    S    
C37   N6    S    
C14   F4    S    
C15   C17   A    
Cu1   N4    S    
C19   C21   A    
C18   C22   S    
C1    O12   A    
C28   O6    D    
C27   H14   S    
C30   O8    D    
Cu2   O11   S    
C2    C30   S    
C26   O4    D    
C36   C38   A    
C19   C24   S    
C15   F3    S    
C2    C37   A    
C6    O15   A    
C33   C35   A    
C18   C20   A    
C26   H13   S    
C17   N2    S    
N5    N6    D    
C23   N3    A    
C16   C18   A    
C12   O11   A    
Cu1   O13   S    
C5    O14   A    
C29   O7    D    
