data_mof_unit_12160.cif
_audit_creation_date              2012-12-10T20:51:28-0500
_audit_creation_method            fapswitch 2.2
_symmetry_space_group_name_H-M    P1
_symmetry_Int_Tables_number       1
_space_group_crystal_system       triclinic
_cell_length_a                    17.60952
_cell_length_b                    8.932841
_cell_length_c                    8.105257
_cell_angle_alpha                 89.954387
_cell_angle_beta                  90.236513
_cell_angle_gamma                 90.029924
_cell_volume                      1274.97014585

loop_
_atom_site_label
_atom_site_type_symbol
_atom_type_description
_atom_site_fract_x
_atom_site_fract_y
_atom_site_fract_z
_atom_type_partial_charge
C1    C     C_R   0.500017 0.217987 0.500037 0.927162
C2    C     C_R   0.848123 0.416450 0.384560 0.369964
C3    C     C_R   0.767884 0.595533 0.612013 -0.060323
C4    C     C_R   0.231102 0.411546 0.386872 -0.060448
C5    C     C_R   0.232698 0.601948 0.606295 -0.049430
C6    C     C_R   0.768475 0.406312 0.391341 -0.049234
C7    C     C_R   0.729044 0.500765 0.501190 -0.145994
C8    C     C_R   0.270995 0.503891 0.498336 -0.145109
C9    C     C_R   0.886131 0.506803 0.498997 -0.050909
C10   C     C_R   0.113905 0.510007 0.495309 -0.050903
C11   C     C_1   0.966339 0.509614 0.497402 0.199960
C12   C     C_R   0.499985 0.782012 0.499963 0.926612
C13   C     C_1   0.033683 0.510624 0.496381 0.199702
C14   C     C_1   0.500006 0.065189 0.500054 -0.188736
C15   C     C_1   0.499992 0.934808 0.499949 -0.189075
C16   C     C_R   0.353378 0.500065 0.499595 0.946038
C17   C     C_R   0.646627 0.500328 0.500381 0.945302
C18   C     C_R   0.847825 0.595791 0.613471 0.369564
C19   C     C_R   0.151239 0.417394 0.382762 0.370179
C20   C     C_R   0.152859 0.598001 0.610462 0.369361
H1    H     H_    0.857486 0.736012 0.799045 0.340609
H2    H     H_    0.310948 0.767364 0.623700 0.176332
H3    H     H_    0.763388 0.216759 0.245522 0.203587
H4    H     H_    0.692675 0.236422 0.374537 0.176136
H5    H     H_    0.140119 0.276309 0.198329 0.340891
H6    H     H_    0.139729 0.678751 0.830056 0.345981
H7    H     H_    0.861188 0.336956 0.164331 0.345905
H8    H     H_    0.741271 0.803500 0.695727 0.189148
H9    H     H_    0.736977 0.664938 0.841032 0.200035
H10   H     H_    0.254354 0.201348 0.305189 0.189939
H11   H     H_    0.262116 0.338713 0.159220 0.200433
H12   H     H_    0.240453 0.790996 0.752645 0.203204
N1    N     N_1   0.500000 0.500000 0.073640 -0.025263
N2    N     N_1   0.500000 0.500000 0.926360 -0.025145
N3    N     N_3   0.725247 0.692648 0.718207 -0.435366
N4    N     N_3   0.272567 0.310848 0.282537 -0.436734
N5    N     N_3   0.275480 0.708137 0.703819 -0.419587
N6    N     N_3   0.727144 0.297654 0.294182 -0.420204
O1    O     O_R   0.500000 0.285350 0.636850 -0.619590
O2    O     O_3   0.107521 0.332738 0.275106 -0.725257
O3    O     O_3   0.111259 0.678129 0.724394 -0.726454
O4    O     O_3   0.890463 0.339929 0.268904 -0.724988
O5    O     O_R   0.500000 0.714650 0.363150 -0.619507
O6    O     O_R   0.500000 0.714650 0.636850 -0.612663
O7    O     O_R   0.500000 0.285350 0.363150 -0.612780
O8    O     O_R   0.389120 0.500000 0.636930 -0.607958
O9    O     O_R   0.610880 0.500000 0.363070 -0.607843
O10   O     O_R   0.610880 0.500000 0.636930 -0.603788
O11   O     O_R   0.389120 0.500000 0.363070 -0.604310
O12   O     O_3   0.890615 0.682872 0.720513 -0.726698
Zn1   Zn    Zn3+2 0.500000 0.500000 0.682780 1.004164
Zn2   Zn    Zn3+2 0.500000 0.500000 0.317220 1.004088

loop_
_geom_bond_atom_site_label_1
_geom_bond_atom_site_label_2
_ccdc_geom_bond_type
C2    C9    A    
C5    C8    A    
O1    Zn1   S    
C4    N4    S    
C6    C7    A    
H10   N4    S    
H3    N6    S    
C11   C13   T    
H9    N3    S    
H4    N6    S    
C4    C19   A    
C12   C15   S    
C3    N3    S    
C10   C19   A    
C4    C8    A    
C17   O10   A    
O11   Zn2   S    
C6    N6    S    
N1    N2    T    
C8    C16   S    
C5    C20   A    
H12   N5    S    
N1    Zn2   S    
C9    C11   S    
H7    O4    S    
C1    O7    A    
N2    Zn1   S    
C2    C6    A    
C2    O4    S    
O6    Zn1   S    
H1    O12   S    
C20   O3    S    
C12   O5    A    
C3    C7    A    
H5    O2    S    
O5    Zn2   S    
C5    N5    S    
C1    O1    A    
C16   O8    A    
C9    C18   A    
C16   O11   A    
C18   O12   S    
C3    C18   A    
C12   O6    A    
C19   O2    S    
O9    Zn2   S    
H8    N3    S    
H11   N4    S    
C1    C14   S    
O7    Zn2   S    
C14   C15   T    
H2    N5    S    
O8    Zn1   S    
O10   Zn1   S    
C17   O9    A    
H6    O3    S    
C10   C20   A    
C7    C17   S    
C10   C13   S    
