data_mof_unit_61496.cif
_audit_creation_date              2012-12-10T20:01:49-0500
_audit_creation_method            fapswitch 2.2
_symmetry_space_group_name_H-M    P1
_symmetry_Int_Tables_number       1
_space_group_crystal_system       triclinic
_cell_length_a                    27.131707
_cell_length_b                    27.163631
_cell_length_c                    27.599025
_cell_angle_alpha                 108.138961
_cell_angle_beta                  112.254215
_cell_angle_gamma                 107.436672
_cell_volume                      15745.084383

loop_
_atom_site_label
_atom_site_type_symbol
_atom_type_description
_atom_site_fract_x
_atom_site_fract_y
_atom_site_fract_z
_atom_type_partial_charge
C1    C     C_R   0.080467 0.080604 0.499854 0.911129
C2    C     C_1   0.159955 0.161442 0.497675 -0.034995
C3    C     C_R   0.403920 0.189861 0.386088 -0.106587
C4    C     C_R   0.455501 0.185694 0.390810 -0.133559
C5    C     C_R   0.478529 0.200259 0.356801 -0.129115
C6    C     C_1   0.238083 0.237983 0.386646 0.168762
C7    C     C_R   0.445768 0.128637 0.223100 0.136691
C8    C     C_R   0.482249 0.101424 0.234538 -0.157882
C9    C     C_R   0.456623 0.042863 0.222368 -0.130788
C10   C     C_R   0.394554 0.011202 0.198866 -0.107120
C11   C     C_R   0.357997 0.038034 0.187423 -0.130594
C12   C     C_R   0.383424 0.096548 0.199399 -0.126445
C13   C     C_1   0.123638 0.124594 0.498874 -0.176918
C14   C     C_1   0.345242 0.347109 0.608322 0.178108
C15   C     C_R   0.712112 0.945561 0.312132 0.131412
C16   C     C_R   0.722913 0.896872 0.302138 -0.143421
C17   C     C_R   0.706146 0.859702 0.324882 -0.140244
C18   C     C_R   0.677966 0.870443 0.357187 -0.109082
C19   C     C_R   0.666226 0.918209 0.366539 -0.133850
C20   C     C_R   0.683045 0.955578 0.343991 -0.160663
C21   C     C_1   0.778340 0.101642 0.220261 0.171571
C22   C     C_R   0.873242 0.093109 0.306631 0.129282
C23   C     C_R   0.894346 0.082906 0.267129 -0.141650
C24   C     C_R   0.084600 0.999837 0.584464 0.873023
C25   C     C_R   0.955654 0.115035 0.287722 -0.116252
C26   C     C_R   0.996229 0.157346 0.347786 -0.093469
C27   C     C_R   0.975573 0.167636 0.387362 -0.143024
C28   C     C_R   0.914298 0.135715 0.366932 -0.140908
C29   C     C_1   0.858551 0.743369 0.512702 0.168342
C30   C     C_1   0.374570 0.374440 0.499264 -0.172786
C31   C     C_R   0.686592 0.991562 0.248371 -0.253021
C32   C     C_R   0.702747 0.027051 0.224259 0.084583
C33   C     C_R   0.763210 0.062370 0.243898 -0.039797
C34   C     C_R   0.808396 0.057766 0.285427 -0.056602
C35   C     C_R   0.790904 0.017360 0.305218 0.052010
C36   C     C_R   0.730583 0.985921 0.289029 -0.000116
C37   C     C_1   0.356553 0.999752 0.856608 -0.199434
C38   C     C_1   0.656344 0.018257 0.172074 -0.045625
C39   C     C_1   0.835115 0.007920 0.341854 -0.053819
C40   C     C_1   0.872843 0.002085 0.374690 -0.170152
C41   C     C_R   0.919235 0.919364 0.499845 0.909795
C42   C     C_1   0.617999 0.009105 0.126549 -0.174366
C43   C     C_R   0.760295 0.702883 0.506980 -0.059950
C44   C     C_R   0.707330 0.706438 0.500141 0.044615
C45   C     C_R   0.698124 0.752880 0.493164 0.000450
C46   C     C_R   0.742071 0.795336 0.492746 -0.257339
C47   C     C_R   0.794606 0.792423 0.499787 0.084176
C48   C     C_R   0.242613 0.243171 0.442291 -0.050322
C49   C     C_R   0.804290 0.746458 0.506892 -0.039492
C50   C     C_1   0.662351 0.662016 0.499854 -0.050469
C51   C     C_1   0.838371 0.837527 0.499757 -0.037397
C52   C     C_1   0.875250 0.875135 0.499834 -0.177625
C53   C     C_R   0.917782 0.000103 0.418187 0.920590
C54   C     C_1   0.625120 0.624919 0.499893 -0.180522
C55   C     C_R   0.492591 0.919311 0.912053 0.907786
C56   C     C_R   0.406602 0.999884 0.906705 0.870741
C57   C     C_R   0.489834 0.080563 0.070566 0.906055
C58   C     C_R   0.573416 0.000398 0.073902 0.911713
C59   C     C_R   0.291413 0.292078 0.497312 0.040747
C60   C     C_R   0.501680 0.419028 0.420558 0.924845
C61   C     C_R   0.418885 0.418877 0.499857 0.928559
C62   C     C_R   0.498512 0.581167 0.579424 0.926541
C63   C     C_R   0.581069 0.580996 0.500005 0.923384
C64   C     C_R   0.538369 0.766320 0.730028 0.000882
C65   C     C_1   0.134583 0.999560 0.634234 -0.199507
C66   C     C_R   0.496647 0.706443 0.703884 0.044970
C67   C     C_R   0.453499 0.689569 0.720232 -0.053031
C68   C     C_R   0.451927 0.732875 0.762820 -0.042094
C69   C     C_R   0.493331 0.792385 0.788268 0.081874
C70   C     C_R   0.295851 0.297367 0.551346 -0.000136
C71   C     C_R   0.535836 0.808794 0.771893 -0.244108
C72   C     C_1   0.496972 0.662291 0.659251 -0.043110
C73   C     C_1   0.493359 0.837605 0.831953 -0.034125
C74   C     C_1   0.493163 0.875161 0.868599 -0.175988
C75   C     C_1   0.497453 0.625214 0.622435 -0.179770
C76   C     C_R   0.524032 0.309225 0.259644 -0.059036
C77   C     C_1   0.175834 0.999502 0.675483 0.014093
C78   C     C_R   0.499839 0.293353 0.292853 0.030295
C79   C     C_R   0.474304 0.234570 0.281493 -0.055703
C80   C     C_R   0.473024 0.190968 0.236225 -0.057662
C81   C     C_R   0.251824 0.253840 0.550375 -0.239246
C82   C     C_R   0.496763 0.206781 0.202686 0.026746
C83   C     C_R   0.522358 0.265541 0.214294 -0.053728
C84   C     C_1   0.502032 0.337922 0.339515 -0.031763
C85   C     C_1   0.493579 0.162108 0.155155 -0.024318
C86   C     C_1   0.491342 0.124749 0.116025 -0.169745
C87   C     C_1   0.502602 0.375048 0.377304 -0.182740
C88   C     C_1   0.224924 0.999526 0.724663 0.005274
C89   C     C_1   0.266177 0.999580 0.766017 0.005089
C90   C     C_1   0.315278 0.999665 0.815245 0.013594
C91   C     C_1   0.147761 0.148672 0.385722 0.161520
C92   C     C_R   0.203508 0.205245 0.496193 0.078128
C93   C     C_R   0.769548 0.653792 0.514315 0.133671
C94   C     C_R   0.815668 0.665044 0.568652 -0.137535
C95   C     C_R   0.823646 0.618730 0.575854 -0.128786
C96   C     C_R   0.785579 0.560978 0.529013 -0.105250
C97   C     C_R   0.739550 0.549444 0.474834 -0.136922
C98   C     C_R   0.731591 0.595658 0.467355 -0.140754
C99   C     C_R   0.643023 0.758020 0.485852 0.135272
C100  C     C_R   0.625918 0.758990 0.528165 -0.143628
C101  C     C_R   0.573897 0.763638 0.520786 -0.136248
C102  C     C_R   0.539007 0.768174 0.471655 -0.110817
C103  C     C_R   0.198280 0.199399 0.441748 -0.040252
C104  C     C_R   0.556036 0.767999 0.429766 -0.135166
C105  C     C_R   0.607819 0.762989 0.436768 -0.165308
C106  C     C_R   0.584996 0.785858 0.714618 0.131945
C107  C     C_R   0.589497 0.828402 0.695419 -0.168043
C108  C     C_R   0.634104 0.847784 0.682053 -0.145371
C109  C     C_R   0.674577 0.824978 0.687787 -0.121658
C110  C     C_R   0.670581 0.782796 0.706970 -0.144106
C111  C     C_R   0.626248 0.763501 0.720685 -0.138213
C112  C     C_1   0.410861 0.627914 0.693252 0.187401
C113  C     C_1   0.408006 0.716427 0.780335 0.183285
C114  C     C_1   0.336829 0.336931 0.498404 -0.030009
C115  C     C_1   0.545513 0.280742 0.178535 0.183995
C116  C     C_R   0.550825 0.371484 0.272279 0.137209
C117  C     C_R   0.613190 0.404028 0.296306 -0.145168
C118  C     C_R   0.638314 0.462670 0.308561 -0.150937
C119  C     C_R   0.601487 0.489251 0.297267 -0.116228
C120  C     C_R   0.539421 0.457174 0.273483 -0.129105
C121  C     C_R   0.514055 0.398433 0.260853 -0.138196
C122  C     C_R   0.449880 0.218978 0.317669 0.136246
C123  C     C_R   0.397977 0.222928 0.313037 -0.161953
C124  C     C_R   0.375199 0.208479 0.347246 -0.133812
H1    H     H_    0.735630 0.831331 0.487551 0.151470
H2    H     H_    0.652869 0.756220 0.566847 0.129848
H3    H     H_    0.560638 0.763768 0.553175 0.147949
H4    H     H_    0.498814 0.771883 0.466077 0.127196
H5    H     H_    0.529016 0.771589 0.391755 0.129389
H6    H     H_    0.620170 0.762446 0.403677 0.120654
H7    H     H_    0.558308 0.846335 0.690553 0.132078
H8    H     H_    0.637181 0.880371 0.667065 0.136930
H9    H     H_    0.709049 0.840018 0.677385 0.129284
H10   H     H_    0.702071 0.765284 0.711547 0.134728
H11   H     H_    0.624421 0.731541 0.736492 0.134884
H12   H     H_    0.567723 0.854952 0.792468 0.156245
H13   H     H_    0.642237 0.384025 0.305686 0.129820
H14   H     H_    0.686395 0.487612 0.327097 0.137726
H15   H     H_    0.621047 0.534705 0.306980 0.126666
H16   H     H_    0.510953 0.477814 0.264788 0.134328
H17   H     H_    0.465878 0.373956 0.242313 0.131210
H18   H     H_    0.375240 0.237105 0.282918 0.133984
H19   H     H_    0.335267 0.211669 0.343619 0.152533
H20   H     H_    0.386209 0.178669 0.412519 0.132221
H21   H     H_    0.477707 0.171275 0.420908 0.131011
H22   H     H_    0.518663 0.197105 0.360993 0.125255
H23   H     H_    0.255201 0.257700 0.591989 0.157122
H24   H     H_    0.530439 0.125644 0.253004 0.127712
H25   H     H_    0.484892 0.022054 0.231231 0.129610
H26   H     H_    0.374789 0.965886 0.189525 0.125961
H27   H     H_    0.309943 0.013469 0.169219 0.132632
H28   H     H_    0.354658 0.116858 0.190211 0.127958
H29   H     H_    0.744268 0.887720 0.276772 0.134380
H30   H     H_    0.714947 0.822527 0.317407 0.134451
H31   H     H_    0.665101 0.841689 0.374837 0.117442
H32   H     H_    0.644221 0.926373 0.391403 0.129270
H33   H     H_    0.674022 0.992653 0.351880 0.128238
H34   H     H_    0.639284 0.965048 0.232302 0.155080
H35   H     H_    0.863432 0.049808 0.220634 0.132656
H36   H     H_    0.971758 0.106978 0.257169 0.143517
H37   H     H_    0.043668 0.182119 0.363684 0.139488
H38   H     H_    0.007062 0.200282 0.433894 0.139219
H39   H     H_    0.898828 0.143919 0.398046 0.134179
H40   H     H_    0.845113 0.709564 0.605412 0.128709
H41   H     H_    0.859208 0.627588 0.617824 0.132746
H42   H     H_    0.791696 0.525161 0.534726 0.127890
H43   H     H_    0.710000 0.504676 0.438722 0.138756
H44   H     H_    0.695784 0.586252 0.425217 0.128837
N1    N     N_1   0.107446 0.108192 0.341043 -0.205262
N2    N     N_1   0.376889 0.578752 0.671728 -0.187688
N3    N     N_1   0.372981 0.703333 0.794323 -0.188675
N4    N     N_1   0.563973 0.292864 0.150026 -0.192393
N5    N     N_1   0.234460 0.233873 0.342271 -0.215207
N6    N     N_1   0.384782 0.386942 0.653917 -0.191118
N7    N     N_1   0.790400 0.132959 0.201408 -0.192910
N8    N     N_1   0.901843 0.740899 0.517335 -0.195268
O1    O     O_R   0.060410 0.095410 0.533860 -0.615953
O2    O     O_R   0.466080 0.438990 0.405050 -0.621275
O3    O     O_R   0.474020 0.439050 0.535050 -0.614750
O4    O     O_R   0.061590 0.026560 0.466170 -0.607431
O5    O     O_R   0.403970 0.438980 0.464930 -0.614783
O6    O     O_R   0.533920 0.561010 0.594960 -0.619496
O7    O     O_R   0.463870 0.560950 0.524840 -0.615634
O8    O     O_R   0.596030 0.561020 0.535080 -0.617874
O9    O     O_R   0.525980 0.560960 0.464960 -0.617301
O10   O     O_R   0.061450 0.034420 0.595890 -0.598859
O11   O     O_R   0.062630 0.965570 0.528200 -0.596679
O12   O     O_R   0.526720 0.973370 0.931380 -0.614715
O13   O     O_R   0.938410 0.973440 0.533830 -0.613186
O14   O     O_R   0.939590 0.904590 0.466140 -0.610711
O15   O     O_R   0.937370 0.034430 0.471800 -0.617102
O16   O     O_R   0.938550 0.965580 0.404110 -0.615998
O17   O     O_R   0.457840 0.904510 0.931360 -0.607094
O18   O     O_R   0.394760 0.965490 0.929270 -0.598000
O19   O     O_R   0.463630 0.034350 0.929290 -0.597875
O20   O     O_R   0.455760 0.026460 0.051270 -0.611038
O21   O     O_R   0.524630 0.095320 0.051290 -0.607181
O22   O     O_R   0.518840 0.965480 0.053370 -0.617952
O23   O     O_R   0.587720 0.034340 0.053380 -0.608399
O24   O     O_R   0.536130 0.439060 0.475170 -0.616168
Zn1   Zn    Zn3+2 0.999210 0.045970 0.545200 0.969455
Zn2   Zn    Zn3+2 0.000790 0.954030 0.454800 0.980364
Zn3   Zn    Zn3+2 0.445250 0.953940 0.991320 0.977002
Zn4   Zn    Zn3+2 0.537230 0.045890 0.991340 0.984675
Zn5   Zn    Zn3+2 0.546770 0.500050 0.546820 0.974684
Zn6   Zn    Zn3+2 0.453230 0.499960 0.453180 0.974809

loop_
_geom_bond_atom_site_label_1
_geom_bond_atom_site_label_2
_ccdc_geom_bond_type
C8    C9    A    
O3    Zn5   S    
O24   Zn5   S    
C73   C74   T    
C12   H28   S    
C46   H1    S    
C95   C96   A    
C84   C87   T    
C42   C58   S    
C97   C98   A    
C123  C124  A    
C113  N3    T    
C29   C49   S    
C45   C46   A    
C108  C109  A    
O11   Zn2   S    
C9    H25   S    
C26   C27   A    
C50   C54   T    
C6    C48   S    
C37   C90   T    
C24   O11   A    
C100  H2    S    
C76   C78   A    
C18   C19   A    
O4    Zn2   S    
C27   H38   S    
C102  C104  A    
C1    O4    A    
C21   C33   S    
C106  C107  A    
O18   Zn3   S    
C60   O2    A    
C15   C16   A    
C57   C86   S    
O21   Zn4   S    
C24   O10   A    
C34   C35   A    
C64   C71   A    
C69   C71   A    
C2    C13   T    
C118  C119  A    
C92   C103  A    
C43   C93   S    
C62   O7    A    
C110  C111  A    
C37   C56   S    
C1    O1    A    
C66   C72   S    
C35   C36   A    
C77   C88   S    
C16   C17   A    
C21   N7    T    
C23   H35   S    
C107  C108  A    
C124  H19   S    
C69   C73   S    
C120  H16   S    
C32   C38   S    
C9    C10   A    
C41   C52   S    
C68   C113  S    
C63   O8    A    
C66   C67   A    
C22   C28   A    
C19   H32   S    
C14   C70   S    
C8    H24   S    
C72   C75   T    
C22   C34   S    
C17   H30   S    
C95   H41   S    
C76   C83   A    
C104  C105  A    
C60   C87   S    
C33   C34   A    
C106  C111  A    
C15   C20   A    
C99   C105  A    
C79   C122  S    
C112  N2    T    
C58   O23   A    
C65   C77   T    
C116  C121  A    
C91   N1    T    
C57   O20   A    
C109  H9    S    
C67   C68   A    
C101  C102  A    
C121  H17   S    
C7    C8    A    
C107  H7    S    
C45   C99   S    
C71   H12   S    
C78   C79   A    
C68   C69   A    
C47   C51   S    
O19   Zn4   S    
C63   O9    A    
C25   C26   A    
C85   C86   T    
C48   C103  A    
C117  H13   S    
C5    C122  A    
O12   Zn4   S    
O8    Zn5   S    
C51   C52   T    
O10   Zn1   S    
C64   C66   A    
C3    H20   S    
C35   C39   S    
C43   C44   A    
C83   C115  S    
C62   O6    A    
C56   O19   A    
C31   C32   A    
C11   C12   A    
C96   C97   A    
C25   H36   S    
C17   C18   A    
C43   C49   A    
C93   C94   A    
C55   O12   A    
O20   Zn3   S    
C2    C92   S    
C53   O15   A    
C24   C65   S    
C56   O18   A    
C3    C124  A    
C41   O14   A    
C11   H27   S    
C55   O17   A    
C61   O3    A    
C104  H5    S    
O23   Zn4   S    
O1    Zn1   S    
C62   C75   S    
C110  H10   S    
C1    C13   S    
C29   N8    T    
C3    C4    A    
C94   H40   S    
C15   C36   S    
C39   C40   T    
C120  C121  A    
C76   C116  S    
C48   C59   A    
C30   C114  T    
C44   C50   S    
C46   C47   A    
C58   O22   A    
C5    H22   S    
C57   O21   A    
C31   C36   A    
O9    Zn6   S    
O14   Zn2   S    
C44   C45   A    
C91   C103  S    
C4    C5    A    
C16   H29   S    
C119  C120  A    
C64   C106  S    
C105  H6    S    
C6    N5    T    
C47   C49   A    
C82   C85   S    
O15   Zn1   S    
C26   H37   S    
C61   O5    A    
O17   Zn3   S    
C99   C100  A    
C41   O13   A    
C20   H33   S    
O6    Zn5   S    
O13   Zn1   S    
C32   C33   A    
C19   C20   A    
O5    Zn6   S    
C122  C123  A    
C119  H15   S    
C55   C74   S    
C97   H43   S    
C117  C118  A    
C10   H26   S    
C111  H11   S    
C81   C92   A    
C59   C114  S    
C4    H21   S    
O2    Zn6   S    
C123  H18   S    
C100  C101  A    
C101  H3    S    
C80   C82   A    
C116  C117  A    
C96   H42   S    
C23   C25   A    
C94   C95   A    
C53   O16   A    
C108  H8    S    
C31   H34   S    
C10   C11   A    
C60   O24   A    
C59   C70   A    
C79   C80   A    
C38   C42   T    
C78   C84   S    
C67   C112  S    
C115  N4    T    
C88   C89   T    
C14   N6    T    
C40   C53   S    
C54   C63   S    
C30   C61   S    
C109  C110  A    
O22   Zn3   S    
O7    Zn6   S    
O16   Zn2   S    
C22   C23   A    
C7    C12   A    
C70   C81   A    
C81   H23   S    
C82   C83   A    
C89   C90   S    
C118  H14   S    
C102  H4    S    
C93   C98   A    
C98   H44   S    
C18   H31   S    
C28   H39   S    
C7    C80   S    
C27   C28   A    
