data_mof_unit_43743.cif
_audit_creation_date              2013-03-05T16:20:10-0500
_audit_creation_method            fapswitch 2.2
_symmetry_space_group_name_H-M    P1
_symmetry_Int_Tables_number       1
_space_group_crystal_system       triclinic
_cell_length_a                    8.248513
_cell_length_b                    18.86548
_cell_length_c                    27.206475
_cell_angle_alpha                 101.218768
_cell_angle_beta                  91.361803
_cell_angle_gamma                 88.706003
_cell_volume                      4150.89011328

loop_
_atom_site_label
_atom_site_type_symbol
_atom_site_description
_atom_site_fract_x
_atom_site_fract_y
_atom_site_fract_z
_atom_type_partial_charge
P1    P     P_3+3 0.929380 0.335110 0.452880 0.469188
O1    O     O_2   0.106080 0.324280 0.466820 -0.382837
O2    O     O_3   0.859130 0.413620 0.470620 -0.394243
O3    O     O_3   0.376230 0.370290 0.556910 -0.360591
O4    O     O_2   0.238876 0.244876 0.521072 -0.404804
O5    O     O_3   0.926017 0.310688 0.387563 -0.552831
O6    O     O_3   0.352490 0.261379 0.612542 -0.519576
H1    H     H_    0.539441 0.331725 0.640351 0.095963
C1    C     C_3   0.460752 0.273572 0.695592 -0.857088
H2    H     H_    0.373582 0.317384 0.711387 0.272367
H3    H     H_    0.409000 0.220455 0.697788 0.240486
P2    P     P_3+3 0.398530 0.559060 0.613740 0.524032
P3    P     P_3+3 0.958500 0.419897 0.648455 0.465479
O7    O     O_2   0.227190 0.537650 0.620070 -0.355036
O8    O     O_3   0.971110 0.406970 0.583250 -0.396046
O9    O     O_2   0.128072 0.444063 0.669917 -0.384930
O10   O     O_3   0.360365 0.651865 0.635891 -0.536170
O11   O     O_3   0.937636 0.335637 0.665615 -0.511532
C2    C     C_3   0.938478 0.281173 0.622284 0.513606
H4    H     H_    0.046305 0.284726 0.599373 0.179284
H5    H     H_    0.826811 0.285526 0.599470 -0.002433
C3    C     C_3   0.945155 0.207505 0.637176 -0.995649
H6    H     H_    0.061461 0.200603 0.657287 0.282288
H7    H     H_    0.843285 0.202328 0.662093 0.257101
C4    C     C_3   0.905838 0.629446 0.635900 0.439949
H8    H     H_    0.788893 0.606248 0.641824 -0.007576
H9    H     H_    0.976958 0.585803 0.613547 0.163476
C5    C     C_3   0.990604 0.653227 0.686609 -0.913490
H10   H     H_    0.909697 0.689067 0.712860 0.236446
H11   H     H_    0.024558 0.605314 0.702971 0.224825
H12   H     H_    0.101559 0.683327 0.682427 0.291269
Ba1   Ba    Ba6+2 0.160810 0.465630 0.521640 1.569877
C6    C     C_3   0.984811 0.365912 0.366107 0.405790
H13   H     H_    0.095907 0.388738 0.385901 0.098488
H14   H     H_    0.890076 0.408849 0.367308 0.097742
C7    C     C_3   0.024164 0.333487 0.311817 -0.885877
H15   H     H_    0.108959 0.286569 0.310394 0.281659
H16   H     H_    0.082305 0.373351 0.293412 0.212988
H17   H     H_    0.911188 0.315009 0.290623 0.269534
C8    C     C_3   0.502172 0.691816 0.644204 0.337982
H18   H     H_    0.473619 0.746251 0.636101 0.090455
H19   H     H_    0.595935 0.668825 0.617695 0.130794
C9    C     C_3   0.556290 0.702043 0.699018 -0.959296
H20   H     H_    0.452431 0.721506 0.723604 0.282687
H21   H     H_    0.652533 0.743090 0.706672 0.232397
H22   H     H_    0.603874 0.650633 0.708061 0.248746
P4    P     P_3+3 0.880940 0.664900 0.547160 0.494246
O12   O     O_2   0.704230 0.675760 0.533200 -0.375371
O13   O     O_3   0.951180 0.586390 0.529420 -0.379390
O14   O     O_3   0.434080 0.629720 0.443130 -0.315429
O15   O     O_3   0.880270 0.689469 0.612978 -0.585331
P5    P     P_3+3 0.841716 0.580947 0.351293 0.486906
O16   O     O_3   0.351080 0.462080 0.440130 -0.382112
O17   O     O_3   0.839200 0.593040 0.416790 -0.396263
O18   O     O_2   0.668814 0.558638 0.331915 -0.381846
O19   O     O_3   0.863485 0.664815 0.333705 -0.503006
Ba2   Ba    Ba6+2 0.649380 0.534380 0.478400 1.583175
P6    P     P_3+3 0.387406 0.277047 0.552483 0.431235
C10   C     C_3   0.494928 0.276786 0.641475 0.368548
H23   H     H_    0.589640 0.235423 0.627904 0.057320
H24   H     H_    0.575498 0.280296 0.717962 0.260430
O20   O     O_3   0.459240 0.537930 0.559910 -0.354389
C11   C     C_3   0.468414 0.313982 0.397146 0.333916
H25   H     H_    0.595088 0.330889 0.406747 0.100175
H26   H     H_    0.392452 0.329660 0.430811 0.091086
C12   C     C_3   0.464967 0.231975 0.382019 -0.291129
H27   H     H_    0.499415 0.207292 0.414708 0.112352
H28   H     H_    0.340711 0.214656 0.369123 0.163635
P7    P     P_3+3 0.401464 0.439143 0.376731 0.463467
O21   O     O_2   0.583120 0.462390 0.379940 -0.354784
O22   O     O_3   0.407158 0.344999 0.357370 -0.549740
H29   H     H_    0.936770 0.164294 0.603110 0.226224
C13   C     C_3   0.866428 0.719613 0.376749 0.523648
H30   H     H_    0.763183 0.715674 0.401346 0.169730
H31   H     H_    0.981832 0.716137 0.397879 -0.017301
C14   C     C_3   0.852844 0.792818 0.361287 -0.960928
H32   H     H_    0.850610 0.836555 0.395043 0.225181
H33   H     H_    0.957557 0.800661 0.338211 0.248827
H34   H     H_    0.738980 0.796316 0.339198 0.271942
P8    P     P_3+3 0.415992 0.722540 0.441328 0.464977
C15   C     C_3   0.321654 0.717939 0.350368 0.205909
H35   H     H_    0.224739 0.758502 0.363472 0.053218
O23   O     O_2   0.559318 0.757606 0.473946 -0.395006
O24   O     O_3   0.461185 0.732726 0.380736 -0.557668
H36   H     H_    0.277701 0.662602 0.350412 0.106200
C16   C     C_3   0.363002 0.723262 0.296948 0.050043
H37   H     H_    0.447131 0.678070 0.281329 0.176114
H38   H     H_    0.425436 0.774989 0.296726 0.108315
C17   C     C_R   0.979551 0.045787 0.469726 0.009408
C18   C     C_R   0.067997 0.092788 0.446450 0.106745
C19   C     C_R   0.213765 0.068054 0.422839 -0.163228
C20   C     C_R   0.271667 0.997696 0.422409 -0.185568
C21   C     C_R   0.184277 0.950233 0.445159 0.132834
C22   C     C_R   0.037379 0.974071 0.468898 0.019622
C23   C     C_R   0.242755 0.879706 0.444722 -0.235999
C24   C     C_R   0.156672 0.831519 0.467542 -0.045318
C25   C     C_R   0.008205 0.855059 0.491855 -0.001522
C26   C     C_R   0.949639 0.926702 0.492254 -0.014089
C27   C     C_R   0.218291 0.761560 0.469135 0.089943
C28   C     C_R   0.133750 0.719121 0.496297 -0.121529
C29   C     C_R   0.980962 0.736065 0.516427 0.187003
C30   C     C_R   0.920081 0.807830 0.516617 -0.078239
C31   C     C_R   0.833572 0.070347 0.493634 -0.018204
C32   C     C_R   0.778420 0.142915 0.495869 0.003069
C33   C     C_R   0.871388 0.191496 0.474230 -0.035156
C34   C     C_R   0.011545 0.164028 0.447637 -0.114542
H39   H     H_    0.284081 0.103364 0.405020 0.131036
H40   H     H_    0.385256 0.980390 0.404229 0.139948
H41   H     H_    0.357232 0.863237 0.427022 0.169053
H42   H     H_    0.080300 0.197732 0.428242 0.161350
C35   C     C_R   0.779419 0.835547 0.542666 -0.106047
C36   C     C_R   0.717555 0.905129 0.540811 0.116094
C37   C     C_R   0.803524 0.951260 0.516109 0.003072
C38   C     C_R   0.744423 0.022597 0.516192 0.018119
C39   C     C_R   0.570072 0.929427 0.563504 -0.176802
C40   C     C_R   0.509351 0.998929 0.562280 -0.189366
C41   C     C_R   0.596677 0.046275 0.539378 0.137481
C42   C     C_R   0.630312 0.166572 0.519768 -0.020118
C43   C     C_R   0.539343 0.117105 0.540149 -0.252156
C44   C     C_R   0.579265 0.239463 0.523332 0.156206
C45   C     C_R   0.677004 0.287825 0.504973 -0.539704
C46   C     C_R   0.821244 0.265759 0.480311 0.276642
H43   H     H_    0.715463 0.803468 0.564480 0.154570
H44   H     H_    0.501048 0.894464 0.582067 0.126401
H45   H     H_    0.395023 0.016088 0.580030 0.135421
H46   H     H_    0.424962 0.133494 0.557885 0.177421
H47   H     H_    0.637525 0.343635 0.508589 0.180987
C47   C     C_R   0.316345 0.444485 0.172281 0.516201
O25   O     O_2   0.359324 0.394164 0.192132 -0.579297
N1    N     N_R   0.226469 0.501557 0.199068 -0.170860
C48   C     C_R   0.172029 0.556882 0.175508 0.556626
C49   C     C_2   0.036067 0.515755 0.268939 -0.126029
C50   C     C_3   0.999017 0.513645 0.323157 0.138099
C51   C     C_1   0.285045 0.488647 0.335632 0.259263
C52   C     C_2   0.321745 0.489840 0.288536 -0.174771
C53   C     C_2   0.190002 0.503210 0.251752 0.120429
C54   C     C_R   0.303864 0.499569 0.097851 -0.063525
C55   C     C_R   0.356785 0.443076 0.121754 -0.057113
C56   C     C_R   0.449331 0.386154 0.094689 -0.079777
C57   C     C_R   0.210370 0.556665 0.125032 -0.079320
C58   C     C_2   0.152268 0.521266 0.355131 -0.462784
H48   H     H_    0.446334 0.481456 0.276560 0.177395
H49   H     H_    0.493196 0.342138 0.112047 0.171919
C59   C     C_2   0.648102 0.478938 0.639796 -0.440346
C60   C     C_R   0.471848 0.438419 0.968058 0.042453
C61   C     C_R   0.335922 0.557340 0.972927 0.042281
C62   C     C_R   0.424085 0.497633 0.945278 0.084067
C63   C     C_R   0.554389 0.379295 0.938237 -0.202002
C64   C     C_R   0.591957 0.379108 0.888585 -0.084803
C65   C     C_R   0.549441 0.437787 0.866063 -0.055664
C66   C     C_R   0.465184 0.497169 0.894273 -0.066486
C67   C     C_R   0.422449 0.556150 0.871509 -0.053066
C68   C     C_R   0.466234 0.555473 0.821357 0.521274
N2    N     N_R   0.548509 0.496604 0.793821 -0.163295
C69   C     C_R   0.589210 0.437938 0.815762 0.526048
C70   C     C_2   0.749531 0.483007 0.727310 -0.153720
C71   C     C_3   0.796020 0.486288 0.674157 0.122897
C72   C     C_1   0.512688 0.511935 0.657053 0.273261
C73   C     C_2   0.469621 0.512705 0.703993 -0.193999
C74   C     C_2   0.593746 0.496744 0.742167 0.118564
O26   O     O_2   0.659496 0.385457 0.791404 -0.597915
C75   C     C_R   0.435357 0.439951 0.019442 0.040634
C76   C     C_R   0.343842 0.498839 0.046717 0.086702
C77   C     C_R   0.291738 0.556995 0.023452 0.041549
C78   C     C_R   0.487993 0.384569 0.044914 -0.204012
H50   H     H_    0.843879 0.474361 0.754141 0.160239
H51   H     H_    0.655497 0.332276 0.867772 0.166785
H52   H     H_    0.590668 0.331326 0.951813 0.127347
H53   H     H_    0.561652 0.339094 0.027738 0.128766
O27   O     O_2   0.090804 0.606827 0.198539 -0.524726
C79   C     C_R   0.156706 0.612650 0.101259 -0.067858
H54   H     H_    0.936185 0.522017 0.243341 0.156736
H55   H     H_    0.083328 0.657094 0.120967 0.171842
C80   C     C_R   0.295951 0.615802 0.948872 -0.202123
C81   C     C_R   0.338315 0.615108 0.899510 -0.089115
O28   O     O_2   0.433113 0.607902 0.802522 -0.603534
C82   C     C_R   0.196047 0.612911 0.051806 -0.203706
H56   H     H_    0.233500 0.664002 0.967310 0.127935
H57   H     H_    0.304535 0.661558 0.883275 0.166488
H58   H     H_    0.346090 0.526772 0.715324 0.186112
H59   H     H_    0.147148 0.657809 0.036820 0.127768
H60   H     H_    0.151338 0.549502 0.393959 0.171707
H61   H     H_    0.654380 0.449333 0.601398 0.162389
I1    I     I_    0.631676 0.193214 0.323502 -0.309732
O29   O     O_3   0.222046 0.718551 0.266893 -0.668754
H62   H     H_    0.169103 0.767180 0.273489 0.329423
I2    I     I_    0.274900 0.661102 0.535486 -0.151725

loop_
_geom_bond_atom_site_label_1
_geom_bond_atom_site_label_2
_geom_bond_distance
_ccdc_geom_bond_type
C12   H28   1.110735 S    
C11   H26   1.110155 S    
C48   O27   1.221080 D    
C21   C22   1.409665 A    
P4    C29   1.924028 S    
C13   H30   1.108108 S    
C23   C24   1.409170 A    
C64   H51   1.083713 S    
C14   H34   1.110598 S    
C73   H58   1.083788 S    
P8    O24   1.746168 S    
O16   P7    1.752309 S    
C47   O25   1.222208 D    
C15   O24   1.401669 S    
C15   H35   1.109726 S    
C18   C19   1.403848 A    
O12   Ba2   2.831359 S    
P4    O13   1.568035 S    
C69   O26   1.221710 D    
C4    C5    1.523473 S    
P2    Ba1   3.381461 S    
C79   H55   1.083714 S    
C68   O28   1.222238 D    
P7    C51   1.832886 S    
O4    P6    1.543265 D    
C1    H24   1.109199 S    
C20   C21   1.403742 A    
C7    H15   1.110916 S    
C2    H5    1.108894 S    
C14   H33   1.108936 S    
C45   H47   1.081686 S    
C41   C43   1.403803 A    
H1    C10   1.113560 S    
C16   H38   1.114770 S    
C60   C75   1.431661 A    
C22   C26   1.413572 A    
C39   C40   1.399187 A    
C24   C27   1.411751 A    
C6    C7    1.524272 S    
O13   Ba2   2.915943 S    
C40   C41   1.404205 A    
O1    Ba1   2.830903 S    
P1    O1    1.516689 D    
O6    C10   1.402464 S    
C17   C22   1.420571 A    
C56   C78   1.393123 A    
C47   C55   1.417358 A    
C42   C43   1.412149 A    
C36   C37   1.410691 A    
C48   C57   1.415738 A    
C80   C81   1.393233 A    
C67   C81   1.399887 A    
C56   H49   1.083667 S    
C20   H40   1.083726 S    
C52   H48   1.084338 S    
C76   C77   1.423049 A    
C49   C50   1.521751 S    
P2    O10   1.761023 S    
P4    O12   1.516999 D    
C66   C67   1.409251 A    
C39   H44   1.083759 S    
Ba2   O21   2.804861 S    
C52   C53   1.510025 S    
C1    H2    1.111063 S    
C80   H56   1.075866 S    
O6    P6    1.747690 S    
C25   C30   1.436026 A    
P5    O18   1.547289 D    
C54   C55   1.408729 A    
C8    H19   1.093660 S    
C12   H27   1.109809 S    
C59   H61   1.086367 S    
C10   H23   1.108895 S    
C21   C23   1.402939 A    
C17   C31   1.407976 A    
P5    C50   1.864453 S    
C13   H31   1.107588 S    
C30   C35   1.410443 A    
P7    O21   1.566433 D    
Ba1   Ba2   4.512424 S    
P8    O23   1.542680 D    
P3    C71   1.865969 S    
C32   C33   1.427515 A    
C60   C62   1.423076 A    
P5    O17   1.752460 S    
C25   C26   1.423138 A    
C32   C42   1.419387 A    
C8    C9    1.523375 S    
C78   H53   1.075864 S    
C54   C57   1.407650 A    
P7    O22   1.751421 S    
C61   C62   1.422232 A    
C35   H43   1.079740 S    
P1    O5    1.746603 S    
C29   C30   1.432446 A    
C19   H39   1.082414 S    
Ba2   O20   2.735837 S    
C31   C38   1.412589 A    
C14   H32   1.109001 S    
C18   C34   1.407023 A    
C23   H41   1.081754 S    
C19   C20   1.398444 A    
C54   C76   1.434711 A    
O16   Ba2   2.911344 S    
C16   H37   1.111457 S    
O11   C2    1.405082 S    
C26   C37   1.408329 A    
C81   H57   1.083670 S    
C4    H8    1.096320 S    
C61   C77   1.431708 A    
C7    H17   1.110558 S    
P1    Ba1   3.384805 S    
C47   N1    1.387186 Am   
P1    O2    1.568064 S    
O10   C8    1.395817 S    
C70   C71   1.518025 S    
C62   C66   1.434609 A    
C9    H20   1.110684 S    
C4    O15   1.404761 S    
N2    C74   1.463080 S    
C3    H29   1.110761 S    
P4    Ba2   3.385414 S    
C75   C78   1.416811 A    
P2    O20   1.534009 S    
C73   C74   1.508252 S    
C70   H50   1.085674 S    
C49   C53   1.363264 D    
C24   C25   1.426224 A    
C2    C3    1.520945 S    
P6    C44   1.851034 S    
C6    H13   1.104237 S    
C45   C46   1.394961 A    
C15   C16   1.523341 S    
C63   C64   1.392430 A    
C1    H3    1.110767 S    
N2    C69   1.387344 Am   
O3    Ba1   2.785571 S    
O8    Ba1   2.721647 S    
C28   I2    2.006948 S    
O2    Ba2   2.807144 S    
C8    H18   1.110585 S    
C11   O22   1.405648 S    
C57   C79   1.400301 A    
C40   H45   1.083681 S    
P3    O8    1.748316 S    
P8    C27   1.887136 S    
C72   C73   1.330937 D    
C63   H52   1.075858 S    
C13   C14   1.521057 S    
C3    H7    1.109823 S    
C4    H9    1.091867 S    
C59   C72   1.317326 D    
C17   C18   1.410367 A    
Ba1   O16   2.736475 S    
C60   C63   1.416249 A    
C44   C45   1.400541 A    
C37   C38   1.420596 A    
C34   H42   1.079553 S    
C12   I1    2.136771 S    
C5    H10   1.107694 S    
O19   C13   1.403374 S    
C35   C36   1.407272 A    
P3    O11   1.754818 S    
C65   C66   1.408092 A    
O14   Ba2   2.784964 S    
C5    H12   1.107504 S    
N1    C53   1.465814 S    
C58   H60   1.086735 S    
O7    Ba1   2.804511 S    
O14   P8    1.764151 S    
P4    O15   1.760346 S    
O5    C6    1.390766 S    
C51   C52   1.328120 D    
C70   C74   1.360382 D    
C75   C76   1.422216 A    
C33   C34   1.412554 A    
C50   C58   1.510827 S    
C27   C28   1.397617 A    
C65   C69   1.415385 A    
C2    H4    1.108778 S    
C7    H16   1.104801 S    
N1    C48   1.388277 Am   
C59   C71   1.511549 S    
Ba1   O20   2.912253 S    
C9    H21   1.109230 S    
C64   C65   1.400032 A    
C51   C58   1.315196 D    
O29   H62   0.993039 S    
C82   H59   1.075881 S    
C61   C80   1.416912 A    
C5    H11   1.110329 S    
C28   C29   1.391727 A    
C6    H14   1.109124 S    
C33   C46   1.431132 A    
O2    Ba1   2.915104 S    
C9    H22   1.107396 S    
C42   C44   1.414772 A    
Ba1   O13   2.806551 S    
C11   C12   1.522298 S    
C38   C41   1.408886 A    
C55   C56   1.400029 A    
C11   H25   1.109676 S    
C43   H46   1.081205 S    
P5    O19   1.753892 S    
P2    O7    1.501544 D    
C67   C68   1.417314 A    
C16   O29   1.399844 S    
P3    O9    1.546490 D    
O3    P6    1.740152 S    
C31   C32   1.423262 A    
C3    H6    1.110768 S    
C79   C82   1.392475 A    
C49   H54   1.085385 S    
P2    C72   1.839240 S    
C68   N2    1.386220 Am   
C1    C10   1.518604 S    
C36   C39   1.404131 A    
C15   H36   1.113054 S    
C77   C82   1.416167 A    
P1    C46   1.878466 S    
O17   Ba2   2.722244 S    
