data_mof_unit_37689.cif
_audit_creation_date              2012-12-10T19:00:46-0500
_audit_creation_method            fapswitch 2.2
_symmetry_space_group_name_H-M    P1
_symmetry_Int_Tables_number       1
_space_group_crystal_system       triclinic
_cell_length_a                    15.066359
_cell_length_b                    10.86967
_cell_length_c                    9.571126
_cell_angle_alpha                 90.851042
_cell_angle_beta                  89.722126
_cell_angle_gamma                 90.782966
_cell_volume                      1567.09221022

loop_
_atom_site_label
_atom_site_type_symbol
_atom_type_description
_atom_site_fract_x
_atom_site_fract_y
_atom_site_fract_z
_atom_type_partial_charge
C1    C     C_R   0.498706 0.262691 0.499043 0.825648
C2    C     C_R   0.906734 0.520388 0.624156 0.129337
C3    C     C_R   0.954381 0.431305 0.252117 0.249072
C4    C     C_R   0.047327 0.435403 0.253305 -0.282032
C5    C     C_R   0.093313 0.465116 0.376225 0.068600
C6    C     C_R   0.046361 0.491994 0.500376 0.058639
C7    C     C_R   0.092537 0.521001 0.624943 0.114401
C8    C     C_R   0.045541 0.548875 0.747769 -0.212566
C9    C     C_R   0.953115 0.549211 0.747142 -0.218638
C10   C     C_R   0.185812 0.468266 0.376962 -0.225873
C11   C     C_R   0.231796 0.496795 0.500564 -0.076056
C12   C     C_R   0.328690 0.499200 0.500249 0.820064
C13   C     C_R   0.185039 0.522464 0.624327 -0.212783
C14   C     C_R   0.475073 0.065704 0.618692 0.062013
C15   C     C_R   0.491429 0.129969 0.496503 -0.102835
C16   C     C_R   0.499760 0.062923 0.371016 -0.236408
C17   C     C_R   0.500454 0.934537 0.372018 -0.215172
C18   C     C_R   0.494220 0.871220 0.499269 -0.062297
C19   C     C_R   0.475968 0.939181 0.620542 0.019929
C20   C     C_3   0.514304 0.937338 0.764339 -0.555225
C21   C     C_3   0.511375 0.078178 0.763731 0.513121
C22   C     C_R   0.572787 0.541460 0.073870 0.170266
C23   C     C_R   0.499842 0.737779 0.500552 0.783600
C24   C     C_R   0.432775 0.446445 0.074200 -0.183776
C25   C     C_R   0.432792 0.445975 0.925746 0.696027
C26   C     C_R   0.572735 0.540579 0.926320 0.103379
C27   C     C_3   0.612139 0.665888 0.919905 -0.508542
C28   C     C_3   0.611871 0.669100 0.078160 0.059276
C29   C     C_R   0.671251 0.498380 0.499840 0.798439
C30   C     C_R   0.814447 0.521841 0.623271 -0.245021
C31   C     C_R   0.768031 0.494680 0.500043 -0.088462
C32   C     C_R   0.814037 0.462960 0.377560 -0.234888
C33   C     C_R   0.906850 0.460797 0.375604 0.069000
C34   C     C_R   0.953286 0.490765 0.499965 0.010284
Cu1   Cu    Cu3+1 0.500000 0.499980 0.640670 1.006312
Cu2   Cu    Cu3+1 0.500000 0.500020 0.359330 0.936916
H1    H     H_    0.778870 0.545400 0.718419 0.151796
H2    H     H_    0.509952 0.885981 0.273936 0.152146
H3    H     H_    0.467334 0.893985 0.839419 0.181518
H4    H     H_    0.582305 0.899946 0.763485 0.196816
H5    H     H_    0.377805 0.404179 0.129432 0.164891
H6    H     H_    0.679094 0.666789 0.870647 0.201569
H7    H     H_    0.564199 0.729635 0.875785 0.188254
H8    H     H_    0.777046 0.439245 0.284241 0.182238
H9    H     H_    0.566506 0.739156 0.123165 0.149568
H10   H     H_    0.083623 0.414088 0.158066 0.151859
H11   H     H_    0.221947 0.447448 0.281431 0.154891
H12   H     H_    0.220530 0.544999 0.719835 0.179079
H13   H     H_    0.080251 0.571321 0.843935 0.144243
H14   H     H_    0.917819 0.572631 0.842582 0.143282
H15   H     H_    0.511021 0.109507 0.273824 0.169645
N1    N     N_R   0.500570 0.500930 0.147930 -0.230173
N2    N     N_R   0.500570 0.500890 0.852020 -0.231365
O1    O     O_R   0.500000 0.319640 0.618810 -0.519358
O2    O     O_R   0.500010 0.319680 0.381230 -0.597643
O3    O     O_R   0.370250 0.499950 0.618800 -0.523805
O4    O     O_R   0.370260 0.499990 0.381220 -0.597967
O5    O     O_R   0.499990 0.680320 0.618770 -0.583077
O6    O     O_R   0.500000 0.680360 0.381190 -0.590253
O7    O     O_R   0.629740 0.500010 0.618780 -0.579547
O8    O     O_R   0.629750 0.500050 0.381200 -0.582094
N3    N     N_2   0.444854 0.130395 0.858065 -0.375902
H16   H     H_    0.380256 0.105080 0.834411 0.258461
C35   C     C_3   0.462270 0.125175 0.006341 -0.706949
H17   H     H_    0.401757 0.151610 0.065745 0.234723
H18   H     H_    0.515561 0.191696 0.036043 0.221235
H19   H     H_    0.480791 0.030763 0.036697 0.208559
N4    N     N_2   0.597612 0.142617 0.772031 -0.384520
H20   H     H_    0.616845 0.169536 0.870977 0.256307
C36   C     C_3   0.672561 0.100313 0.689177 -0.735590
H21   H     H_    0.720812 0.177551 0.676798 0.236246
H22   H     H_    0.652400 0.068236 0.583505 0.238495
H23   H     H_    0.706557 0.024697 0.743294 0.218929
F1    F     F_    0.364182 0.390697 0.857596 -0.664093
N5    N     N_2   0.701679 0.674376 0.132638 -0.403521
H24   H     H_    0.735611 0.592781 0.135106 0.266269
C37   C     C_3   0.717485 0.758676 0.248341 -0.650385
H25   H     H_    0.789189 0.759918 0.274658 0.222764
H26   H     H_    0.678946 0.729805 0.341469 0.230623
H27   H     H_    0.698131 0.853214 0.219536 0.219746
N6    N     N_2   0.909437 0.400065 0.125681 -0.448058
H28   H     H_    0.942429 0.429422 0.037331 0.254017
C38   C     C_3   0.883056 0.271882 0.113820 -0.703654
H29   H     H_    0.942665 0.212804 0.108656 0.233471
H30   H     H_    0.843834 0.257096 0.016928 0.229615
H31   H     H_    0.841148 0.244427 0.204241 0.232947

loop_
_geom_bond_atom_site_label_1
_geom_bond_atom_site_label_2
_ccdc_geom_bond_type
C24   N1    A    
C23   O5    A    
Cu1   N2    S    
C19   C20   S    
C16   H15   S    
N5    H24   S    
Cu2   O6    S    
N6    H28   S    
C7    C8    A    
C4    H10   S    
C37   H25   S    
C23   O6    A    
C26   C27   S    
Cu1   O5    S    
C14   C21   S    
C25   N2    A    
C28   N5    S    
C25   F1    S    
C5    C6    A    
C20   H4    S    
C3    C33   A    
C15   C16   A    
C8    C9    A    
C18   C19   A    
N3    C35   S    
C31   C32   A    
C16   C17   A    
C3    N6    S    
C36   H21   S    
C1    C15   S    
Cu2   N1    S    
C2    C34   A    
C22   C28   S    
Cu1   O1    S    
C24   H5    S    
N6    C38   S    
C17   C18   A    
C37   H26   S    
C29   O8    A    
C28   H9    S    
C18   C23   S    
C35   H19   S    
C24   C25   A    
Cu2   O4    S    
C20   H3    S    
N4    H20   S    
C6    C34   A    
C30   H1    S    
Cu1   O7    S    
Cu1   Cu2   S    
C35   H18   S    
C1    O1    A    
N3    H16   S    
C38   H29   S    
C29   O7    A    
C36   H23   S    
C33   C34   A    
C32   H8    S    
N5    C37   S    
C21   N3    S    
C12   O3    A    
C12   O4    A    
C38   H30   S    
C21   N4    S    
C3    C4    A    
C26   N2    A    
C10   H11   S    
C22   N1    A    
C37   H27   S    
Cu1   O3    S    
C14   C19   A    
C9    H14   S    
C4    C5    A    
C13   H12   S    
C11   C12   S    
C6    C7    A    
C2    C30   A    
C35   H17   S    
C1    O2    A    
C5    C10   A    
C29   C31   S    
Cu2   O2    S    
C32   C33   A    
C11   C13   A    
C27   H6    S    
C30   C31   A    
C17   H2    S    
C10   C11   A    
C27   H7    S    
C7    C13   A    
C38   H31   S    
C20   C21   S    
N4    C36   S    
C22   C26   A    
C27   C28   S    
C14   C15   A    
C36   H22   S    
C2    C9    A    
C8    H13   S    
Cu2   O8    S    
