data_mof_unit_15887.cif
_audit_creation_date              2012-12-10T16:50:05-0500
_audit_creation_method            fapswitch 2.2
_symmetry_space_group_name_H-M    P1
_symmetry_Int_Tables_number       1
_space_group_crystal_system       triclinic
_cell_length_a                    7.831664
_cell_length_b                    8.554586
_cell_length_c                    10.592929
_cell_angle_alpha                 91.67398
_cell_angle_beta                  85.303471
_cell_angle_gamma                 93.587567
_cell_volume                      705.714664273

loop_
_atom_site_label
_atom_site_type_symbol
_atom_type_description
_atom_site_fract_x
_atom_site_fract_y
_atom_site_fract_z
_atom_type_partial_charge
C1    C     C_R   0.545502 0.794455 0.496923 0.917381
C2    C     C_R   0.459150 0.650918 0.939877 0.095241
C3    C     C_R   0.506015 0.514228 0.871430 -0.081667
C4    C     C_R   0.553839 0.381929 0.929437 -0.208524
C5    C     C_R   0.550437 0.380895 0.058517 -0.190782
C6    C     C_R   0.499109 0.512103 0.128721 -0.078387
C7    C     C_2   0.569364 0.958042 0.494889 -0.376186
C8    C     C_2   0.430648 0.041932 0.504684 -0.394028
C9    C     C_R   0.501853 0.504021 0.739139 0.846759
C10   C     C_R   0.454532 0.205543 0.503093 0.966025
C11   C     C_R   0.499381 0.502924 0.260877 0.860952
C12   C     C_R   0.420585 0.788724 0.879940 -0.178851
C13   C     C_R   0.377788 0.922216 0.951543 -0.135660
C14   C     C_R   0.373451 0.920960 0.083137 -0.123522
C15   C     C_R   0.412172 0.786291 0.143514 -0.165216
C16   C     C_R   0.455156 0.649732 0.072257 0.092112
H1    H     H_    0.425442 0.795280 0.777903 0.141296
H2    H     H_    0.409950 0.791022 0.245645 0.149363
H3    H     H_    0.585580 0.276976 0.104128 0.156142
H4    H     H_    0.700483 0.008874 0.485441 0.201035
H5    H     H_    0.299523 0.991098 0.514005 0.192068
N1    N     N_2   0.950330 0.457950 0.466250 0.010876
N2    N     N_2   0.049670 0.542050 0.533750 -0.132229
O1    O     O_R   0.389250 0.738570 0.508280 -0.627531
O2    O     O_R   0.678390 0.711630 0.486650 -0.629037
O3    O     O_R   0.355400 0.513470 0.694050 -0.617487
O4    O     O_R   0.644540 0.486530 0.672420 -0.628329
O5    O     O_R   0.321610 0.288370 0.513350 -0.596781
O6    O     O_R   0.610750 0.261430 0.491720 -0.602870
O7    O     O_R   0.355460 0.513470 0.327580 -0.596207
O8    O     O_R   0.644600 0.486530 0.305950 -0.595016
Zn1   Zn    Zn3+2 0.306930 0.517990 0.514440 0.982058
Zn2   Zn    Zn3+2 0.693070 0.482010 0.485560 0.991557
H6    H     H_    0.590236 0.278407 0.874618 0.150104
H7    H     H_    0.987341 0.619367 0.594930 0.168526
H8    H     H_    0.349058 0.027185 0.904763 0.142344
H9    H     H_    0.341175 0.024901 0.138576 0.151618
I1    I     I_    0.037018 0.290658 0.334500 -0.257147

loop_
_geom_bond_atom_site_label_1
_geom_bond_atom_site_label_2
_ccdc_geom_bond_type
C12   H1    S    
C15   H2    S    
O7    Zn1   S    
O1    Zn1   S    
O3    Zn1   S    
C3    C9    S    
C2    C16   A    
C2    C12   A    
N2    Zn1   S    
O8    Zn2   S    
C2    C3    A    
C11   O8    A    
C7    C8    D    
C13   C14   A    
O4    Zn2   S    
C14   H9    S    
C1    O2    A    
C10   O6    A    
C1    O1    A    
C5    H3    S    
C9    O3    A    
C8    H5    S    
N2    H7    S    
N1    N2    D    
C5    C6    A    
C4    H6    S    
C6    C16   A    
C3    C4    A    
N1    I1    S    
O6    Zn2   S    
O5    Zn1   S    
C12   C13   A    
C9    O4    A    
C13   H8    S    
C8    C10   S    
C7    H4    S    
C10   O5    A    
C6    C11   S    
N1    Zn2   S    
C14   C15   A    
C1    C7    S    
C15   C16   A    
C11   O7    A    
O2    Zn2   S    
C4    C5    A    
