data_mof_unit_46843.cif
_audit_creation_date              2012-12-10T16:41:55-0500
_audit_creation_method            fapswitch 2.2
_symmetry_space_group_name_H-M    P1
_symmetry_Int_Tables_number       1
_space_group_crystal_system       triclinic
_cell_length_a                    10.911394
_cell_length_b                    8.749303
_cell_length_c                    7.448478
_cell_angle_alpha                 102.936901
_cell_angle_beta                  94.206627
_cell_angle_gamma                 92.683139
_cell_volume                      689.703989393

loop_
_atom_site_label
_atom_site_type_symbol
_atom_type_description
_atom_site_fract_x
_atom_site_fract_y
_atom_site_fract_z
_atom_type_partial_charge
C1    C     C_R   0.490213 0.200112 0.453876 0.794068
C2    C     C_2   0.487548 0.965626 0.574063 0.173300
C3    C     C_R   0.265496 0.501747 0.502317 0.835127
C4    C     C_R   0.498538 0.799324 0.546516 0.803087
C5    C     C_R   0.734486 0.498301 0.497304 0.872325
C6    C     C_2   0.925946 0.491710 0.342691 0.512076
C7    C     C_2   0.865988 0.487550 0.493244 -0.408500
C8    C     C_2   0.060652 0.487626 0.349931 -0.245269
C9    C     C_2   0.133846 0.508148 0.507680 -0.404130
C10   C     C_2   0.474826 0.032422 0.427586 0.181655
Cu1   Cu    Cu3+1 0.513740 0.517380 0.684380 0.980838
Cu2   Cu    Cu3+1 0.486260 0.482620 0.315620 0.980931
H1    H     H_    0.912664 0.470999 0.619969 0.112190
H2    H     H_    0.100848 0.471137 0.218366 0.180784
H3    H     H_    0.099923 0.533655 0.643324 0.151602
H4    H     H_    0.398428 0.386123 0.949836 0.219162
H5    H     H_    0.599824 0.617075 0.050584 0.261811
N1    N     N_2   0.465540 0.456420 0.038510 -0.209343
N2    N     N_2   0.534460 0.543580 0.961490 -0.190779
O1    O     O_R   0.508930 0.286130 0.619780 -0.563228
O2    O     O_R   0.485720 0.256780 0.308360 -0.564959
O3    O     O_R   0.333540 0.514670 0.655670 -0.607809
O4    O     O_R   0.310330 0.485320 0.344250 -0.598073
O5    O     O_R   0.514280 0.743220 0.691640 -0.547852
O6    O     O_R   0.491070 0.713870 0.380220 -0.561216
O7    O     O_R   0.689670 0.514680 0.655750 -0.595670
O8    O     O_R   0.666460 0.485330 0.344330 -0.536517
O9    O     O_3   0.863173 0.511110 0.181267 -0.567145
C11   C     C_3   0.853970 0.366584 0.049395 -0.262527
H6    H     H_    0.813056 0.269503 0.105041 0.171116
H7    H     H_    0.944914 0.336255 0.998254 0.124592
H8    H     H_    0.791853 0.377864 0.929045 0.211799
O10   O     O_3   0.450663 0.944190 0.247726 -0.548227
C12   C     C_3   0.321762 0.915200 0.211274 -0.281127
H9    H     H_    0.275916 0.026175 0.211347 0.127475
H10   H     H_    0.281381 0.854662 0.311900 0.143472
H11   H     H_    0.301961 0.836059 0.072360 0.191367
O11   O     O_3   0.492480 0.052546 0.754920 -0.546257
C13   C     C_3   0.371476 0.054822 0.810286 -0.256400
H12   H     H_    0.328857 0.934173 0.796226 0.142449
H13   H     H_    0.312354 0.120937 0.730275 0.110206
H14   H     H_    0.375007 0.115544 0.958036 0.213595

loop_
_geom_bond_atom_site_label_1
_geom_bond_atom_site_label_2
_ccdc_geom_bond_type
C2    C4    S    
Cu1   Cu2   S    
C1    O2    A    
C6    C7    D    
C3    C9    S    
C10   O10   S    
C12   H11   S    
C2    O11   S    
Cu1   O3    S    
C3    O4    A    
Cu2   O6    S    
C4    O6    A    
C9    H3    S    
C11   H7    S    
Cu2   O4    S    
Cu1   N2    S    
C11   H6    S    
C6    C8    S    
H4    N1    S    
O9    C11   S    
H5    N2    S    
O10   C12   S    
C11   H8    S    
C12   H10   S    
O11   C13   S    
C4    O5    A    
Cu1   O1    S    
Cu2   O8    S    
C5    O7    A    
C2    C10   D    
Cu1   O5    S    
C7    H1    S    
C13   H13   S    
C12   H9    S    
Cu2   N1    S    
C13   H12   S    
C5    C7    S    
C13   H14   S    
N1    N2    D    
C3    O3    A    
C8    H2    S    
Cu1   O7    S    
C5    O8    A    
Cu2   O2    S    
C6    O9    S    
C1    C10   S    
C8    C9    D    
C1    O1    A    
