data_mof_unit_45612.cif
_audit_creation_date              2012-10-26T19:02:34-0400
_audit_creation_method            fapswitch 2.2
_symmetry_space_group_name_H-M    P1
_symmetry_Int_Tables_number       1
_space_group_crystal_system       triclinic
_cell_length_a                    17.339372
_cell_length_b                    8.682855
_cell_length_c                    7.44504
_cell_angle_alpha                 102.932773
_cell_angle_beta                  90.068762
_cell_angle_gamma                 93.096033
_cell_volume                      1090.76042139

loop_
_atom_site_label
_atom_site_type_symbol
_atom_type_description
_atom_site_fract_x
_atom_site_fract_y
_atom_site_fract_z
_atom_type_partial_charge
C1    C     C_R   0.497775 0.199780 0.453622 0.572917
C2    C     C_R   0.779526 0.611475 0.593247 0.049078
C3    C     C_R   0.141508 0.411431 0.404290 -0.103260
C4    C     C_R   0.858488 0.588607 0.595698 -0.103251
C5    C     C_R   0.109123 0.529441 0.538458 0.015331
C6    C     C_R   0.890875 0.470556 0.461589 0.015329
C7    C     C_R   0.156134 0.625849 0.675968 -0.103104
C8    C     C_R   0.843866 0.374101 0.324115 -0.103114
C9    C     C_R   0.235124 0.606943 0.677869 -0.135041
C10   C     C_R   0.764876 0.393004 0.322191 -0.135060
C11   C     C_2   0.026690 0.557823 0.534656 -0.122264
C12   C     C_R   0.502224 0.800220 0.546378 0.572937
C13   C     C_2   0.973310 0.442181 0.465410 -0.122259
C14   C     C_2   0.251225 0.254336 0.270063 0.579191
C15   C     C_2   0.748769 0.745739 0.729831 0.579187
C16   C     C_2   0.496497 0.031878 0.427538 -0.130301
C17   C     C_2   0.503501 0.968122 0.572462 -0.130316
C18   C     C_R   0.351507 0.496567 0.525557 0.579831
C19   C     C_R   0.648493 0.503428 0.474442 0.579849
C20   C     C_R   0.267892 0.492010 0.541335 0.005509
C21   C     C_R   0.732107 0.507981 0.458666 0.005509
C22   C     C_R   0.220471 0.388558 0.406716 0.049077
Cu1   Cu    Cu3+1 0.508700 0.517250 0.683000 1.007156
Cu2   Cu    Cu3+1 0.491300 0.482750 0.317000 1.007163
H1    H     H_    0.728835 0.312767 0.219421 0.137819
H2    H     H_    0.510302 0.039611 0.712121 0.128952
H3    H     H_    0.439259 0.379179 0.958314 0.249975
H4    H     H_    0.560741 0.620820 0.041686 0.249977
H5    H     H_    0.329479 0.086858 0.212324 0.334041
H6    H     H_    0.670521 0.913232 0.787461 0.334037
H7    H     H_    0.271165 0.687146 0.780671 0.137821
H8    H     H_    0.989877 0.322552 0.408263 0.127250
H9    H     H_    0.010126 0.677453 0.591806 0.127246
H10   H     H_    0.131821 0.717709 0.779992 0.133056
H11   H     H_    0.868179 0.282207 0.220137 0.133066
H12   H     H_    0.894183 0.662190 0.704335 0.141889
H13   H     H_    0.105811 0.337887 0.295629 0.141890
H14   H     H_    0.489695 0.960389 0.287879 0.128964
N1    N     N_2   0.478180 0.456750 0.041980 -0.261541
N2    N     N_2   0.521820 0.543250 0.958020 -0.261541
O1    O     O_R   0.505650 0.286040 0.618880 -0.510804
O2    O     O_R   0.314376 0.176646 0.316304 -0.689136
O3    O     O_2   0.780024 0.791509 0.881221 -0.527849
O4    O     O_R   0.685615 0.823387 0.683535 -0.689144
O5    O     O_R   0.494350 0.713960 0.381120 -0.510793
O6    O     O_R   0.490960 0.256910 0.309800 -0.490118
O7    O     O_R   0.509040 0.743090 0.690200 -0.490114
O8    O     O_R   0.394600 0.516230 0.672450 -0.511111
O9    O     O_R   0.605400 0.483770 0.327550 -0.511099
O10   O     O_R   0.379910 0.487100 0.363380 -0.477487
O11   O     O_R   0.620090 0.512900 0.636620 -0.477497
O12   O     O_2   0.219973 0.208638 0.118659 -0.527844

loop_
_geom_bond_atom_site_label_1
_geom_bond_atom_site_label_2
_ccdc_geom_bond_type
C12   C17   S    
C2    C4    A    
Cu1   Cu2   S    
C4    H12   S    
H5    O2    S    
C19   O9    A    
C13   H8    S    
Cu1   O11   S    
Cu1   O1    S    
C14   O2    S    
Cu2   O6    S    
C7    C9    A    
C14   C22   S    
C2    C21   A    
C15   O3    D    
C1    C16   S    
C6    C13   S    
C2    C15   S    
C11   C13   D    
H6    O4    S    
C12   O7    A    
Cu2   O5    S    
Cu2   O9    S    
C10   H1    S    
C4    C6    A    
C19   C21   S    
C20   C22   A    
C15   O4    S    
C5    C11   S    
C9    H7    S    
C18   C20   S    
C10   C21   A    
Cu2   O10   S    
C7    H10   S    
C1    O6    A    
Cu1   O7    S    
C17   H2    S    
H3    N1    S    
Cu1   N2    S    
C19   O11   A    
C11   H9    S    
Cu2   N1    S    
C18   O10   A    
C8    C10   A    
C1    O1    A    
N1    N2    D    
C5    C7    A    
H4    N2    S    
C16   C17   D    
C3    C22   A    
C6    C8    A    
Cu1   O8    S    
C9    C20   A    
C14   O12   D    
C3    H13   S    
C16   H14   S    
C12   O5    A    
C3    C5    A    
C8    H11   S    
C18   O8    A    
