data_mof_unit_57274.cif
_audit_creation_date              2012-12-10T18:42:32-0500
_audit_creation_method            fapswitch 2.2
_symmetry_space_group_name_H-M    P1
_symmetry_Int_Tables_number       1
_space_group_crystal_system       triclinic
_cell_length_a                    8.5817
_cell_length_b                    10.627417
_cell_length_c                    9.865034
_cell_angle_alpha                 89.954857
_cell_angle_beta                  98.82503
_cell_angle_gamma                 90.316822
_cell_volume                      889.039189331

loop_
_atom_site_label
_atom_site_type_symbol
_atom_type_description
_atom_site_fract_x
_atom_site_fract_y
_atom_site_fract_z
_atom_type_partial_charge
C1    C     C_R   0.503671 0.260385 0.500499 0.867282
C2    C     C_R   0.496334 0.739615 0.499502 0.867269
C3    C     C_R   0.201095 0.499752 0.463989 0.951869
C4    C     C_R   0.798905 0.500248 0.536011 0.951868
C5    C     C_2   0.035795 0.499576 0.444723 -0.397529
C6    C     C_2   0.964205 0.500424 0.555277 -0.397524
C7    C     C_R   0.622320 0.062223 0.444014 0.163069
C8    C     C_R   0.377693 0.937778 0.555991 0.163093
C9    C     C_R   0.613196 0.932683 0.442642 -0.249898
C10   C     C_R   0.386819 0.067318 0.557366 -0.249905
C11   C     C_R   0.493485 0.871991 0.498687 -0.081471
C12   C     C_R   0.506526 0.128009 0.501316 -0.081470
C13   C     C_R   0.598389 0.578110 0.085178 -0.172491
C14   C     C_R   0.401608 0.421891 0.914821 -0.172487
C15   C     C_R   0.598684 0.578356 0.941096 0.180695
C16   C     C_R   0.401313 0.421645 0.058903 0.180701
H1    H     H_    0.973513 0.498702 0.339979 0.182045
H2    H     H_    0.026487 0.501298 0.660021 0.182047
H3    H     H_    0.701874 0.878612 0.401015 0.147749
H4    H     H_    0.298138 0.121387 0.598990 0.147757
H5    H     H_    0.676932 0.640454 0.150541 0.137500
H6    H     H_    0.323063 0.359549 0.849458 0.137499
N1    N     N_R   0.499960 0.499970 0.857200 -0.078562
N2    N     N_R   0.500040 0.500030 0.142800 -0.078561
O1    O     O_R   0.499990 0.316750 0.614620 -0.626225
O2    O     O_R   0.500010 0.683250 0.385380 -0.626223
O3    O     O_R   0.499990 0.316780 0.385290 -0.594217
O4    O     O_R   0.500010 0.683220 0.614710 -0.594220
O5    O     O_R   0.271750 0.499990 0.587840 -0.619873
O6    O     O_R   0.728250 0.500010 0.412160 -0.619871
O7    O     O_R   0.271750 0.500010 0.358510 -0.604734
O8    O     O_R   0.728250 0.499990 0.641490 -0.604733
Zn1   Zn    Zn3+2 0.500000 0.499980 0.653120 0.952223
Zn2   Zn    Zn3+2 0.500000 0.500020 0.346880 0.952224
C17   C     C_3   0.759632 0.125568 0.390531 -0.405576
C18   C     C_3   0.733166 0.129418 0.234019 -0.818754
H7    H     H_    0.723029 0.032495 0.191385 0.243680
H8    H     H_    0.624053 0.182129 0.195155 0.273204
H9    H     H_    0.834546 0.177357 0.197928 0.240259
H10   H     H_    0.780042 0.222684 0.430840 0.205403
H11   H     H_    0.869960 0.073169 0.426986 0.188540
C19   C     C_3   0.240363 0.874434 0.609448 -0.405585
C20   C     C_3   0.266772 0.870611 0.765960 -0.818811
H12   H     H_    0.165341 0.822730 0.802030 0.240263
H13   H     H_    0.375835 0.817851 0.804856 0.273200
H14   H     H_    0.276966 0.967542 0.808575 0.243703
H15   H     H_    0.130035 0.926817 0.572948 0.188540
H16   H     H_    0.219980 0.777308 0.569162 0.205415
N3    N     N_3   0.702579 0.660741 0.882746 -0.399413
H17   H     H_    0.818023 0.640507 0.927914 0.157322
H18   H     H_    0.677995 0.752987 0.909166 0.157909
N4    N     N_3   0.297410 0.339263 0.117251 -0.399421
H19   H     H_    0.181966 0.359517 0.072100 0.157333
H20   H     H_    0.321966 0.247016 0.090813 0.157892

loop_
_geom_bond_atom_site_label_1
_geom_bond_atom_site_label_2
_ccdc_geom_bond_type
C14   N1    A    
C3    O7    A    
C20   H12   S    
C17   H11   S    
C9    C11   A    
C17   C18   S    
C13   C15   A    
O8    Zn1   S    
C14   H6    S    
O1    Zn1   S    
C18   H8    S    
C17   H10   S    
O7    Zn2   S    
C13   H5    S    
C16   N2    A    
C19   H16   S    
C1    O1    A    
C20   H13   S    
C3    O5    A    
C4    O8    A    
C1    C12   S    
C10   C12   A    
C8    C11   A    
C5    C6    D    
C2    C11   S    
C15   N1    A    
C18   H7    S    
C8    C19   S    
O4    Zn1   S    
C7    C9    A    
C19   H15   S    
C15   N3    S    
O3    Zn2   S    
C7    C12   A    
C6    H2    S    
C20   H14   S    
C14   C16   A    
C4    C6    S    
C5    H1    S    
C19   C20   S    
O6    Zn2   S    
O5    Zn1   S    
N4    H19   S    
C13   N2    A    
C2    O2    A    
N3    H17   S    
N3    H18   S    
C10   H4    S    
C1    O3    A    
C18   H9    S    
C2    O4    A    
C3    C5    S    
C7    C17   S    
O2    Zn2   S    
C8    C10   A    
C4    O6    A    
C16   N4    S    
C9    H3    S    
N4    H20   S    
N1    Zn1   S    
N2    Zn2   S    
