data_mof_unit_15077.cif
_audit_creation_date              2012-12-11T14:07:42-0500
_audit_creation_method            fapswitch 2.2
_symmetry_space_group_name_H-M    P1
_symmetry_Int_Tables_number       1
_space_group_crystal_system       triclinic
_cell_length_a                    19.774993
_cell_length_b                    17.0528
_cell_length_c                    15.354461
_cell_angle_alpha                 90.104628
_cell_angle_beta                  53.150671
_cell_angle_gamma                 90.108759
_cell_volume                      4143.3588055

loop_
_atom_site_label
_atom_site_type_symbol
_atom_type_description
_atom_site_fract_x
_atom_site_fract_y
_atom_site_fract_z
_atom_type_partial_charge
C1    C     C_R   0.340677 0.175477 0.049298 -0.115939
C2    C     C_R   0.654683 0.818813 0.067230 0.170713
C3    C     C_3   0.874888 0.941586 0.929032 -1.053178
C4    C     C_3   0.556483 0.873828 0.498698 0.141632
C5    C     C_3   0.556087 0.840668 0.406058 -0.284421
C6    C     C_3   0.490139 0.881607 0.400649 -1.041755
C7    C     C_3   0.829702 0.009896 0.378156 0.180794
C8    C     C_3   0.759789 0.999600 0.363103 -0.349325
C9    C     C_3   0.784693 0.939190 0.275049 -0.953197
C10   C     C_3   0.065086 0.254070 0.595470 0.227406
C11   C     C_3   0.008133 0.297525 0.575327 -0.280668
C12   C     C_3   0.967666 0.369558 0.648273 -0.889484
C13   C     C_R   0.210706 0.646788 0.980779 0.161756
C14   C     C_3   0.112485 0.618876 0.425514 0.154075
C15   C     C_3   0.069382 0.539020 0.467260 -0.266959
C16   C     C_3   0.033861 0.511389 0.407361 -1.045995
C17   C     C_R   0.152455 0.316975 0.071073 0.161494
C18   C     C_R   0.602059 0.813372 0.701085 0.036238
C19   C     C_R   0.692067 0.135838 0.676858 0.087446
C20   C     C_R   0.191754 0.361106 0.677820 -0.001639
C21   C     C_R   0.108102 0.684039 0.696181 0.034017
C22   C     C_3   0.382185 0.232250 0.463145 -0.523348
C23   C     C_3   0.200637 0.872696 0.525977 -0.518017
C24   C     C_3   0.705901 0.626686 0.528312 -0.529002
C25   C     C_R   0.375538 0.802300 0.994622 -0.118039
C26   C     C_3   0.749861 0.299717 0.477431 -0.518172
C27   C     C_3   0.318658 0.269296 0.577357 0.370979
C28   C     C_3   0.138781 0.823318 0.629062 0.399876
C29   C     C_3   0.643795 0.674245 0.633230 0.408237
C30   C     C_3   0.700097 0.256147 0.585655 0.377749
C31   C     C_3   0.346187 0.323366 0.369811 -0.417052
C32   C     C_3   0.300970 0.757891 0.430512 -0.398710
C33   C     C_3   0.799783 0.745063 0.437081 -0.414948
C34   C     C_3   0.881619 0.262517 0.460665 -0.435638
C35   C     C_3   0.678134 0.718315 0.426089 -0.496357
C36   C     C_R   0.850079 0.684320 0.030453 -0.111136
C37   C     C_3   0.834987 0.180683 0.369734 -0.547430
C38   C     C_3   0.253717 0.204711 0.467069 -0.510471
C39   C     C_3   0.177396 0.777225 0.422791 -0.522740
C40   C     C_3   0.345682 0.236196 0.397763 0.311788
C41   C     C_3   0.246684 0.819348 0.423368 0.300969
C42   C     C_3   0.749132 0.681209 0.427290 0.294355
C43   C     C_3   0.840076 0.265413 0.400922 0.290697
C44   C     C_3   0.649415 0.763214 0.603096 0.125592
C45   C     C_3   0.749077 0.180132 0.575000 0.141247
C46   C     C_3   0.250516 0.316276 0.576476 0.152459
C47   C     C_R   0.840929 0.324217 0.049357 -0.116052
C48   C     C_3   0.153413 0.734083 0.597955 0.147748
C49   C     C_3   0.742165 0.791332 0.540994 -0.450921
C50   C     C_3   0.831554 0.205478 0.558423 -0.493320
C51   C     C_3   0.298750 0.371878 0.474938 -0.459707
C52   C     C_3   0.248027 0.714847 0.538365 -0.454299
C53   C     C_R   0.349025 0.829346 0.219155 -0.145096
C54   C     C_R   0.400216 0.199662 0.207282 -0.160651
C55   C     C_R   0.898325 0.301089 0.208054 -0.155683
C56   C     C_R   0.853061 0.674940 0.223003 -0.148788
C57   C     C_3   0.620548 0.770755 0.527504 0.504097
C58   C     C_R   0.636644 0.896671 0.101225 -0.173974
C59   C     C_3   0.773509 0.132090 0.472390 0.490418
C60   C     C_3   0.195407 0.257225 0.565895 0.504450
C61   C     C_3   0.128861 0.718052 0.518757 0.492395
C62   C     C_2   0.284685 0.685139 0.959470 -0.219983
C63   C     C_2   0.194129 0.261104 0.095566 -0.212979
C64   C     C_2   0.695165 0.237486 0.095215 -0.212179
C65   C     C_2   0.699664 0.764136 0.085821 -0.204562
C66   C     C_2   0.714350 0.309378 0.050915 -0.205260
C67   C     C_2   0.726135 0.697404 0.028655 -0.204006
C68   C     C_2   0.312149 0.752630 0.903853 -0.190527
C69   C     C_R   0.635712 0.103677 0.102723 -0.153040
C70   C     C_2   0.213772 0.189177 0.050719 -0.207570
C71   C     C_R   0.366301 0.888530 0.895764 -0.168997
C72   C     C_R   0.329468 0.087165 0.952406 -0.182031
C73   C     C_R   0.831015 0.409629 0.949144 -0.172637
C74   C     C_R   0.836917 0.594224 0.937853 -0.157020
C75   C     C_R   0.408287 0.108180 0.303189 -0.148760
C76   C     C_R   0.357293 0.922512 0.314841 -0.148494
C77   C     C_R   0.860008 0.579056 0.316090 -0.146356
C78   C     C_R   0.905078 0.392805 0.305425 -0.158343
C79   C     C_R   0.288283 0.149136 0.024667 0.165161
C80   C     C_R   0.134559 0.395249 0.103852 -0.148209
C81   C     C_R   0.348473 0.812177 0.931590 0.153671
C82   C     C_R   0.799415 0.658816 0.003483 0.153832
C83   C     C_R   0.789315 0.349079 0.023285 0.155583
C84   C     C_R   0.306437 0.863111 0.322006 0.059818
C85   C     C_R   0.392502 0.186327 0.301115 0.065262
C86   C     C_R   0.886294 0.315619 0.304706 0.081475
C87   C     C_R   0.811034 0.640213 0.324957 0.066032
C88   C     C_R   0.624496 0.199230 0.010544 -0.124572
C89   C     C_R   0.624952 0.801321 0.008328 -0.126816
C90   C     C_R   0.160397 0.677912 0.954160 -0.123599
C91   C     C_R   0.169407 0.582656 0.050214 -0.158483
C92   C     C_R   0.124197 0.300458 0.010312 -0.142643
C93   C     C_R   0.598668 0.800803 0.792723 -0.142211
C94   C     C_R   0.652159 0.168957 0.779922 -0.175163
C95   C     C_R   0.149958 0.328608 0.781063 -0.153701
C96   C     C_R   0.101757 0.698404 0.789847 -0.152257
C97   C     C_R   0.641577 0.075690 0.685361 -0.037260
C98   C     C_R   0.587490 0.892315 0.699614 -0.120615
C99   C     C_R   0.090800 0.605866 0.697014 -0.128091
C100  C     C_R   0.141951 0.422180 0.685001 -0.041895
C101  C     C_3   0.527503 0.604679 0.781480 0.236143
C102  C     C_R   0.653200 0.182067 0.070775 0.157698
C103  C     C_3   0.562173 0.520854 0.758236 -0.331004
C104  C     C_3   0.521979 0.474709 0.863641 -1.055438
C105  C     C_3   0.557656 0.290882 0.696492 0.218189
C106  C     C_3   0.471560 0.273508 0.722762 -0.274811
C107  C     C_3   0.402903 0.325836 0.814644 -1.022266
C108  C     C_3   0.335141 0.177479 0.677859 0.178384
C109  C     C_3   0.330968 0.087726 0.678149 -0.252491
C110  C     C_3   0.408514 0.050387 0.660430 -1.088856
C111  C     C_3   0.013983 0.883426 0.773481 0.177820
C112  C     C_3   0.922951 0.901955 0.817725 -0.225383
H1    H     H_    0.331803 0.224627 0.099298 0.086847
H2    H     H_    0.155475 0.835906 0.685408 -0.001465
H3    H     H_    0.845881 0.950978 0.391290 0.134004
H4    H     H_    0.888555 0.031402 0.301583 0.095620
H5    H     H_    0.700319 0.981542 0.441358 0.231537
H6    H     H_    0.748514 0.055482 0.336878 0.174815
H7    H     H_    0.845744 0.955581 0.197166 0.247243
H8    H     H_    0.735590 0.936942 0.261445 0.261269
H9    H     H_    0.790497 0.880254 0.299992 0.274196
H10   H     H_    0.029709 0.244217 0.684577 0.090282
H11   H     H_    0.081031 0.196083 0.554097 0.035641
H12   H     H_    0.045338 0.315444 0.488503 0.201388
H13   H     H_    0.665987 0.666825 0.684484 0.016007
H14   H     H_    0.957245 0.257234 0.592706 0.150574
H15   H     H_    0.927614 0.351556 0.734987 0.249987
H16   H     H_    0.927208 0.399846 0.631064 0.234163
H17   H     H_    0.016907 0.410951 0.633517 0.273026
H18   H     H_    0.163497 0.614279 0.336597 0.122689
H19   H     H_    0.065295 0.661940 0.436996 0.080299
H20   H     H_    0.115742 0.495174 0.455569 0.213309
H21   H     H_    0.016755 0.543427 0.555547 0.182613
H22   H     H_    0.984200 0.552368 0.422552 0.263107
H23   H     H_    0.005526 0.452192 0.436561 0.268787
H24   H     H_    0.697980 0.295245 0.646028 0.024112
H25   H     H_    0.084951 0.508162 0.318517 0.261738
H26   H     H_    0.331555 0.777461 0.196761 0.092233
H27   H     H_    0.399389 0.255696 0.175214 0.088176
H28   H     H_    0.900348 0.245017 0.173802 0.090537
H29   H     H_    0.839205 0.731288 0.205965 0.084900
H30   H     H_    0.304575 0.665872 0.008140 0.117723
H31   H     H_    0.220822 0.284424 0.134574 0.127264
H32   H     H_    0.722795 0.213804 0.132751 0.125479
H33   H     H_    0.722700 0.784676 0.130569 0.121861
H34   H     H_    0.362811 0.914221 0.834240 0.097789
H35   H     H_    0.412085 0.345420 0.312164 0.161053
H36   H     H_    0.307577 0.052699 0.914613 0.114933
H37   H     H_    0.811460 0.438465 0.905216 0.097858
H38   H     H_    0.819354 0.565004 0.891764 0.090271
H39   H     H_    0.412390 0.077867 0.361565 0.087813
H40   H     H_    0.347212 0.958522 0.379443 0.107217
H41   H     H_    0.850799 0.542550 0.379587 0.096991
H42   H     H_    0.909629 0.421928 0.364316 0.096274
H43   H     H_    0.355153 0.786273 0.422370 0.171105
H44   H     H_    0.850897 0.717757 0.437189 0.163645
H45   H     H_    0.881576 0.321845 0.490925 0.163725
H46   H     H_    0.764041 0.784208 0.592626 0.162366
H47   H     H_    0.817025 0.235051 0.632487 0.160138
H48   H     H_    0.344043 0.409150 0.476958 0.157131
H49   H     H_    0.384422 0.747351 0.021386 0.074169
H50   H     H_    0.268366 0.732758 0.589280 0.156804
H51   H     H_    0.705164 0.753487 0.351197 0.176533
H52   H     H_    0.899898 0.155922 0.320457 0.181853
H53   H     H_    0.230487 0.200947 0.416611 0.176392
H54   H     H_    0.205116 0.746475 0.344627 0.158032
H55   H     H_    0.639763 0.671164 0.424751 0.136793
H56   H     H_    0.810746 0.178873 0.320622 0.122871
H57   H     H_    0.251676 0.144154 0.495733 0.139641
H58   H     H_    0.132426 0.821110 0.430686 0.151433
H59   H     H_    0.554473 0.748104 0.573814 0.055193
H60   H     H_    0.849479 0.740653 0.062519 0.082268
H61   H     H_    0.713998 0.124874 0.480592 0.045960
H62   H     H_    0.160385 0.219285 0.640151 0.033777
H63   H     H_    0.059364 0.727567 0.566159 0.052847
H64   H     H_    0.314037 0.330485 0.330649 0.179706
H65   H     H_    0.327590 0.714594 0.363003 0.184716
H66   H     H_    0.831005 0.785807 0.366626 0.166757
H67   H     H_    0.948528 0.243010 0.403971 0.174362
H68   H     H_    0.747749 0.854729 0.520627 0.216222
H69   H     H_    0.870755 0.153105 0.543134 0.215364
H70   H     H_    0.256359 0.411770 0.471412 0.202442
H71   H     H_    0.831724 0.275810 0.100343 0.087769
H72   H     H_    0.259969 0.650680 0.523158 0.210854
H73   H     H_    0.685167 0.334033 0.015983 0.123876
H74   H     H_    0.701969 0.674799 0.986406 0.121017
H75   H     H_    0.294660 0.770745 0.852200 0.121149
H76   H     H_    0.185626 0.164955 0.014066 0.123123
H77   H     H_    0.618061 0.255651 0.984499 0.080951
H78   H     H_    0.617815 0.745345 0.981764 0.080790
H79   H     H_    0.171112 0.728976 0.906030 0.086855
H80   H     H_    0.117544 0.244049 0.984197 0.084706
H81   H     H_    0.605372 0.746587 0.822674 0.075443
H82   H     H_    0.396326 0.171102 0.471156 0.175950
H83   H     H_    0.672019 0.219980 0.801044 0.090454
H84   H     H_    0.167063 0.278073 0.805697 0.157095
H85   H     H_    0.106964 0.753829 0.819280 0.072180
H86   H     H_    0.650116 0.039443 0.621947 0.099036
H87   H     H_    0.579718 0.923235 0.645322 0.131940
H88   H     H_    0.081502 0.575302 0.643701 0.139048
H89   H     H_    0.151327 0.457933 0.620897 0.096200
H90   H     H_    0.644308 0.924964 0.157915 0.110205
H91   H     H_    0.641862 0.075478 0.160703 0.095013
H92   H     H_    0.139551 0.422354 0.163425 0.090641
H93   H     H_    0.166656 0.920877 0.518228 0.187890
H94   H     H_    0.190533 0.548870 0.089200 0.095168
H95   H     H_    0.443348 0.264437 0.418959 0.143526
H96   H     H_    0.247122 0.900399 0.534912 0.128937
H97   H     H_    0.753687 0.599952 0.535294 0.125183
H98   H     H_    0.751353 0.363201 0.493491 0.136249
H99   H     H_    0.457827 0.601449 0.827239 0.135421
H100  H     H_    0.538438 0.635758 0.835621 0.061837
H101  H     H_    0.548706 0.490848 0.705886 0.202581
H102  H     H_    0.631671 0.522085 0.714533 0.186416
H103  H     H_    0.534171 0.504389 0.917455 0.267554
H104  H     H_    0.672757 0.577803 0.519953 0.189980
H105  H     H_    0.549695 0.415036 0.844895 0.261883
H106  H     H_    0.452698 0.469406 0.907053 0.274636
H107  H     H_    0.575776 0.352204 0.666117 0.094313
H108  H     H_    0.552420 0.284428 0.772459 0.099846
H109  H     H_    0.475173 0.284018 0.648733 0.182247
H110  H     H_    0.454783 0.211082 0.747337 0.208714
H111  H     H_    0.397736 0.316047 0.889944 0.273377
H112  H     H_    0.341043 0.311868 0.832031 0.270830
H113  H     H_    0.417561 0.388527 0.790895 0.273786
H114  H     H_    0.314064 0.197848 0.759333 0.109023
H115  H     H_    0.717524 0.294708 0.438145 0.194524
H116  H     H_    0.402148 0.196108 0.617584 0.100835
H117  H     H_    0.272926 0.067483 0.757000 0.176247
H118  H     H_    0.327464 0.067427 0.612080 0.202064
H119  H     H_    0.466162 0.064761 0.577828 0.270049
H120  H     H_    0.400855 0.985704 0.667400 0.261895
H121  H     H_    0.416842 0.071858 0.721663 0.274427
H122  H     H_    0.047825 0.939233 0.761958 0.092680
H123  H     H_    0.012342 0.845984 0.833952 0.094052
H124  H     H_    0.923166 0.941263 0.759883 0.196640
H125  H     H_    0.889811 0.846689 0.825392 0.206255
H126  H     H_    0.352147 0.311483 0.595260 0.036887
H127  H     H_    0.870135 0.901563 0.989530 0.264985
H128  H     H_    0.810086 0.956487 0.956994 0.282807
H129  H     H_    0.907340 0.996507 0.924046 0.265163
H130  H     H_    0.559657 0.938774 0.492221 0.141627
H131  H     H_    0.496276 0.860026 0.579573 0.077305
H132  H     H_    0.619234 0.848802 0.327154 0.199526
H133  H     H_    0.541783 0.776906 0.418809 0.184230
H134  H     H_    0.426129 0.874389 0.478708 0.263879
H135  H     H_    0.490638 0.855499 0.334002 0.276207
H136  H     H_    0.504791 0.945128 0.383643 0.264325
N1    N     N_R   0.408680 0.130160 0.995800 -0.044622
N2    N     N_R   0.403730 0.078230 0.935950 -0.042006
N3    N     N_R   0.903730 0.421770 0.935950 -0.039112
N4    N     N_R   0.903730 0.578230 0.935950 -0.037491
N5    N     N_R   0.426630 0.075970 0.212960 -0.032683
N6    N     N_R   0.426630 0.924030 0.212960 -0.037067
N7    N     N_R   0.926630 0.575970 0.212960 -0.037043
N8    N     N_R   0.926630 0.424030 0.212960 -0.031256
N9    N     N_R   0.591320 0.134600 0.004200 -0.041560
N10   N     N_R   0.591320 0.865400 0.004200 -0.045743
N11   N     N_R   0.091320 0.634600 0.004200 -0.048531
N12   N     N_R   0.408680 0.869840 0.995800 -0.039336
N13   N     N_R   0.091320 0.365400 0.004200 -0.042529
N14   N     N_R   0.578320 0.867660 0.846880 -0.035088
N15   N     N_R   0.578320 0.132340 0.846880 -0.040952
N16   N     N_R   0.078320 0.367660 0.846880 -0.047282
N17   N     N_R   0.078320 0.632340 0.846880 -0.034321
N18   N     N_R   0.573370 0.074390 0.787040 -0.052831
N19   N     N_R   0.573370 0.925610 0.787040 -0.045913
N20   N     N_R   0.073370 0.574390 0.787040 -0.048211
N21   N     N_R   0.073370 0.425610 0.787040 -0.047998
N22   N     N_R   0.596270 0.927870 0.064040 -0.038060
N23   N     N_R   0.908680 0.630160 0.995800 -0.040950
N24   N     N_R   0.596270 0.072130 0.064040 -0.036915
N25   N     N_R   0.096270 0.427870 0.064040 -0.035435
N26   N     N_R   0.096270 0.572130 0.064040 -0.040769
N27   N     N_R   0.908680 0.369840 0.995800 -0.045482
N28   N     N_R   0.421680 0.867580 0.153120 -0.039872
N29   N     N_R   0.421680 0.132420 0.153120 -0.034598
N30   N     N_R   0.921680 0.367580 0.153120 -0.035683
N31   N     N_R   0.921680 0.632420 0.153120 -0.038530
N32   N     N_R   0.403730 0.921770 0.935950 -0.035405
Ni1   Ni    Ni4+2 0.500000 0.131190 0.000000 0.204670
Ni2   Ni    Ni4+2 0.500000 0.868810 0.000000 0.204526
Ni3   Ni    Ni4+2 0.000000 0.631190 0.000000 0.207111
Ni4   Ni    Ni4+2 0.000000 0.368810 0.000000 0.204124
Ni5   Ni    Ni4+2 0.488650 0.000000 0.862740 0.204541
Ni6   Ni    Ni4+2 0.988650 0.500000 0.862740 0.203687
Ni7   Ni    Ni4+2 0.511350 1.000000 0.137260 0.207352
Ni8   Ni    Ni4+2 0.011350 0.500000 0.137260 0.211420
O1    O     O_3   0.559996 0.646300 0.684026 -0.678058
O2    O     O_3   0.618098 0.237608 0.616683 -0.672270
O3    O     O_3   0.279878 0.208542 0.656553 -0.690104
O4    O     O_3   0.054067 0.843621 0.673199 -0.674498
O5    O     O_3   0.628403 0.848911 0.490789 -0.682251
O6    O     O_3   0.807083 0.057184 0.468842 -0.672577
O7    O     O_3   0.139178 0.298486 0.553576 -0.644541
O8    O     O_3   0.150124 0.640218 0.477178 -0.679642

loop_
_geom_bond_atom_site_label_1
_geom_bond_atom_site_label_2
_ccdc_geom_bond_type
C44   C49   S    
C40   C85   S    
C38   H53   S    
N9    Ni1   S    
C25   H49   S    
N16   N21   A    
C29   H13   S    
C23   H96   S    
N15   N18   A    
C24   C42   S    
C30   C45   S    
C22   H82   S    
C16   H25   S    
C61   H63   S    
N22   Ni7   S    
C51   H70   S    
C16   H22   S    
C76   C84   A    
C101  O1    S    
C12   H16   S    
C19   C97   A    
C33   H44   S    
C8    H6    S    
C7    C8    S    
C39   C41   S    
C12   H15   S    
C106  H110  S    
C69   C102  A    
C101  H99   S    
N24   Ni7   S    
C64   C102  S    
C27   H126  S    
N1    N2    A    
C95   H84   S    
N1    Ni1   S    
C98   H87   S    
C38   H57   S    
C53   C84   A    
C33   C42   S    
C110  H120  S    
N8    N30   A    
C74   C82   A    
C93   N14   A    
C72   C79   A    
C5    C6    S    
C21   C99   A    
C108  O3    S    
C47   N27   A    
C106  H109  S    
N13   N25   A    
C106  C107  S    
C76   H40   S    
C33   C49   S    
C15   C16   S    
C32   H43   S    
C107  H113  S    
C51   H48   S    
C111  H122  S    
C60   H62   S    
C108  C109  S    
N8    Ni8   S    
N11   N26   A    
C3    H129  S    
C7    H3    S    
C35   C42   S    
N32   Ni5   S    
C32   C52   S    
N19   Ni5   S    
C77   H41   S    
C66   C83   S    
C24   C29   S    
C25   N12   A    
C109  H117  S    
C75   C85   A    
C53   N28   A    
C28   C48   S    
C15   H20   S    
C111  C112  S    
C68   H75   S    
C75   H39   S    
C8    C9    S    
C65   C67   D    
C77   N7    A    
C99   H88   S    
C26   C43   S    
C35   H55   S    
C89   H78   S    
C109  H118  S    
C23   C41   S    
N3    Ni6   S    
C47   C83   A    
C14   H19   S    
C76   N6    A    
C44   C57   S    
C4    H131  S    
C92   N13   A    
C110  H121  S    
C70   H76   S    
C3    H128  S    
C31   H64   S    
C21   C48   S    
C31   H35   S    
N12   Ni2   S    
C78   C86   A    
C94   N15   A    
C33   H66   S    
C101  C103  S    
N30   Ni4   S    
C13   C91   A    
C56   N31   A    
C25   C81   A    
C34   H67   S    
C96   H85   S    
C17   C92   A    
C1    H1    S    
C62   H30   S    
C90   N11   A    
C4    H130  S    
C7    O6    S    
C105  H107  S    
C8    H5    S    
C37   H56   S    
C107  H111  S    
C100  N21   A    
N10   Ni2   S    
C101  H100  S    
C88   H77   S    
C39   C61   S    
C99   N20   A    
C34   C50   S    
C98   N19   A    
C36   H60   S    
C12   H17   S    
C13   C62   S    
C14   O8    S    
C94   H83   S    
C11   C12   S    
N21   Ni6   S    
C11   H14   S    
C4    O5    S    
C28   O4    S    
C47   H71   S    
C10   H11   S    
C10   C11   S    
C5    H133  S    
N14   N19   A    
N6    N28   A    
C78   H42   S    
C56   C87   A    
C88   C102  A    
C108  H116  S    
C75   N5    A    
C112  H124  S    
C41   C84   S    
C46   C51   S    
C17   C80   A    
C35   H51   S    
C55   H28   S    
C53   H26   S    
C64   C66   D    
C7    H4    S    
C37   C43   S    
C2    C89   A    
C36   N23   A    
C2    C65   S    
C73   N3    A    
C18   C44   S    
N13   Ni4   S    
C100  H89   S    
C6    H135  S    
C111  H123  S    
C54   H27   S    
C20   C100  A    
C63   C70   D    
C3    C112  S    
C32   C41   S    
C61   O8    S    
C22   C40   S    
C103  H101  S    
N5    Ni7   S    
C26   H98   S    
N9    N24   A    
C59   H61   S    
C23   C28   S    
C57   H59   S    
N27   Ni4   S    
C103  H102  S    
C104  H106  S    
C37   C59   S    
C19   C94   A    
C28   H2    S    
C88   N9    A    
C67   C82   S    
C37   H52   S    
C38   C60   S    
C56   H29   S    
C27   C46   S    
C95   N16   A    
C20   C95   A    
C26   C30   S    
C54   N29   A    
N31   Ni3   S    
C22   C27   S    
C29   C44   S    
C9    H7    S    
C105  H108  S    
C32   H65   S    
N20   Ni6   S    
C13   C90   A    
N26   Ni8   S    
C68   C81   S    
C46   C60   S    
N28   Ni2   S    
N6    Ni7   S    
N3    N27   A    
C91   H94   S    
N17   Ni3   S    
C1    C79   A    
C107  H112  S    
C14   H18   S    
C29   O1    S    
C6    H136  S    
C96   N17   A    
C9    H8    S    
N29   Ni1   S    
C49   H46   S    
C45   C59   S    
C74   H38   S    
C30   O2    S    
N7    N31   A    
C70   C79   S    
C43   C86   S    
C97   H86   S    
C6    H134  S    
C91   N26   A    
C93   H81   S    
C34   C43   S    
C52   H72   S    
C104  H103  S    
C31   C51   S    
C4    C5    S    
C10   H10   S    
N16   Ni4   S    
N4    Ni6   S    
C54   C85   A    
C74   N4    A    
C24   H97   S    
C19   C45   S    
N4    N23   A    
C69   H91   S    
C18   C93   A    
C15   H21   S    
C21   C96   A    
C50   H47   S    
C39   H58   S    
C64   H32   S    
C105  C106  S    
C58   N22   A    
N5    N29   A    
C30   H24   S    
C71   N32   A    
N15   Ni1   S    
C62   C68   D    
C35   C57   S    
C78   N8    A    
C60   O7    S    
C49   H68   S    
C39   H54   S    
N11   Ni3   S    
C27   O3    S    
C9    H9    S    
C72   H36   S    
C109  C110  S    
C17   C63   S    
C69   N24   A    
C38   C40   S    
C24   H104  S    
N18   Ni5   S    
C48   C61   S    
N14   Ni2   S    
C59   O6    S    
C108  H114  S    
C45   C50   S    
C55   C86   A    
N12   N32   A    
N7    Ni8   S    
C36   C82   A    
C80   N25   A    
C26   H115  S    
N2    Ni5   S    
C22   H95   S    
C1    N1    A    
C5    H132  S    
C2    C58   A    
N10   N22   A    
N17   N20   A    
C20   C46   S    
C104  H105  S    
C67   H74   S    
C57   O5    S    
C110  H119  S    
C111  O4    S    
N23   Ni3   S    
C50   H69   S    
C34   H45   S    
C97   N18   A    
C48   C52   S    
C71   H34   S    
C77   C87   A    
C55   N30   A    
C112  H125  S    
C73   H37   S    
C66   H73   S    
C52   H50   S    
C103  C104  S    
C11   H12   S    
N25   Ni8   S    
C63   H31   S    
C14   C15   S    
C105  O2    S    
C42   C87   S    
C18   C98   A    
C31   C40   S    
C72   N2    A    
C89   N10   A    
C16   H23   S    
C65   H33   S    
C90   H79   S    
C73   C83   A    
C23   H93   S    
C92   H80   S    
C58   H90   S    
C3    H127  S    
C10   O7    S    
C71   C81   A    
C80   H92   S    
