data_mof_unit_68307.cif
_audit_creation_date              2012-12-10T20:45:32-0500
_audit_creation_method            fapswitch 2.2
_symmetry_space_group_name_H-M    P1
_symmetry_Int_Tables_number       1
_space_group_crystal_system       triclinic
_cell_length_a                    10.760188
_cell_length_b                    10.564592
_cell_length_c                    9.95395
_cell_angle_alpha                 90.542326
_cell_angle_beta                  91.127847
_cell_angle_gamma                 91.095915
_cell_volume                      1131.05415156

loop_
_atom_site_label
_atom_site_type_symbol
_atom_type_description
_atom_site_fract_x
_atom_site_fract_y
_atom_site_fract_z
_atom_type_partial_charge
C1    C     C_R   0.496992 0.260697 0.499368 0.898237
C2    C     C_R   0.173179 0.643451 0.009995 -0.191561
C3    C     C_R   0.933521 0.434136 0.391393 0.001795
C4    C     C_R   0.873020 0.476011 0.506683 -0.180749
C5    C     C_R   0.942559 0.504811 0.624649 0.061107
C6    C     C_R   0.069140 0.513637 0.617975 -0.207846
C7    C     C_R   0.127145 0.499052 0.495673 -0.110458
C8    C     C_R   0.058904 0.467193 0.377258 0.046693
C9    C     C_R   0.885424 0.598047 0.848474 0.026716
C10   C     C_R   0.845744 0.578095 0.981415 -0.048529
C11   C     C_R   0.815176 0.454106 0.022151 -0.180289
C12   C     C_R   0.260182 0.502924 0.498324 0.914894
C13   C     C_R   0.830460 0.350639 0.935925 0.178697
C14   C     C_R   0.867052 0.370916 0.805256 -0.170740
C15   C     C_R   0.892618 0.493405 0.760313 0.085730
C16   C     C_R   0.388731 0.059785 0.504879 0.166232
C17   C     C_R   0.499352 0.128715 0.496342 -0.153296
C18   C     C_R   0.611160 0.070180 0.467609 -0.167381
C19   C     C_R   0.616175 0.938665 0.468755 -0.056152
C20   C     C_R   0.505927 0.871038 0.498291 -0.146952
C21   C     C_R   0.392545 0.930648 0.505252 0.104653
C22   C     C_3   0.294358 0.917332 0.608238 -0.536895
C23   C     C_R   0.502710 0.739028 0.500276 0.856967
C24   C     C_3   0.291384 0.061144 0.611100 -0.241455
C25   C     C_R   0.447866 0.401731 0.068855 0.169068
C26   C     C_R   0.535003 0.604442 0.074887 -0.062607
C27   C     C_R   0.538672 0.604222 0.931697 -0.028227
C28   C     C_R   0.446494 0.402108 0.927305 0.179132
C29   C     C_3   0.480904 0.266252 0.922510 -0.420604
C30   C     C_3   0.483280 0.266888 0.075249 -0.430531
C31   C     C_R   0.739672 0.491041 0.501864 0.847266
C32   C     C_R   0.143895 0.715186 0.122729 0.219197
C33   C     C_R   0.104973 0.655029 0.239188 -0.130295
C34   C     C_R   0.098886 0.521946 0.246738 0.009923
C35   C     C_R   0.135182 0.449259 0.134016 0.011085
C36   C     C_R   0.166884 0.511647 0.014815 -0.184792
H1    H     H_    0.202403 0.689643 0.918975 0.175850
H2    H     H_    0.779201 0.438335 0.120632 0.174337
H3    H     H_    0.879078 0.290323 0.738859 0.161685
H4    H     H_    0.694379 0.127022 0.451211 0.175890
H5    H     H_    0.208920 0.869719 0.565893 0.213939
H6    H     H_    0.329914 0.876378 0.703779 0.237556
H7    H     H_    0.325052 0.102302 0.707813 0.159346
H8    H     H_    0.567872 0.686592 0.131740 0.207612
H9    H     H_    0.404173 0.206055 0.880703 0.216203
H10   H     H_    0.572499 0.251833 0.876270 0.228685
H11   H     H_    0.409081 0.206290 0.118826 0.231585
H12   H     H_    0.576988 0.255327 0.121379 0.220429
H13   H     H_    0.080258 0.712452 0.325057 0.170157
H14   H     H_    0.192705 0.458141 0.926805 0.176109
H15   H     H_    0.122160 0.532198 0.709992 0.172512
N1    N     N_R   0.499160 0.499140 0.142800 -0.134638
N2    N     N_R   0.499160 0.499180 0.857150 -0.156024
O1    O     O_R   0.500020 0.316790 0.614690 -0.619789
O2    O     O_R   0.500000 0.316760 0.385350 -0.628678
O3    O     O_R   0.316770 0.500030 0.614670 -0.623255
O4    O     O_R   0.316750 0.499990 0.385330 -0.620960
O5    O     O_R   0.500000 0.683240 0.614650 -0.640854
O6    O     O_R   0.499980 0.683210 0.385310 -0.608445
O7    O     O_R   0.683250 0.500010 0.614670 -0.630706
O8    O     O_R   0.683230 0.499970 0.385330 -0.601254
Zn1   Zn    Zn3+2 0.500010 0.500020 0.653130 0.938738
Zn2   Zn    Zn3+2 0.499990 0.499980 0.346870 0.963618
I1    I     I_    0.809102 0.160968 0.999286 -0.230035
C37   C     C_2   0.736021 0.874494 0.446840 0.508803
H16   H     H_    0.742298 0.772610 0.455897 0.077398
O9    O     O_2   0.829644 0.934894 0.418438 -0.514169
C38   C     C_2   0.168454 0.112448 0.565521 0.508241
H17   H     H_    0.084104 0.082346 0.615087 0.122859
O10   O     O_2   0.162496 0.190244 0.476088 -0.582587
I2    I     I_    0.158050 0.914466 0.118040 -0.215226
C39   C     C_2   0.596626 0.714604 0.867386 0.431204
H18   H     H_    0.654101 0.701625 0.780781 0.128651
O11   O     O_2   0.584930 0.821074 0.913706 -0.565412
C40   C     C_2   0.152737 0.311305 0.141484 0.484550
H19   H     H_    0.167892 0.267042 0.237688 0.168182
O12   O     O_2   0.153407 0.245817 0.039740 -0.556276
C41   C     C_2   0.879119 0.322062 0.319376 0.388806
H20   H     H_    0.779507 0.309808 0.305938 0.074564
O13   O     O_2   0.944111 0.234474 0.286209 -0.495807
I3    I     I_    0.933668 0.782921 0.776682 -0.408824
C42   C     C_2   0.836247 0.684932 0.078378 0.411567
H21   H     H_    0.850811 0.781855 0.047227 0.161681
O14   O     O_2   0.812475 0.666036 0.195981 -0.585849

loop_
_geom_bond_atom_site_label_1
_geom_bond_atom_site_label_2
_ccdc_geom_bond_type
O5    Zn1   S    
C23   O5    A    
C16   C21   A    
C31   O8    A    
C35   C36   A    
C1    O1    A    
C26   H8    S    
C7    C8    A    
C25   C28   A    
C23   O6    A    
C35   C40   S    
C26   C27   A    
C30   H12   S    
C28   C29   S    
C18   C19   A    
C5    C6    A    
C41   O13   D    
C22   H5    S    
C33   H13   S    
C2    C32   A    
C34   C35   A    
O8    Zn2   S    
C18   H4    S    
C14   H3    S    
C38   H17   S    
C19   C20   A    
C16   C17   A    
C37   O9    D    
O2    Zn2   S    
C6    H15   S    
C9    C10   A    
C16   C24   S    
C21   C22   S    
O4    Zn2   S    
C32   I2    S    
C7    C12   S    
C30   H11   S    
C39   O11   D    
C3    C8    A    
C41   H20   S    
C4    C5    A    
O1    Zn1   S    
C10   C42   S    
C29   H9    S    
C31   O7    A    
C11   H2    S    
C40   H19   S    
C29   C30   S    
C26   N1    A    
N2    Zn1   S    
C20   C23   S    
C17   C18   A    
C8    C34   S    
C40   O12   D    
C12   O3    A    
C12   O4    A    
C37   H16   S    
C42   O14   D    
O3    Zn1   S    
C3    C4    A    
C36   H14   S    
C2    C36   A    
C25   C30   S    
C1    C17   S    
C39   H18   S    
N1    Zn2   S    
C28   N2    A    
C27   N2    A    
C6    C7    A    
O6    Zn2   S    
C29   H10   S    
C32   C33   A    
C1    O2    A    
C25   N1    A    
O7    Zn1   S    
C11   C13   A    
C2    H1    S    
C22   H6    S    
C13   I1    S    
C33   C34   A    
C19   C37   S    
C22   C24   S    
C9    C15   A    
C5    C15   S    
C4    C31   S    
C10   C11   A    
C24   C38   S    
C20   C21   A    
C38   O10   D    
C42   H21   S    
C24   H7    S    
C14   C15   A    
C13   C14   A    
C3    C41   S    
C27   C39   S    
C9    I3    S    
