data_mof_unit_14905.cif
_audit_creation_date              2012-12-10T17:40:25-0500
_audit_creation_method            fapswitch 2.2
_symmetry_space_group_name_H-M    P1
_symmetry_Int_Tables_number       1
_space_group_crystal_system       triclinic
_cell_length_a                    13.806058
_cell_length_b                    15.07437
_cell_length_c                    15.886876
_cell_angle_alpha                 87.66181
_cell_angle_beta                  71.015499
_cell_angle_gamma                 89.06989
_cell_volume                      3123.87755878

loop_
_atom_site_label
_atom_site_type_symbol
_atom_type_description
_atom_site_fract_x
_atom_site_fract_y
_atom_site_fract_z
_atom_type_partial_charge
C1    C     C_R   0.499387 0.671344 0.500265 0.825285
C2    C     C_R   0.500485 0.328637 0.500094 0.819908
C3    C     C_R   0.510186 0.378462 0.024513 -0.188706
C4    C     C_R   0.481546 0.617519 0.979118 -0.254695
C5    C     C_R   0.449974 0.340152 0.979684 0.138201
C6    C     C_R   0.539580 0.656063 0.024943 0.154202
C7    C     C_R   0.410303 0.186483 0.507090 -0.253986
C8    C     C_R   0.588988 0.813423 0.495078 -0.250159
C9    C     C_R   0.500766 0.231705 0.500462 -0.073889
C10   C     C_R   0.498720 0.768220 0.501067 -0.073210
C11   C     C_R   0.590783 0.184101 0.494211 -0.222454
C12   C     C_R   0.408507 0.815780 0.507986 -0.221763
C13   C     C_R   0.590871 0.091609 0.494768 0.102242
C14   C     C_R   0.408213 0.908250 0.508108 0.103035
C15   C     C_R   0.499759 0.046425 0.501391 0.062881
C16   C     C_R   0.499276 0.953434 0.501643 0.062980
C17   C     C_R   0.409171 0.094138 0.507583 0.107218
C18   C     C_R   0.589912 0.905731 0.495285 0.106071
C19   C     C_R   0.680492 0.043562 0.488686 -0.203902
C20   C     C_R   0.318528 0.956288 0.514411 -0.203496
C21   C     C_R   0.680013 0.951076 0.488956 -0.214284
C22   C     C_R   0.319007 0.048779 0.514134 -0.214438
C23   C     C_R   0.438487 0.501385 0.671468 0.820145
C24   C     C_R   0.561619 0.499158 0.328705 0.808246
C25   C     C_R   0.226025 0.557848 0.442414 0.267520
C26   C     C_R   0.773914 0.442411 0.557811 0.278625
C27   C     C_R   0.186585 0.443511 0.556514 -0.030505
C28   C     C_R   0.813592 0.556074 0.443055 -0.033441
C29   C     C_R   0.083913 0.442423 0.557550 0.000075
C30   C     C_R   0.916327 0.557066 0.441899 0.000740
C31   C     C_R   0.051956 0.500044 0.499461 0.072512
C32   C     C_R   0.948269 0.499512 0.500047 0.070535
C33   C     C_R   0.123317 0.558274 0.440954 -0.035227
C34   C     C_R   0.876840 0.441466 0.558741 -0.035192
C35   C     C_R   0.012545 0.384779 0.615702 -0.208972
C36   C     C_R   0.987773 0.614547 0.383582 -0.207629
C37   C     C_R   0.910937 0.384208 0.616493 -0.168298
C38   C     C_R   0.089334 0.615259 0.382933 -0.170104
C39   C     C_R   0.405683 0.485410 0.767884 -0.038040
C40   C     C_R   0.594654 0.512946 0.232236 -0.070673
C41   C     C_R   0.354556 0.362759 0.874234 -0.205416
C42   C     C_R   0.640412 0.635551 0.125857 -0.201812
C43   C     C_R   0.346676 0.409363 0.799922 -0.215043
C44   C     C_R   0.651734 0.589691 0.199147 -0.217464
C45   C     C_R   0.454211 0.527872 0.821674 0.116751
C46   C     C_R   0.546121 0.468223 0.179896 0.096874
C47   C     C_R   0.447340 0.485993 0.906063 0.041362
C48   C     C_R   0.548218 0.510190 0.096465 0.057162
C49   C     C_R   0.414249 0.396127 0.922263 0.069217
C50   C     C_R   0.578612 0.600992 0.080546 0.106742
C51   C     C_R   0.481202 0.525362 0.971222 0.017011
C52   C     C_R   0.511661 0.470612 0.032666 0.009290
Cu1   Cu    Cu3+1 0.402580 0.500010 0.499990 0.963508
Cu2   Cu    Cu3+1 0.597420 0.499990 0.500010 0.961842
H1    H     H_    0.211127 0.399130 0.601038 0.130660
H2    H     H_    0.789110 0.600296 0.398373 0.131670
H3    H     H_    0.035219 0.339851 0.661006 0.136306
H4    H     H_    0.965161 0.659324 0.338126 0.136123
H5    H     H_    0.860700 0.337915 0.663416 0.175069
H6    H     H_    0.139643 0.661407 0.335877 0.174866
H7    H     H_    0.691037 0.622263 0.238317 0.150244
H8    H     H_    0.308047 0.377875 0.759581 0.148669
H9    H     H_    0.319739 0.297786 0.889253 0.137206
H10   H     H_    0.674475 0.700709 0.109395 0.154219
H11   H     H_    0.558797 0.337189 0.050211 0.156687
H12   H     H_    0.442064 0.660204 0.944736 0.169524
H13   H     H_    0.340457 0.222996 0.512045 0.156105
H14   H     H_    0.658917 0.776934 0.489856 0.156760
H15   H     H_    0.660868 0.218849 0.488605 0.174386
H16   H     H_    0.338498 0.781024 0.513367 0.175051
H17   H     H_    0.750868 0.077502 0.483650 0.149240
H18   H     H_    0.248168 0.922348 0.519400 0.149586
H19   H     H_    0.750064 0.915018 0.484081 0.144064
H20   H     H_    0.248970 0.084837 0.518956 0.143719
N1    N     N_R   0.256170 0.500070 0.500040 -0.194362
N2    N     N_R   0.743830 0.499930 0.499960 -0.197681
O1    O     O_R   0.417730 0.629750 0.499970 -0.557125
O2    O     O_R   0.582270 0.370250 0.500030 -0.557131
O3    O     O_R   0.582270 0.629730 0.499980 -0.596280
O4    O     O_R   0.417730 0.370270 0.500020 -0.598871
O5    O     O_R   0.371590 0.500020 0.629830 -0.592631
O6    O     O_R   0.628410 0.499980 0.370170 -0.592818
O7    O     O_R   0.536130 0.499990 0.629840 -0.558753
O8    O     O_R   0.463870 0.500010 0.370160 -0.544107
C53   C     C_3   0.430972 0.240176 0.985689 -0.389012
C54   C     C_3   0.476799 0.185234 0.046663 -0.853311
H21   H     H_    0.561742 0.188735 0.021590 0.249829
H22   H     H_    0.446724 0.208407 0.115838 0.253579
H23   H     H_    0.454683 0.114604 0.047617 0.246822
H24   H     H_    0.346936 0.228737 0.010837 0.196719
H25   H     H_    0.461937 0.213695 0.917769 0.215961
C55   C     C_3   0.551249 0.756188 0.017674 -0.401894
C56   C     C_3   0.649338 0.783551 0.943697 -0.839521
H26   H     H_    0.717496 0.753539 0.956338 0.249204
H27   H     H_    0.646757 0.761912 0.878447 0.254782
H28   H     H_    0.656939 0.856926 0.940472 0.245368
H29   H     H_    0.485248 0.787891 0.002454 0.203145
H30   H     H_    0.550066 0.783242 0.081953 0.206407
I1    I     I_    0.330068 0.651142 0.352529 -0.419408
I2    I     I_    0.669352 0.350574 0.649071 -0.413761
C57   C     C_3   0.480630 0.385923 0.221656 -0.393046
C58   C     C_3   0.366371 0.401488 0.237475 -0.736067
H31   H     H_    0.338945 0.459919 0.278917 0.274546
H32   H     H_    0.350095 0.412414 0.174028 0.248239
H33   H     H_    0.322458 0.342455 0.273113 0.223203
H34   H     H_    0.507023 0.325275 0.184984 0.174734
H35   H     H_    0.488759 0.364802 0.286616 0.191279
C59   C     C_3   0.525645 0.607005 0.781569 -0.408929
C60   C     C_3   0.467471 0.688538 0.762464 -0.847373
H36   H     H_    0.519859 0.746443 0.743330 0.248866
H37   H     H_    0.401633 0.704922 0.821800 0.246829
H38   H     H_    0.438255 0.676864 0.706570 0.240463
H39   H     H_    0.573527 0.625604 0.821572 0.206768
H40   H     H_    0.586307 0.589691 0.719572 0.237806

loop_
_geom_bond_atom_site_label_1
_geom_bond_atom_site_label_2
_ccdc_geom_bond_type
C57   H35   S    
C4    H12   S    
C56   H26   S    
C27   C29   A    
C34   C37   A    
C1    O1    A    
C19   H17   S    
C28   H2    S    
C55   H30   S    
C47   C49   A    
C3    H11   S    
Cu1   Cu2   S    
C40   C46   A    
C57   C58   S    
C23   O7    A    
Cu1   O8    S    
C35   C37   A    
C36   H4    S    
C60   H37   S    
C27   H1    S    
C15   C16   A    
C18   C21   A    
C21   H19   S    
C59   C60   S    
C58   H33   S    
Cu1   O5    S    
C59   H40   S    
C24   O6    A    
C26   C34   A    
C7    C17   A    
C26   N2    A    
C31   C33   A    
C45   C59   S    
C39   C45   A    
C5    C53   S    
C48   C50   A    
C56   H27   S    
C41   C43   A    
C5    C49   A    
Cu1   N1    S    
C42   C44   A    
C27   N1    A    
C41   C49   A    
Cu2   O7    S    
C25   I1    S    
C55   H29   S    
C45   C47   A    
C53   H25   S    
C46   C57   S    
C46   C48   A    
C13   C19   A    
C4    C51   A    
C51   C52   A    
C14   C20   A    
Cu1   O4    S    
C4    C6    A    
C60   H38   S    
C54   H21   S    
C39   C43   A    
C53   C54   S    
C8    C18   A    
C25   N1    A    
C32   C34   A    
C59   H39   S    
Cu1   O1    S    
C2    O2    A    
C31   C32   A    
C40   C44   A    
C53   H24   S    
C6    C50   A    
C58   H32   S    
C9    C11   A    
C37   H5    S    
C10   C12   A    
C42   C50   A    
C38   H6    S    
C16   C18   A    
C20   C22   A    
C8    H14   S    
C56   H28   S    
C13   C15   A    
C1    O3    A    
C14   C16   A    
C22   H20   S    
C28   N2    A    
C42   H10   S    
Cu2   O6    S    
Cu2   O3    S    
C57   H34   S    
C15   C17   A    
C12   H16   S    
C23   O5    A    
C19   C21   A    
Cu2   N2    S    
C1    C10   S    
C33   C38   A    
C12   C14   A    
C3    C5    A    
C54   H23   S    
C47   C51   A    
C3    C52   A    
C11   H15   S    
C44   H7    S    
C29   C35   A    
C17   C22   A    
C30   C36   A    
C35   H3    S    
C28   C30   A    
C24   O8    A    
C29   C31   A    
C60   H36   S    
C30   C32   A    
C11   C13   A    
C23   C39   S    
C36   C38   A    
C55   C56   S    
C24   C40   S    
C54   H22   S    
C6    C55   S    
C58   H31   S    
C2    O4    A    
C7    H13   S    
C7    C9    A    
C48   C52   A    
C8    C10   A    
C25   C33   A    
C41   H9    S    
C20   H18   S    
C2    C9    S    
C43   H8    S    
C26   I2    S    
Cu2   O2    S    
