data_mof_unit_36754.cif
_audit_creation_date              2012-12-10T16:49:26-0500
_audit_creation_method            fapswitch 2.2
_symmetry_space_group_name_H-M    P1
_symmetry_Int_Tables_number       1
_space_group_crystal_system       triclinic
_cell_length_a                    19.335183
_cell_length_b                    8.690645
_cell_length_c                    7.443656
_cell_angle_alpha                 102.912578
_cell_angle_beta                  94.512333
_cell_angle_gamma                 92.364917
_cell_volume                      1213.15677652

loop_
_atom_site_label
_atom_site_type_symbol
_atom_type_description
_atom_site_fract_x
_atom_site_fract_y
_atom_site_fract_z
_atom_type_partial_charge
C1    C     C_R   0.497912 0.199700 0.453280 0.890509
C2    C     C_R   0.502088 0.800300 0.546720 0.890509
C3    C     C_2   0.496913 0.031879 0.426924 -0.370156
C4    C     C_2   0.503087 0.968121 0.573076 -0.370156
C5    C     C_R   0.367503 0.500048 0.501835 0.783548
C6    C     C_R   0.632497 0.499952 0.498165 0.783547
C7    C     C_R   0.260296 0.510864 0.669770 -0.189541
C8    C     C_R   0.739704 0.489136 0.330230 -0.189541
C9    C     C_R   0.188165 0.510867 0.669530 -0.153621
C10   C     C_R   0.811835 0.489133 0.330470 -0.153621
C11   C     C_R   0.146317 0.500932 0.503600 0.060166
C12   C     C_R   0.853683 0.499068 0.496400 0.060166
C13   C     C_R   0.177865 0.491173 0.338314 -0.156101
C14   C     C_R   0.822135 0.508826 0.661686 -0.156101
C15   C     C_R   0.249738 0.491066 0.338559 -0.182382
C16   C     C_R   0.750262 0.508934 0.661441 -0.182382
C17   C     C_R   0.291618 0.500785 0.504106 -0.026314
C18   C     C_R   0.708382 0.499215 0.495894 -0.026314
C19   C     C_R   0.929840 0.499474 0.498018 0.411519
C20   C     C_R   0.070160 0.500526 0.501982 0.411519
Cu1   Cu    Cu3+1 0.507710 0.517380 0.684380 0.950004
Cu2   Cu    Cu3+1 0.492290 0.482620 0.315620 0.950005
H1    H     H_    0.291396 0.518385 0.799329 0.148866
H2    H     H_    0.708604 0.481615 0.200671 0.148866
H3    H     H_    0.165317 0.518505 0.799250 0.149777
H4    H     H_    0.834683 0.481495 0.200750 0.149777
H5    H     H_    0.147140 0.483501 0.208193 0.155445
H6    H     H_    0.852860 0.516498 0.791807 0.155445
H7    H     H_    0.491094 0.960414 0.286000 0.179834
H8    H     H_    0.508905 0.039586 0.714000 0.179834
H9    H     H_    0.445073 0.379401 0.948621 0.223557
H10   H     H_    0.554927 0.620599 0.051379 0.223557
N1    N     N_R   0.029924 0.490540 0.341448 -0.231100
N2    N     N_R   0.970076 0.509460 0.658552 -0.231100
N3    N     N_R   0.961110 0.490029 0.339442 -0.234066
N4    N     N_R   0.038890 0.509971 0.660557 -0.234066
N5    N     N_2   0.480680 0.456420 0.038530 -0.218580
N6    N     N_2   0.519320 0.543580 0.961470 -0.218580
O1    O     O_R   0.505010 0.286130 0.619770 -0.581918
O2    O     O_R   0.494990 0.713870 0.380230 -0.581918
O3    O     O_R   0.491990 0.256780 0.308370 -0.583459
O4    O     O_R   0.508010 0.743220 0.691630 -0.583459
O5    O     O_R   0.406650 0.514660 0.655750 -0.590834
O6    O     O_R   0.593350 0.485340 0.344250 -0.590834
O7    O     O_R   0.393640 0.485310 0.344340 -0.585935
O8    O     O_R   0.606360 0.514690 0.655660 -0.585935
H11   H     H_    0.272384 0.483420 0.208527 0.150781
H12   H     H_    0.727616 0.516580 0.791473 0.150780

loop_
_geom_bond_atom_site_label_1
_geom_bond_atom_site_label_2
_ccdc_geom_bond_type
C2    C4    S    
C15   C17   A    
N5    N6    D    
C8    H2    S    
H10   N6    S    
C11   C13   A    
Cu1   O1    S    
C15   H11   S    
Cu2   O2    S    
C10   H4    S    
C8    C18   A    
C5    O5    A    
C9    H3    S    
C6    O6    A    
Cu1   Cu2   S    
C9    C11   A    
C16   H12   S    
C10   C12   A    
C2    O4    A    
C7    H1    S    
C20   N1    A    
C12   C19   S    
C1    O3    A    
N1    N3    A    
C12   C14   A    
C19   N3    A    
N2    N4    A    
C13   C15   A    
C6    C18   S    
C14   C16   A    
C11   C20   S    
Cu2   O3    S    
C5    C17   S    
C1    O1    A    
C3    C4    D    
C20   N4    A    
C2    O2    A    
Cu2   O7    S    
C16   C18   A    
Cu1   O8    S    
C7    C9    A    
C13   H5    S    
C3    H7    S    
Cu2   O6    S    
C6    O8    A    
C14   H6    S    
Cu1   O5    S    
Cu2   N5    S    
C5    O7    A    
C8    C10   A    
C4    H8    S    
Cu1   N6    S    
Cu1   O4    S    
H9    N5    S    
C1    C3    S    
C19   N2    A    
C7    C17   A    
