data_mof_unit_61851.cif
_audit_creation_date              2012-12-10T18:37:02-0500
_audit_creation_method            fapswitch 2.2
_symmetry_space_group_name_H-M    P1
_symmetry_Int_Tables_number       1
_space_group_crystal_system       triclinic
_cell_length_a                    30.2481
_cell_length_b                    21.328609
_cell_length_c                    21.313183
_cell_angle_alpha                 90.045821
_cell_angle_beta                  135.184065
_cell_angle_gamma                 90.065251
_cell_volume                      9691.54144763

loop_
_atom_site_label
_atom_site_type_symbol
_atom_type_description
_atom_site_fract_x
_atom_site_fract_y
_atom_site_fract_z
_atom_type_partial_charge
C1    C     C_R   0.121708 0.499823 0.122044 0.937872
C2    C     C_R   0.621708 0.999870 0.122047 0.938200
C3    C     C_3   0.944398 0.729464 0.962182 0.163628
C4    C     C_3   0.946657 0.270107 0.970123 0.158390
C5    C     C_3   0.444770 0.229497 0.963805 0.162761
C6    C     C_3   0.446177 0.770141 0.968393 0.159406
C7    C     C_3   0.000690 0.689088 0.000701 -0.160317
C8    C     C_3   0.000578 0.310895 0.000396 -0.161216
C9    C     C_3   0.500618 0.189090 0.000611 -0.160379
C10   C     C_3   0.500665 0.810902 0.000502 -0.161046
C11   C     C_3   0.228867 0.451368 0.194794 -0.146971
C12   C     C_3   0.229200 0.553975 0.205614 -0.147090
C13   C     C_3   0.728872 0.950090 0.196748 -0.146812
C14   C     C_3   0.729184 0.053027 0.203481 -0.146660
C15   C     C_3   0.269897 0.505736 0.210963 -0.203036
C16   C     C_3   0.769886 0.003423 0.210767 -0.203168
C17   C     C_3   0.310960 0.499745 0.310898 -0.052611
C18   C     C_3   0.810960 0.999770 0.310903 -0.052786
C19   C     C_3   0.271364 0.445197 0.296089 -0.122818
C20   C     C_3   0.271722 0.548186 0.307011 -0.135680
C21   C     C_3   0.771388 0.946250 0.298267 -0.125043
C22   C     C_3   0.771707 0.049574 0.305057 -0.133212
C23   C     C_3   0.231233 0.493721 0.290788 0.187193
C24   C     C_3   0.731245 0.996105 0.291007 0.187296
C25   C     C_3   0.189327 0.499632 0.190628 -0.039154
C26   C     C_3   0.689327 0.999714 0.190643 -0.039195
C27   C     C_3   0.770487 0.549621 0.737190 -0.159028
C28   C     C_3   0.770284 0.446733 0.744138 -0.155441
C29   C     C_3   0.270504 0.050381 0.738440 -0.158400
C30   C     C_3   0.270266 0.947346 0.742813 -0.156079
C31   C     C_3   0.728731 0.496080 0.669433 -0.142105
C32   C     C_3   0.228729 0.997509 0.669355 -0.142118
C33   C     C_R   0.000579 0.621599 0.000592 0.914769
C34   C     C_R   0.000400 0.378395 0.000355 0.919931
C35   C     C_R   0.500521 0.121600 0.000530 0.916019
C36   C     C_R   0.500457 0.878398 0.000416 0.918762
C37   C     C_3   0.689305 0.500271 0.689576 0.023547
C38   C     C_3   0.189304 0.000237 0.689584 0.023565
C39   C     C_3   0.729795 0.553819 0.756051 -0.169698
C40   C     C_3   0.729590 0.450921 0.763029 -0.169336
C41   C     C_3   0.229808 0.053116 0.757390 -0.169607
C42   C     C_3   0.229575 0.950070 0.761787 -0.169573
C43   C     C_3   0.771154 0.504443 0.830580 -0.175368
C44   C     C_3   0.271151 0.002931 0.830668 -0.175471
C45   C     C_3   0.810703 0.500247 0.810536 0.031089
C46   C     C_3   0.310702 0.000199 0.810539 0.031181
C47   C     C_R   0.999797 0.000162 0.878167 0.851907
C48   C     C_R   0.499800 0.500167 0.878170 0.851915
C49   C     C_R   0.999966 0.878371 0.999806 0.904215
C50   C     C_R   0.000082 0.121621 0.999877 0.904075
C51   C     C_R   0.499965 0.378372 0.999806 0.904075
C52   C     C_R   0.500087 0.621624 0.999900 0.904128
C53   C     C_R   0.000107 0.000126 0.121885 0.864648
C54   C     C_R   0.500104 0.500100 0.121881 0.864582
C55   C     C_R   0.499902 0.500003 0.378266 0.860201
C56   C     C_R   0.999919 0.000008 0.378283 0.860226
C57   C     C_R   0.378379 0.499925 0.378032 0.879581
C58   C     C_R   0.878379 0.999928 0.378026 0.879664
C59   C     C_R   0.499591 0.500056 0.621336 0.857816
C60   C     C_R   0.999578 0.000055 0.621322 0.857826
C61   C     C_R   0.878292 0.500107 0.878168 0.830673
C62   C     C_R   0.378292 0.000081 0.878168 0.830648
C63   C     C_R   0.621697 0.500079 0.621982 0.858100
C64   C     C_R   0.121696 0.000074 0.621990 0.858052
C65   C     C_3   0.041864 0.041900 0.812834 -0.163153
C66   C     C_3   0.013707 0.942616 0.784486 -0.153314
C67   C     C_3   0.542536 0.541223 0.813512 -0.163429
C68   C     C_3   0.512804 0.442395 0.783580 -0.153051
C69   C     C_3   0.556161 0.483243 0.785896 -0.153557
C70   C     C_3   0.056408 0.984147 0.786141 -0.153413
C71   C     C_3   0.499143 0.500271 0.688480 0.025527
C72   C     C_3   0.999122 0.000265 0.688457 0.025630
C73   C     C_3   0.485508 0.558235 0.714903 -0.174082
C74   C     C_3   0.455710 0.459435 0.684786 -0.161157
C75   C     C_3   0.984568 0.058002 0.713953 -0.173812
C76   C     C_3   0.956345 0.958746 0.685425 -0.161287
C77   C     C_3   0.941818 0.016422 0.712116 -0.169746
C78   C     C_3   0.442102 0.517338 0.712404 -0.169899
C79   C     C_3   0.999195 0.000320 0.809952 0.028251
C80   C     C_3   0.499209 0.500327 0.809968 0.028460
C81   C     C_3   0.018031 0.943435 0.247484 -0.142241
C82   C     C_3   0.040379 0.044188 0.270173 -0.155165
C83   C     C_3   0.520426 0.444220 0.249907 -0.143904
C84   C     C_3   0.538431 0.545826 0.268207 -0.153702
C85   C     C_3   0.558678 0.489841 0.329908 -0.146382
C86   C     C_3   0.058203 0.987369 0.329421 -0.146755
C87   C     C_3   0.499954 0.500086 0.310727 0.019880
C88   C     C_3   0.999982 0.000118 0.310753 0.019665
C89   C     C_3   0.012946 0.729458 0.954595 -0.270520
C90   C     C_3   0.006739 0.270484 0.947184 -0.269915
C91   C     C_3   0.511579 0.229456 0.952941 -0.270624
C92   C     C_3   0.508196 0.770487 0.948837 -0.269834
C93   C     C_3   0.461675 0.454469 0.232006 -0.168836
C94   C     C_3   0.479740 0.556056 0.250306 -0.169414
C95   C     C_3   0.959778 0.956191 0.230094 -0.168574
C96   C     C_3   0.982193 0.056921 0.252776 -0.169271
C97   C     C_3   0.941980 0.012941 0.171018 -0.177538
C98   C     C_3   0.441454 0.510393 0.170490 -0.177851
C99   C     C_3   0.000219 0.000210 0.189584 0.017492
C100  C     C_3   0.500196 0.500166 0.189562 0.017434
C101  C     C_3   0.955909 0.770466 0.915288 -0.142787
C102  C     C_3   0.952054 0.229103 0.916195 -0.143013
C103  C     C_3   0.454983 0.270487 0.915363 -0.143060
C104  C     C_3   0.452946 0.729127 0.915991 -0.142720
C105  C     C_3   0.000024 0.810940 0.999874 -0.084367
C106  C     C_3   0.000296 0.189039 0.000035 -0.084504
C107  C     C_3   0.500013 0.310942 0.999865 -0.084437
C108  C     C_3   0.500325 0.689047 0.000093 -0.084301
C109  C     C_3   0.057138 0.771253 0.038969 -0.213546
C110  C     C_3   0.055013 0.229087 0.030754 -0.212698
C111  C     C_3   0.556678 0.271229 0.037222 -0.213395
C112  C     C_3   0.555622 0.729075 0.032686 -0.212941
C113  C     C_3   0.044007 0.730381 0.083603 0.512754
C114  C     C_3   0.047934 0.270027 0.082553 0.520861
C115  C     C_3   0.544831 0.230356 0.083429 0.514074
C116  C     C_3   0.547185 0.770019 0.082928 0.518985
C117  C     C_3   0.987726 0.771157 0.046257 -0.237120
C118  C     C_3   0.994159 0.228858 0.053592 -0.236586
C119  C     C_3   0.489022 0.271164 0.047827 -0.237029
C120  C     C_3   0.492808 0.728873 0.052094 -0.236848
H1    H     H_    0.919610 0.788726 0.846235 0.144827
H2    H     H_    0.912577 0.210555 0.847922 0.147002
H3    H     H_    0.417971 0.288754 0.846410 0.145367
H4    H     H_    0.414139 0.710584 0.847484 0.146413
H5    H     H_    0.709413 0.492684 0.601720 0.123117
H6    H     H_    0.209409 0.995308 0.601572 0.123181
H7    H     H_    0.789053 0.589849 0.728506 0.131361
H8    H     H_    0.788671 0.403096 0.741082 0.127383
H9    H     H_    0.289081 0.091263 0.730762 0.130624
H10   H     H_    0.288636 0.904245 0.738670 0.128019
H11   H     H_    0.711705 0.597573 0.759443 0.145754
H12   H     H_    0.711242 0.410632 0.771998 0.142037
H13   H     H_    0.211714 0.096325 0.761849 0.145262
H14   H     H_    0.211232 0.909114 0.769763 0.142696
H15   H     H_    0.789923 0.507897 0.897949 0.150555
H16   H     H_    0.289917 0.005167 0.898104 0.150582
H17   H     H_    0.602663 0.469372 0.813882 0.125921
H18   H     H_    0.103125 0.971017 0.814342 0.125799
H19   H     H_    0.076724 0.075862 0.866617 0.138227
H20   H     H_    0.025548 0.895571 0.815193 0.126759
H21   H     H_    0.577932 0.574631 0.867827 0.138604
H22   H     H_    0.523894 0.395167 0.813533 0.126583
H23   H     H_    0.474269 0.605589 0.685219 0.148643
H24   H     H_    0.420223 0.426160 0.630306 0.138295
H25   H     H_    0.972570 0.105165 0.683496 0.148405
H26   H     H_    0.921387 0.924913 0.631483 0.137978
H27   H     H_    0.894948 0.029647 0.683310 0.151002
H28   H     H_    0.395456 0.531306 0.683836 0.150459
H29   H     H_    0.606454 0.481489 0.396927 0.127587
H30   H     H_    0.105575 0.976979 0.396026 0.128379
H31   H     H_    0.023352 0.711178 0.917422 0.177428
H32   H     H_    0.011947 0.288705 0.903926 0.178353
H33   H     H_    0.520891 0.211182 0.914437 0.177657
H34   H     H_    0.514558 0.788711 0.906878 0.178160
H35   H     H_    0.032614 0.897176 0.243280 0.149547
H36   H     H_    0.073218 0.080101 0.284585 0.156615
H37   H     H_    0.536982 0.398630 0.247701 0.150062
H38   H     H_    0.569697 0.583103 0.281016 0.156551
H39   H     H_    0.430310 0.417226 0.218992 0.143527
H40   H     H_    0.463016 0.601744 0.251931 0.152215
H41   H     H_    0.926852 0.920325 0.215524 0.142232
H42   H     H_    0.967449 0.103300 0.256372 0.153005
H43   H     H_    0.894443 0.023476 0.104759 0.149394
H44   H     H_    0.393493 0.518866 0.103824 0.149768
H45   H     H_    0.103621 0.789709 0.071132 0.179213
H46   H     H_    0.099711 0.210844 0.056323 0.176816
H47   H     H_    0.602823 0.289679 0.068006 0.178869
H48   H     H_    0.600763 0.710832 0.059754 0.177235
H49   H     H_    0.977753 0.789696 0.083870 0.153086
H50   H     H_    0.989355 0.210359 0.097202 0.154634
H51   H     H_    0.480139 0.289709 0.086751 0.153115
H52   H     H_    0.486858 0.710379 0.094426 0.154549
H53   H     H_    0.287864 0.510634 0.180407 0.140426
H54   H     H_    0.787844 0.006398 0.180042 0.140241
H55   H     H_    0.209697 0.411984 0.147250 0.168298
H56   H     H_    0.210313 0.598226 0.166858 0.170322
H57   H     H_    0.709702 0.909623 0.150782 0.168430
H58   H     H_    0.710280 0.096460 0.162978 0.169988
H59   H     H_    0.290001 0.400780 0.334482 0.165644
H60   H     H_    0.290758 0.587666 0.354388 0.160324
H61   H     H_    0.790066 0.902661 0.338444 0.164611
H62   H     H_    0.790707 0.090157 0.350811 0.161452
O1    O     O_R   0.093030 0.500000 0.145540 -0.600445
O2    O     O_R   0.593030 0.000000 0.145540 -0.600395
O3    O     O_R   0.052520 0.906980 0.052620 -0.614692
O4    O     O_R   0.052520 0.093020 0.052620 -0.614347
O5    O     O_R   0.552520 0.406980 0.052620 -0.614351
O6    O     O_R   0.552520 0.593020 0.052620 -0.614754
O7    O     O_R   0.947460 0.000000 0.040550 -0.632496
O8    O     O_R   0.447460 0.500000 0.040550 -0.632611
O9    O     O_R   0.052490 0.000000 0.145610 -0.612110
O10   O     O_R   0.552490 0.500000 0.145610 -0.611993
O11   O     O_R   0.499990 0.552490 0.407030 -0.625307
O12   O     O_R   0.499990 0.447510 0.407030 -0.622071
O13   O     O_R   0.999990 0.052490 0.407030 -0.625629
O14   O     O_R   0.999990 0.947510 0.407030 -0.621713
O15   O     O_R   0.406970 0.552510 0.407040 -0.623818
O16   O     O_R   0.406970 0.447490 0.407040 -0.627654
O17   O     O_R   0.906970 0.052510 0.407040 -0.624372
O18   O     O_R   0.906970 0.947490 0.407040 -0.627051
O19   O     O_R   0.500000 0.552540 0.593090 -0.629337
O20   O     O_R   0.500000 0.447460 0.593090 -0.626138
O21   O     O_R   1.000000 0.052540 0.593090 -0.629306
O22   O     O_R   1.000000 0.947460 0.593090 -0.626220
O23   O     O_R   0.593020 0.552520 0.593090 -0.625173
O24   O     O_R   0.593020 0.447480 0.593090 -0.624838
O25   O     O_R   0.093020 0.052520 0.593090 -0.625014
O26   O     O_R   0.093020 0.947480 0.593090 -0.625054
O27   O     O_R   0.093020 0.500000 0.040510 -0.635745
O28   O     O_R   0.593020 0.000000 0.040510 -0.635861
O29   O     O_R   0.999990 0.593020 0.052510 -0.582701
O30   O     O_R   0.999990 0.406980 0.052510 -0.590608
O31   O     O_R   0.499990 0.093020 0.052510 -0.584329
O32   O     O_R   0.499990 0.906980 0.052510 -0.588909
O33   O     O_R   0.999990 0.593020 0.947470 -0.636086
O34   O     O_R   0.999990 0.406980 0.947470 -0.634432
O35   O     O_R   0.499990 0.093020 0.947470 -0.635779
O36   O     O_R   0.499990 0.906980 0.947470 -0.634892
O37   O     O_R   0.906980 0.500000 0.959490 -0.639863
O38   O     O_R   0.406980 0.000000 0.959490 -0.639938
O39   O     O_R   0.906970 0.500000 0.854460 -0.628193
O40   O     O_R   0.406970 0.000000 0.854460 -0.628146
O41   O     O_R   0.947510 0.000000 0.854550 -0.631746
O42   O     O_R   0.447510 0.500000 0.854550 -0.631628
O43   O     O_R   0.052540 0.000000 0.959610 -0.627689
O44   O     O_R   0.552540 0.500000 0.959610 -0.627792
O45   O     O_R   0.947490 0.906970 0.947560 -0.627718
O46   O     O_R   0.947490 0.093030 0.947560 -0.629727
O47   O     O_R   0.447490 0.406970 0.947560 -0.627878
O48   O     O_R   0.447490 0.593030 0.947560 -0.629502
Zn1   Zn    Zn3+2 0.000000 0.500000 0.070130 1.036604
Zn2   Zn    Zn3+2 0.500000 0.000000 0.070130 1.036620
Zn3   Zn    Zn3+2 0.000000 0.500000 0.929870 0.950198
Zn4   Zn    Zn3+2 0.500000 0.000000 0.929870 0.950135
Zn5   Zn    Zn3+2 0.929870 0.000000 0.929930 0.940421
Zn6   Zn    Zn3+2 0.429870 0.500000 0.929930 0.940414
Zn7   Zn    Zn3+2 0.070130 0.000000 0.070230 0.985130
Zn8   Zn    Zn3+2 0.570130 0.500000 0.070230 0.985127
Zn9   Zn    Zn3+2 0.499990 0.570130 0.500050 0.950371
Zn10  Zn    Zn3+2 0.499990 0.429870 0.500050 0.953045
Zn11  Zn    Zn3+2 0.999990 0.070130 0.500050 0.950017
Zn12  Zn    Zn3+2 0.999990 0.929870 0.500050 0.953415
C121  C     C_3   0.209863 0.486891 0.337420 -0.329047
C122  C     C_3   0.265717 0.481346 0.438104 -0.909823
H63   H     H_    0.294032 0.439288 0.454918 0.257744
H64   H     H_    0.295926 0.523732 0.465387 0.256704
H65   H     H_    0.248608 0.476755 0.469861 0.264265
H66   H     H_    0.181642 0.528540 0.322336 0.242630
H67   H     H_    0.180060 0.444340 0.311830 0.261504
C123  C     C_3   0.709906 0.991933 0.337898 -0.329386
C124  C     C_3   0.765788 0.988520 0.438807 -0.909883
H68   H     H_    0.794399 0.946233 0.457596 0.257231
H69   H     H_    0.795707 0.030952 0.464134 0.257464
H70   H     H_    0.748699 0.985752 0.470727 0.263908
H71   H     H_    0.681436 0.033922 0.320853 0.245597
H72   H     H_    0.680356 0.949413 0.314285 0.257551
S1    S     S_3+6 0.103083 0.703570 0.195681 -0.000692
O49   O     O_2   0.072801 0.670655 0.219693 -0.301411
O50   O     O_2   0.145935 0.659060 0.205040 -0.356776
O51   O     O_3   0.144435 0.765488 0.263456 -0.563671
H73   H     H_    0.176505 0.747444 0.324047 0.379368
S2    S     S_3+6 0.112138 0.297731 0.193044 -0.009403
O52   O     O_2   0.152441 0.340057 0.194206 -0.368353
O53   O     O_2   0.087769 0.333318 0.224251 -0.311091
O54   O     O_3   0.154583 0.236158 0.260347 -0.561006
H74   H     H_    0.189748 0.254751 0.319842 0.378160
S3    S     S_3+6 0.605049 0.203421 0.195279 -0.002042
O55   O     O_2   0.575993 0.170120 0.220956 -0.302602
O56   O     O_2   0.647300 0.159216 0.202899 -0.359064
O57   O     O_3   0.646781 0.265299 0.262921 -0.563085
H75   H     H_    0.679558 0.247168 0.323344 0.379156
S4    S     S_3+6 0.610318 0.797654 0.193868 -0.007411
O58   O     O_2   0.651240 0.840497 0.196864 -0.366285
O59   O     O_2   0.584642 0.832666 0.223535 -0.308327
O60   O     O_3   0.652531 0.736070 0.261313 -0.561864
H76   H     H_    0.687051 0.754613 0.321110 0.378394
C125  C     C_3   0.880979 0.702862 0.918667 -0.405868
C126  C     C_3   0.834285 0.754987 0.885844 -0.844903
H77   H     H_    0.852030 0.785206 0.942320 0.260790
H78   H     H_    0.826359 0.784140 0.835457 0.259983
H79   H     H_    0.788839 0.734076 0.854709 0.243627
H80   H     H_    0.862093 0.672616 0.861603 0.192653
H81   H     H_    0.887545 0.673623 0.967869 0.218125
C127  C     C_3   0.885580 0.295980 0.935621 -0.400442
C128  C     C_3   0.840915 0.243300 0.909369 -0.848982
H82   H     H_    0.828704 0.214224 0.855562 0.259843
H83   H     H_    0.862793 0.213116 0.967724 0.259794
H84   H     H_    0.797158 0.263661 0.884787 0.244750
H85   H     H_    0.896404 0.325137 0.988361 0.220809
H86   H     H_    0.862664 0.326130 0.876847 0.190745
C129  C     C_3   0.381797 0.202973 0.922170 -0.404906
C130  C     C_3   0.335475 0.255157 0.890706 -0.845519
H87   H     H_    0.354110 0.285411 0.947630 0.260703
H88   H     H_    0.326619 0.284264 0.839536 0.259920
H89   H     H_    0.290352 0.234306 0.860941 0.243815
H90   H     H_    0.362045 0.172705 0.864694 0.192183
H91   H     H_    0.389284 0.173777 0.972175 0.218744
C131  C     C_3   0.384509 0.796095 0.931836 -0.401640
C132  C     C_3   0.339373 0.743479 0.904135 -0.848112
H92   H     H_    0.328117 0.714350 0.851059 0.259872
H93   H     H_    0.360366 0.713335 0.962152 0.259960
H94   H     H_    0.295187 0.763905 0.878052 0.244522
H95   H     H_    0.394384 0.825303 0.983819 0.220241
H96   H     H_    0.362454 0.826217 0.873364 0.191035

loop_
_geom_bond_atom_site_label_1
_geom_bond_atom_site_label_2
_ccdc_geom_bond_type
O9    Zn7   S    
O18   Zn12  S    
C18   C21   S    
O43   Zn7   S    
C108  C120  S    
C50   O46   A    
C129  C130  S    
O33   Zn3   S    
C103  H3    S    
C53   C99   S    
C66   C79   S    
C5    C119  S    
C127  C128  S    
C91   H33   S    
O25   Zn11  S    
C81   C95   S    
C86   C88   S    
C28   C40   S    
C83   C93   S    
C87   C94   S    
C122  H63   S    
C93   H39   S    
O11   Zn9   S    
C11   C15   S    
C18   C58   S    
C40   C43   S    
S4    O58   D    
C4    C102  S    
O48   Zn6   S    
C6    C104  S    
C77   H27   S    
C81   C86   S    
C78   H28   S    
C89   C101  S    
C88   C95   S    
C127  H86   S    
C106  C118  S    
C101  C105  S    
O34   Zn3   S    
C7    C33   S    
C42   C44   S    
C5    C129  S    
C37   C63   S    
C44   C46   S    
O19   Zn9   S    
C38   C64   S    
C77   C79   S    
C15   H53   S    
C27   C31   S    
C84   C100  S    
C90   H32   S    
C71   C73   S    
C81   C99   S    
C31   C37   S    
C19   C23   S    
C56   O13   A    
C48   O44   A    
O10   Zn8   S    
C83   H37   S    
C66   C76   S    
C12   C20   S    
C13   C21   S    
C2    C26   S    
C14   C26   S    
O36   Zn4   S    
C34   O30   A    
C46   C62   S    
C70   H18   S    
C83   C100  S    
C111  H47   S    
C131  C132  S    
C23   C121  S    
C67   H21   S    
C19   H59   S    
C67   C69   S    
C47   O41   A    
O40   Zn4   S    
C57   O15   A    
C61   O37   A    
C91   C103  S    
C39   C43   S    
C95   C97   S    
C122  H65   S    
C42   H14   S    
O47   Zn6   S    
C130  H88   S    
C114  S2    S    
C128  H83   S    
C48   C80   S    
O15   Zn9   S    
C66   C70   S    
C39   H11   S    
S4    O60   S    
C96   H42   S    
C92   C104  S    
C65   H19   S    
C66   H20   S    
C51   C107  S    
C121  H66   S    
C21   C24   S    
C60   C72   S    
C103  C107  S    
O12   Zn10  S    
C119  H51   S    
C125  H80   S    
C5    C103  S    
C65   C79   S    
C56   C88   S    
C41   H13   S    
C1    O1    A    
C54   O10   A    
C24   C26   S    
C84   C94   S    
C37   C40   S    
C95   H41   S    
O20   Zn10  S    
S3    O57   S    
C78   C80   S    
C3    C125  S    
C11   C25   S    
C68   C74   S    
C65   C70   S    
S1    O49   D    
C32   H6    S    
C90   C102  S    
C36   O32   A    
C60   O22   A    
O3    Zn7   S    
C63   O24   A    
C68   H22   S    
C110  C114  S    
C12   H56   S    
C3    C101  S    
C125  C126  S    
C72   C75   S    
C35   O35   A    
C123  H72   S    
C64   O25   A    
C58   O17   A    
C70   C72   S    
C1    O27   A    
C38   C41   S    
C84   H38   S    
C124  H70   S    
C48   O42   A    
C116  C120  S    
C5    C9    S    
O4    Zn7   S    
C43   C45   S    
C20   C23   S    
C8    C34   S    
C75   C77   S    
C14   H58   S    
O16   Zn10  S    
C113  C117  S    
C115  C119  S    
C74   C78   S    
C13   C26   S    
C31   H5    S    
C50   O4    A    
O1    Zn1   S    
C112  C116  S    
O5    Zn8   S    
C10   C116  S    
C50   C106  S    
C16   H54   S    
C105  C109  S    
C94   H40   S    
C54   O8    A    
C29   C41   S    
C18   C22   S    
C107  C111  S    
C30   C46   S    
O37   Zn1   S    
O51   H73   S    
C92   H34   S    
S3    O55   D    
S2    O52   D    
C104  H4    S    
C8    C114  S    
C81   H35   S    
S1    O51   S    
C14   C22   S    
C24   C123  S    
C22   H62   S    
C34   O34   A    
C59   O20   A    
C87   C93   S    
C4    C127  S    
C122  H64   S    
C14   C16   S    
C131  H95   S    
C62   O40   A    
C55   C87   S    
O7    Zn5   S    
C132  H94   S    
C76   H26   S    
C117  H49   S    
C55   O12   A    
C49   O3    A    
S4    O59   D    
C13   C16   S    
C126  H77   S    
C52   O6    A    
C53   O7    A    
C44   H16   S    
C88   C96   S    
C121  H67   S    
C51   O47   A    
C82   C99   S    
O60   H76   S    
O32   Zn2   S    
S2    O54   S    
C124  H68   S    
C11   C19   S    
O29   Zn1   S    
O26   Zn12  S    
C29   C32   S    
C3    C7    S    
C94   C98   S    
C121  C122  S    
C17   C20   S    
O46   Zn5   S    
C3    C117  S    
C56   O14   A    
C27   H7    S    
C68   C69   S    
C97   H43   S    
C126  H79   S    
C67   C73   S    
C49   O45   A    
C72   C76   S    
O39   Zn3   S    
C27   C45   S    
O13   Zn11  S    
C10   C92   S    
C105  C117  S    
C113  S1    S    
C107  C119  S    
C115  S3    S    
C33   O33   A    
C9    C115  S    
C84   C85   S    
C36   O36   A    
O30   Zn1   S    
C92   C112  S    
C49   C105  S    
C123  C124  S    
C82   C86   S    
C101  H1    S    
C108  C112  S    
O14   Zn12  S    
C62   O38   A    
C132  H92   S    
C128  H82   S    
O22   Zn12  S    
C47   O43   A    
C12   C15   S    
C2    O2    A    
C53   O9    A    
C109  H45   S    
C83   C85   S    
C127  H85   S    
C98   C100  S    
C41   C44   S    
C22   C24   S    
O8    Zn6   S    
C104  C108  S    
O17   Zn11  S    
C73   H23   S    
C15   C17   S    
C74   H24   S    
C28   C31   S    
C67   C80   S    
O35   Zn4   S    
C6    C10   S    
C71   C74   S    
C11   H55   S    
C29   C46   S    
C86   H30   S    
C129  H90   S    
O42   Zn6   S    
C37   C39   S    
C30   H10   S    
S3    O56   D    
C52   O48   A    
C13   H57   S    
C45   C61   S    
O28   Zn4   S    
C61   O39   A    
C51   O5    A    
C89   H31   S    
C63   O23   A    
C9    C35   S    
O57   H75   S    
C30   C42   S    
C10   C36   S    
C102  H2    S    
C28   H8    S    
C17   C57   S    
C4    C118  S    
C7    C89   S    
C68   C80   S    
O44   Zn8   S    
C57   O16   A    
C33   O29   A    
C47   C79   S    
C4    C8    S    
C9    C91   S    
C20   H60   S    
C75   H25   S    
C21   H61   S    
C64   O26   A    
C58   O18   A    
C130  H87   S    
C38   C42   S    
C128  H84   S    
C124  H69   S    
C118  H50   S    
C112  H48   S    
C89   C109  S    
O24   Zn10  S    
C69   C71   S    
C91   C111  S    
O23   Zn9   S    
C27   C39   S    
C73   C78   S    
C32   C38   S    
O54   H74   S    
C109  C113  S    
C82   H36   S    
C125  H81   S    
C1    C25   S    
C54   C100  S    
C6    C120  S    
C97   C99   S    
O27   Zn3   S    
C85   C87   S    
C69   H17   S    
C29   H9    S    
C28   C45   S    
C2    O28   A    
C82   C96   S    
O38   Zn2   S    
C76   C77   S    
O2    Zn2   S    
C6    C131  S    
C120  H52   S    
S2    O53   D    
C116  S4    S    
S1    O50   D    
C35   O31   A    
C59   O19   A    
C60   O21   A    
C96   C97   S    
C131  H96   S    
C43   H15   S    
C132  H93   S    
C114  C118  S    
O31   Zn2   S    
O41   Zn5   S    
C55   O11   A    
C126  H78   S    
C8    C90   S    
C90   C110  S    
C106  C110  S    
C123  H71   S    
C130  H89   S    
C98   H44   S    
O21   Zn11  S    
O45   Zn5   S    
C65   C75   S    
C12   C25   S    
C7    C113  S    
C30   C32   S    
C110  H46   S    
C17   C19   S    
C102  C106  S    
C23   C25   S    
C40   H12   S    
C129  H91   S    
C85   H29   S    
O6    Zn8   S    
C52   C108  S    
C16   C18   S    
C111  C115  S    
C93   C98   S    
C59   C71   S    
