data_mof_unit_32187.cif
_audit_creation_date              2012-12-10T17:42:13-0500
_audit_creation_method            fapswitch 2.2
_symmetry_space_group_name_H-M    P1
_symmetry_Int_Tables_number       1
_space_group_crystal_system       triclinic
_cell_length_a                    15.103192
_cell_length_b                    13.898003
_cell_length_c                    10.817092
_cell_angle_alpha                 88.80113
_cell_angle_beta                  84.282277
_cell_angle_gamma                 89.841727
_cell_volume                      2258.76158687

loop_
_atom_site_label
_atom_site_type_symbol
_atom_type_description
_atom_site_fract_x
_atom_site_fract_y
_atom_site_fract_z
_atom_type_partial_charge
C1    C     C_R   0.328553 0.500549 0.498491 0.882254
C2    C     C_3   0.596595 0.500217 0.913613 0.824545
C3    C     C_R   0.817521 0.580175 0.446775 -0.238841
C4    C     C_R   0.768740 0.498080 0.487677 -0.084509
C5    C     C_R   0.813215 0.412795 0.515354 -0.198655
C6    C     C_R   0.906132 0.410468 0.509697 0.028593
C7    C     C_R   0.954739 0.494276 0.469374 0.074246
C8    C     C_R   0.910147 0.577973 0.433822 0.114639
C9    C     C_R   0.951987 0.327679 0.545882 0.226195
C10   C     C_R   0.043143 0.332818 0.555198 -0.187763
C11   C     C_R   0.090472 0.417731 0.522331 -0.095439
C12   C     C_R   0.495037 0.500609 0.260538 0.834417
C13   C     C_R   0.047808 0.495781 0.469241 -0.043535
C14   C     C_R   0.097210 0.577480 0.423558 0.051482
C15   C     C_R   0.051458 0.657967 0.380427 -0.113772
C16   C     C_R   0.958809 0.658894 0.388295 -0.213591
C17   C     C_R   0.178304 0.429162 0.551268 0.409237
C18   C     C_R   0.231514 0.502200 0.490216 -0.212699
C19   C     C_R   0.190655 0.576570 0.423665 0.158036
C20   C     C_R   0.442897 0.792949 0.583986 0.423591
C21   C     C_R   0.438900 0.204302 0.577141 0.417799
C22   C     C_R   0.557664 0.794454 0.415698 0.455621
C23   C     C_R   0.562662 0.207924 0.422438 0.465015
C24   C     C_R   0.557536 0.897580 0.410913 -0.163357
C25   C     C_R   0.563873 0.104663 0.419105 -0.162500
C26   C     C_R   0.671350 0.499739 0.497299 0.865106
C27   C     C_R   0.500543 0.948125 0.498494 -0.066195
C28   C     C_R   0.499950 0.051727 0.497194 -0.070891
C29   C     C_R   0.444623 0.895703 0.588559 -0.130900
C30   C     C_R   0.435187 0.101738 0.574374 -0.128642
C31   C     C_R   0.613300 0.952652 0.322903 0.353272
C32   C     C_R   0.625469 0.051666 0.339048 0.358010
C33   C     C_R   0.372514 0.046340 0.652017 0.287704
C34   C     C_R   0.388673 0.949026 0.675206 0.269907
C35   C     C_R   0.498016 0.499322 0.739928 0.883676
C36   C     C_3   0.440160 0.588287 0.073181 0.111724
C37   C     C_3   0.446576 0.407971 0.077568 0.088660
C38   C     C_3   0.444949 0.587183 0.930522 -0.426475
C39   C     C_3   0.450660 0.408110 0.935215 -0.441025
C40   C     C_3   0.591196 0.505951 0.060349 -0.464204
C41   C     C_3   0.494003 0.500787 0.121755 -0.090338
C42   C     C_3   0.498341 0.498779 0.877833 -0.054758
Cu1   Cu    Cu3+1 0.499990 0.597420 0.500010 1.070950
Cu2   Cu    Cu3+1 0.499990 0.402580 0.500010 1.067963
H1    H     H_    0.077166 0.270291 0.588967 0.224841
H2    H     H_    0.085971 0.722493 0.345536 0.204913
H3    H     H_    0.925141 0.723219 0.359125 0.166668
H4    H     H_    0.369344 0.580292 0.111376 0.154361
H5    H     H_    0.375403 0.410608 0.115875 0.130311
H6    H     H_    0.376101 0.585456 0.902310 0.183774
H7    H     H_    0.382243 0.405725 0.908138 0.183932
H8    H     H_    0.475924 0.654551 0.889487 0.278548
H9    H     H_    0.485101 0.342779 0.897142 0.278664
H10   H     H_    0.620756 0.575186 0.085426 0.217147
H11   H     H_    0.629699 0.450482 0.106276 0.169602
H12   H     H_    0.783823 0.645962 0.424785 0.196196
H13   H     H_    0.774735 0.349594 0.545701 0.213995
N1    N     N_R   0.499930 0.743810 0.499950 -0.238701
N2    N     N_R   0.499930 0.256190 0.499950 -0.248049
O1    O     O_R   0.370250 0.582280 0.500040 -0.521858
O2    O     O_R   0.370250 0.417720 0.500040 -0.536501
O3    O     O_R   0.499970 0.582270 0.317700 -0.509145
O4    O     O_R   0.499970 0.417730 0.317700 -0.527979
O5    O     O_R   0.629730 0.582260 0.499980 -0.568346
O6    O     O_R   0.629730 0.417740 0.499980 -0.556752
O7    O     O_R   0.500000 0.582270 0.682320 -0.562682
O8    O     O_R   0.500000 0.417730 0.682320 -0.548792
Br1   Br    Br    0.473243 0.717355 0.119734 -0.417595
Br2   Br    Br    0.485861 0.280432 0.129218 -0.462403
O9    O     O_3   0.208548 0.379572 0.651672 -0.528960
C43   C     C_3   0.151962 0.398709 0.762101 0.120638
H14   H     H_    0.108280 0.335570 0.786519 0.176569
H15   H     H_    0.108722 0.463608 0.754713 0.122419
C44   C     C_3   0.206592 0.415901 0.869711 -0.743113
H16   H     H_    0.255507 0.474124 0.843808 0.238330
H17   H     H_    0.162287 0.438415 0.952208 0.202225
H18   H     H_    0.240588 0.348488 0.894668 0.280868
Br3   Br    Br    0.260429 0.676002 0.331697 -0.441752
Br4   Br    Br    0.349832 0.722341 0.681158 -0.412954
Br5   Br    Br    0.372795 0.269981 0.708881 -0.416441
Br6   Br    Br    0.643356 0.723811 0.308651 -0.471424
Br7   Br    Br    0.649458 0.282248 0.316811 -0.453519
O10   O     O_3   0.660296 0.911148 0.221414 -0.549370
C45   C     C_3   0.618280 0.935127 0.113725 0.172182
H19   H     H_    0.624882 0.013310 0.090421 0.182660
H20   H     H_    0.546306 0.915969 0.125947 0.192189
C46   C     C_3   0.662456 0.879779 0.004570 -0.702586
H21   H     H_    0.657700 0.801242 0.024946 0.288363
H22   H     H_    0.628829 0.896481 0.919912 0.210849
H23   H     H_    0.733696 0.900285 0.987122 0.239643
O11   O     O_3   0.695826 0.095139 0.267806 -0.544874
C47   C     C_3   0.774686 0.076728 0.324632 0.118192
H24   H     H_    0.789885 0.998296 0.327305 0.167869
H25   H     H_    0.768944 0.104388 0.421057 0.178426
C48   C     C_3   0.852280 0.127504 0.250038 -0.663656
H26   H     H_    0.841117 0.206505 0.248934 0.266305
H27   H     H_    0.914780 0.112026 0.292813 0.223902
H28   H     H_    0.859356 0.101713 0.153054 0.243575
Br8   Br    Br    0.251678 0.087045 0.700861 -0.341116
Br9   Br    Br    0.354202 0.906514 0.844529 -0.344912
O12   O     O_3   0.635577 0.586361 0.858051 -0.597879
C49   C     C_3   0.729585 0.585645 0.844958 0.067537
H29   H     H_    0.756295 0.525767 0.785770 0.181994
H30   H     H_    0.755782 0.581547 0.937380 0.140165
C50   C     C_3   0.762990 0.678148 0.778848 -0.753940
H31   H     H_    0.740232 0.741269 0.834342 0.251607
H32   H     H_    0.836865 0.677883 0.765886 0.209215
H33   H     H_    0.737303 0.684243 0.686266 0.257167
O13   O     O_3   0.638799 0.416395 0.857652 -0.617021
C51   C     C_3   0.699818 0.366387 0.926674 -0.010401
H34   H     H_    0.663177 0.318669 0.997638 0.238198
H35   H     H_    0.744548 0.415427 0.971152 0.127969
C52   C     C_3   0.758157 0.302821 0.839968 -0.691130
H36   H     H_    0.800634 0.348430 0.772923 0.237184
H37   H     H_    0.801760 0.257637 0.894342 0.228827
H38   H     H_    0.716310 0.255226 0.788540 0.274180
Br10  Br    Br    0.894547 0.206544 0.587901 -0.592906

loop_
_geom_bond_atom_site_label_1
_geom_bond_atom_site_label_2
_ccdc_geom_bond_type
C39   H7    S    
C46   H21   S    
C2    O13   S    
O12   C49   S    
C23   Br7   S    
C37   Br2   S    
C27   C29   A    
C9    Br10  S    
C48   H26   S    
C45   C46   S    
C6    C9    A    
C36   C41   S    
C48   H28   S    
C31   O10   S    
C7    C8    A    
C25   C28   A    
C23   N2    A    
C50   H32   S    
C1    C18   S    
C44   H17   S    
C45   H20   S    
C38   C42   S    
C5    C6    A    
C32   O11   S    
C38   H8    S    
Cu2   N2    S    
C15   C16   A    
C12   O3    A    
C49   C50   S    
C18   C19   A    
C35   C42   S    
C26   O5    A    
C51   H34   S    
Cu1   N1    S    
C31   C32   A    
C44   H18   S    
C34   Br9   S    
C24   C27   A    
O9    C43   S    
C9    C10   A    
C20   Br4   S    
C52   H38   S    
C25   C32   A    
C17   O9    S    
C8    C16   A    
C13   C14   A    
Cu2   O6    S    
C16   H3    S    
Cu1   O5    S    
C33   C34   A    
C39   C42   S    
C20   C29   A    
Cu2   O4    S    
C50   H33   S    
C44   H16   S    
C22   Br6   S    
C45   H19   S    
C3    C8    A    
C1    O1    A    
O11   C47   S    
C43   H15   S    
C12   O4    A    
C35   O7    A    
C29   C34   A    
C47   C48   S    
C33   Br8   S    
C19   Br3   S    
Cu1   Cu2   S    
C12   C41   S    
C37   H5    S    
C3    H12   S    
O10   C45   S    
C35   O8    A    
C40   H11   S    
C10   H1    S    
C47   H25   S    
C17   C18   A    
C49   H30   S    
C51   C52   S    
Cu1   O1    S    
C40   C41   S    
C40   H10   S    
C46   H22   S    
C22   C24   A    
C20   N1    A    
C3    C4    A    
C52   H36   S    
C50   H31   S    
C48   H27   S    
C11   C17   A    
C30   C33   A    
C26   O6    A    
C14   C19   A    
C4    C5    A    
C1    O2    A    
C22   N1    A    
C43   C44   S    
C4    C26   S    
C36   Br1   S    
C21   N2    A    
C6    C7    A    
C38   H6    S    
Cu2   O2    S    
C21   C30   A    
C2    O12   S    
C5    H13   S    
C28   C30   A    
C24   C31   A    
C43   H14   S    
C37   C39   S    
O13   C51   S    
C11   C13   A    
C39   H9    S    
C2    C42   S    
Cu1   O7    S    
C21   Br5   S    
C36   C38   S    
C47   H24   S    
C36   H4    S    
C23   C25   A    
C37   C41   S    
C49   H29   S    
C51   H35   S    
C10   C11   A    
C2    C40   S    
C7    C13   A    
C46   H23   S    
C27   C28   A    
C14   C15   A    
Cu2   O8    S    
C15   H2    S    
Cu1   O3    S    
C52   H37   S    
