data_mof_unit_44841.cif
_audit_creation_date              2012-12-10T17:34:27-0500
_audit_creation_method            fapswitch 2.2
_symmetry_space_group_name_H-M    P1
_symmetry_Int_Tables_number       1
_space_group_crystal_system       triclinic
_cell_length_a                    12.461978
_cell_length_b                    13.043235
_cell_length_c                    14.307422
_cell_angle_alpha                 76.616704
_cell_angle_beta                  100.404258
_cell_angle_gamma                 116.992013
_cell_volume                      2008.32136908

loop_
_atom_site_label
_atom_site_type_symbol
_atom_type_description
_atom_site_fract_x
_atom_site_fract_y
_atom_site_fract_z
_atom_type_partial_charge
C1    C     C_R   0.855333 0.285776 0.508687 0.884342
C2    C     C_1   0.999893 0.500595 0.228961 -0.163412
C3    C     C_R   0.295240 0.017871 0.347099 -0.162800
C4    C     C_R   0.228280 0.839980 0.465073 -0.270171
C5    C     C_R   0.808555 0.080632 0.581168 -0.209275
C6    C     C_R   0.726959 0.964230 0.601954 -0.165704
C7    C     C_R   0.607249 0.927733 0.563499 -0.051449
C8    C     C_R   0.567362 0.006968 0.500375 0.037743
C9    C     C_R   0.656286 0.119883 0.465583 0.032303
C10   C     C_R   0.443449 0.975711 0.466511 0.038630
C11   C     C_R   0.414965 0.047979 0.385478 -0.048204
C12   C     C_R   0.000090 0.499720 0.668561 0.818577
C13   C     C_R   0.506110 0.149817 0.342144 -0.278424
C14   C     C_R   0.626560 0.186515 0.380649 0.412863
C15   C     C_R   0.346628 0.877625 0.512021 0.340488
C16   C     C_R   0.201814 0.914929 0.385504 0.354141
C17   C     C_R   0.773843 0.160265 0.515076 -0.083000
C18   C     C_R   0.349315 0.347920 0.669195 -0.278845
C19   C     C_R   0.766170 0.651711 0.376766 -0.109038
C20   C     C_R   0.688031 0.705258 0.361922 0.244799
C21   C     C_R   0.590864 0.658868 0.420038 0.459677
C22   C     C_R   0.564220 0.550703 0.483636 -0.191115
C23   C     C_R   0.144854 0.714733 0.485875 0.785803
C24   C     C_R   0.655851 0.509267 0.506232 0.140061
C25   C     C_R   0.453923 0.487144 0.531342 -0.000584
C26   C     C_R   0.450670 0.406017 0.616334 0.054612
C27   C     C_R   0.545857 0.377536 0.646302 -0.329499
C28   C     C_R   0.642187 0.418752 0.589970 0.458434
C29   C     C_R   0.343423 0.494675 0.495653 0.479067
C30   C     C_R   0.248133 0.366938 0.635625 0.031920
C31   C     C_R   0.000232 0.500703 0.331409 0.838024
C32   C     C_1   0.000386 0.499626 0.771066 -0.187909
C33   C     C_1   0.000363 0.499676 0.856598 -0.005903
C34   C     C_1   0.000224 0.499855 0.957315 0.010628
C35   C     C_1   0.000079 0.500072 0.042797 0.010870
C36   C     C_1   0.999921 0.500366 0.143478 -0.004886
Cu1   Cu    Cu3+1 0.098280 0.475420 0.520190 0.944750
Cu2   Cu    Cu3+1 0.901720 0.524580 0.479810 0.992179
H1    H     H_    0.540638 0.314110 0.711704 0.148367
H2    H     H_    0.347950 0.287265 0.735658 0.150656
H3    H     H_    0.843280 0.688491 0.334871 0.169974
H4    H     H_    0.483356 0.201437 0.277654 0.138566
H5    H     H_    0.273924 0.073743 0.285277 0.168759
H6    H     H_    0.898506 0.108819 0.618171 0.153701
H7    H     H_    0.549030 0.835759 0.580464 0.219464
H8    H     H_    0.755588 0.902537 0.650705 0.150716
H9    H     H_    0.170156 0.324569 0.677035 0.139520
N1    N     N_R   0.246290 0.438200 0.550780 -0.216311
N2    N     N_R   0.754310 0.561180 0.449760 -0.193191
O1    O     O_R   0.972510 0.318130 0.525390 -0.598436
O2    O     O_R   0.806530 0.359650 0.491290 -0.472115
O3    O     O_R   0.083010 0.479240 0.641000 -0.575497
O4    O     O_R   0.917030 0.520750 0.606900 -0.500292
O5    O     O_R   0.193470 0.640350 0.508710 -0.558066
O6    O     O_R   0.027490 0.681870 0.474610 -0.582100
O7    O     O_R   0.082970 0.479250 0.393100 -0.581874
O8    O     O_R   0.916990 0.520760 0.359000 -0.540228
O9    O     O_3   0.087249 0.888638 0.340730 -0.731283
H10   H     H_    0.031802 0.860609 0.392020 0.337033
N3    N     N_2   0.329018 0.548578 0.398959 -0.382211
H11   H     H_    0.286884 0.602830 0.387067 0.298662
C37   C     C_3   0.300558 0.476335 0.326846 -0.668854
H12   H     H_    0.293992 0.527243 0.253970 0.232068
H13   H     H_    0.213128 0.398086 0.338367 0.237848
H14   H     H_    0.372926 0.447844 0.330174 0.217107
O10   O     O_3   0.530240 0.723785 0.424588 -0.736707
H15   H     H_    0.562760 0.799902 0.380897 0.370812
O11   O     O_3   0.707459 0.805014 0.293983 -0.732692
H16   H     H_    0.779563 0.826040 0.260453 0.337610
O12   O     O_3   0.720560 0.368408 0.619463 -0.699014
H17   H     H_    0.694171 0.304109 0.675359 0.297694
O13   O     O_3   0.367088 0.823935 0.604386 -0.739754
H18   H     H_    0.289536 0.777847 0.634385 0.324834
O14   O     O_3   0.717174 0.280742 0.331227 -0.736654
H19   H     H_    0.681045 0.316877 0.273584 0.322194

loop_
_geom_bond_atom_site_label_1
_geom_bond_atom_site_label_2
_ccdc_geom_bond_type
C21   O10   S    
C19   C20   A    
C18   C26   A    
C7    C8    A    
Cu2   N2    S    
C15   O13   S    
C3    H5    S    
C26   C27   A    
Cu1   Cu2   S    
C7    H7    S    
C30   N1    A    
C10   C15   A    
C5    C6    A    
C5    C17   A    
N3    C37   S    
C34   C35   T    
C18   H2    S    
C37   H13   S    
Cu1   O7    S    
Cu2   O6    S    
C35   C36   S    
C27   H1    S    
O11   H16   S    
C22   C25   A    
O12   H17   S    
C18   C30   A    
C31   O7    A    
C1    O1    A    
C12   O4    A    
O10   H15   S    
C13   C14   A    
C12   C32   S    
C13   H4    S    
C12   O3    A    
C25   C29   A    
O14   H19   S    
C29   N1    A    
C30   H9    S    
C4    C23   S    
C8    C9    A    
Cu2   O2    S    
O9    H10   S    
N3    H11   S    
C4    C16   A    
C9    C14   A    
C37   H12   S    
Cu2   O8    S    
C19   N2    A    
C29   N3    S    
C33   C34   S    
C16   O9    S    
Cu1   N1    S    
C1    O2    A    
Cu1   O5    S    
C9    C17   A    
C5    H6    S    
C22   C24   A    
C14   O14   S    
C23   O5    A    
C2    C36   T    
C24   N2    A    
Cu1   O3    S    
C6    H8    S    
C37   H14   S    
C20   O11   S    
C28   O12   S    
C24   C28   A    
O13   H18   S    
C23   O6    A    
C6    C7    A    
C1    C17   S    
C32   C33   T    
C31   O8    A    
C4    C15   A    
C25   C26   A    
Cu1   O1    S    
C11   C13   A    
Cu2   O4    S    
C3    C11   A    
C10   C11   A    
C20   C21   A    
C8    C10   A    
C27   C28   A    
C2    C31   S    
C21   C22   A    
C3    C16   A    
C19   H3    S    
