data_mof_unit_45452.cif
_audit_creation_date              2012-12-10T19:42:33-0500
_audit_creation_method            fapswitch 2.2
_symmetry_space_group_name_H-M    P1
_symmetry_Int_Tables_number       1
_space_group_crystal_system       triclinic
_cell_length_a                    10.901431
_cell_length_b                    10.917645
_cell_length_c                    9.84007
_cell_angle_alpha                 98.49388
_cell_angle_beta                  99.303338
_cell_angle_gamma                 92.776704
_cell_volume                      1139.92118568

loop_
_atom_site_label
_atom_site_type_symbol
_atom_type_description
_atom_site_fract_x
_atom_site_fract_y
_atom_site_fract_z
_atom_type_partial_charge
C1    C     C_R   0.502914 0.262236 0.499638 0.791587
C2    C     C_R   0.497953 0.737927 0.500431 0.789797
C3    C     C_R   0.872311 0.499280 0.504617 -0.087193
C4    C     C_R   0.127500 0.498655 0.495464 -0.087739
C5    C     C_R   0.960543 0.534648 0.629065 0.001395
C6    C     C_R   0.039218 0.462350 0.371174 0.001578
C7    C     C_R   0.328911 0.105431 0.017169 -0.175283
C8    C     C_R   0.668139 0.889641 0.983142 -0.176990
C9    C     C_R   0.344508 0.067328 0.147759 -0.105539
C10   C     C_R   0.655155 0.930655 0.854091 -0.096104
C11   C     C_R   0.462873 0.079609 0.231090 0.099920
C12   C     C_R   0.537796 0.920475 0.768903 0.094625
C13   C     C_R   0.565822 0.128144 0.181617 -0.104348
C14   C     C_R   0.433519 0.870428 0.814560 -0.085168
C15   C     C_R   0.550039 0.167831 0.050897 0.243133
C16   C     C_R   0.446899 0.825151 0.941559 0.248980
C17   C     C_R   0.430624 0.156967 0.969715 -0.162518
C18   C     C_R   0.565138 0.835669 0.026174 -0.182731
C19   C     C_R   0.472967 0.916232 0.376430 -0.253673
C20   C     C_R   0.530959 0.084431 0.624109 -0.256109
C21   C     C_R   0.496810 0.872376 0.503310 -0.094860
C22   C     C_R   0.506021 0.128127 0.497041 -0.097476
C23   C     C_R   0.261886 0.498925 0.498796 0.789093
C24   C     C_R   0.738054 0.500368 0.501214 0.789384
C25   C     C_R   0.523600 0.958118 0.629502 0.011391
C26   C     C_R   0.479634 0.042422 0.370895 0.015795
C27   C     C_2   0.511019 0.509800 0.079098 -0.119885
C28   C     C_2   0.487159 0.492156 0.920964 -0.114396
C29   C     C_R   0.147629 0.463776 0.024089 -0.133544
C30   C     C_R   0.852147 0.527831 0.975418 -0.133401
C31   C     C_R   0.123736 0.503984 0.158228 -0.042240
C32   C     C_R   0.876228 0.489557 0.840901 -0.044812
C33   C     C_R   0.071269 0.419812 0.231860 0.123535
C34   C     C_R   0.928357 0.575256 0.768773 0.117711
C35   C     C_R   0.038219 0.296575 0.166817 -0.172383
C36   C     C_R   0.960376 0.698184 0.835387 -0.156887
C37   C     C_R   0.059598 0.257625 0.031471 -0.144163
C38   C     C_R   0.938283 0.735360 0.970816 -0.138673
C39   C     C_R   0.115756 0.340709 0.960739 -0.158359
C40   C     C_R   0.882859 0.650672 0.040247 -0.163698
C41   C     C_R   0.913204 0.463011 0.378279 -0.257989
C42   C     C_R   0.086517 0.534217 0.621895 -0.253437
Cu1   Cu    Cu3+1 0.521120 0.521140 0.639640 0.942218
Cu2   Cu    Cu3+1 0.478880 0.478860 0.360360 0.940895
H1    H     H_    0.133087 0.310287 0.856231 0.123713
H2    H     H_    0.865266 0.679671 0.144934 0.125630
H3    H     H_    0.657526 0.135731 0.245438 0.098107
H4    H     H_    0.342584 0.862829 0.749041 0.107872
H5    H     H_    0.449817 0.851787 0.280375 0.158739
H6    H     H_    0.554434 0.149102 0.720380 0.183674
H7    H     H_    0.412502 0.425387 0.864916 0.161984
H8    H     H_    0.584770 0.577464 0.135244 0.162333
H9    H     H_    0.624221 0.614152 0.905070 0.223319
H10   H     H_    0.377792 0.383558 0.094808 0.221948
H11   H     H_    0.189209 0.528348 0.968455 0.122206
H12   H     H_    0.811555 0.461932 0.030367 0.121715
H13   H     H_    0.146077 0.600381 0.204799 0.119064
H14   H     H_    0.854523 0.393429 0.792971 0.121124
H15   H     H_    0.994470 0.231242 0.220379 0.117057
H16   H     H_    0.003697 0.764697 0.782910 0.123178
H17   H     H_    0.032395 0.162969 0.981437 0.117858
H18   H     H_    0.964504 0.829854 0.022004 0.118344
H19   H     H_    0.846376 0.434666 0.283046 0.154504
H20   H     H_    0.153211 0.561934 0.717209 0.150824
H21   H     H_    0.416019 0.187756 0.869311 0.124745
H22   H     H_    0.578507 0.801359 0.124554 0.116826
H23   H     H_    0.238146 0.094010 0.951772 0.134086
H24   H     H_    0.758080 0.899608 0.050164 0.130549
H25   H     H_    0.264665 0.028621 0.184045 0.125607
H26   H     H_    0.736156 0.970012 0.820514 0.125684
N1    N     N_2   0.447120 0.447110 0.150550 -0.280794
N2    N     N_2   0.552880 0.552890 0.849450 -0.280303
O1    O     O_R   0.517830 0.337490 0.617920 -0.586258
O2    O     O_R   0.482170 0.662510 0.382080 -0.591070
O3    O     O_R   0.482150 0.301790 0.382070 -0.565568
O4    O     O_R   0.517850 0.698210 0.617930 -0.566747
O5    O     O_R   0.337480 0.517860 0.617920 -0.590964
O6    O     O_R   0.662520 0.482140 0.382080 -0.587201
O7    O     O_R   0.301810 0.482160 0.382070 -0.571792
O8    O     O_R   0.698190 0.517840 0.617930 -0.571482
N3    N     N_3   0.654630 0.214867 0.997370 -0.625753
H27   H     H_    0.640820 0.306468 0.984197 0.220595
H28   H     H_    0.736499 0.217248 0.069944 0.201214
N4    N     N_3   0.339634 0.769105 0.982294 -0.619090
H29   H     H_    0.365941 0.730392 0.072573 0.212743
H30   H     H_    0.303957 0.694773 0.904026 0.210344

loop_
_geom_bond_atom_site_label_1
_geom_bond_atom_site_label_2
_ccdc_geom_bond_type
Cu1   O1    S    
C30   C32   A    
C5    C42   A    
Cu1   N2    S    
C32   H14   S    
N3    H27   S    
C27   N1    D    
C15   N3    S    
C40   H2    S    
C19   C21   A    
N4    H30   S    
C20   C22   A    
C28   H7    S    
C20   C25   A    
C16   N4    S    
Cu2   N1    S    
C35   H15   S    
C19   C26   A    
C20   H6    S    
C24   O8    A    
H10   N1    S    
C7    C17   A    
C6    C41   A    
C31   C33   A    
C2    O2    A    
C39   H1    S    
C1    C22   S    
C3    C24   S    
C28   N2    D    
N3    H28   S    
C37   C39   A    
C1    O3    A    
N4    H29   S    
C4    C6    A    
C13   H3    S    
C4    C23   S    
C14   H4    S    
C29   H11   S    
C11   C26   S    
C36   H16   S    
Cu1   O8    S    
C30   H12   S    
C8    C18   A    
C32   C34   A    
Cu2   O3    S    
Cu1   Cu2   S    
C19   H5    S    
C5    C34   S    
C29   C39   A    
C2    C21   S    
C30   C40   A    
C23   O5    A    
Cu2   O2    S    
C9    C11   A    
C10   C12   A    
C10   H26   S    
C8    C10   A    
C12   C14   A    
C8    H24   S    
C13   C15   A    
C14   C16   A    
C18   H22   S    
C41   H19   S    
C42   H20   S    
C2    O4    A    
C27   H8    S    
C24   O6    A    
Cu1   O4    S    
C7    C9    A    
C21   C25   A    
C3    C41   A    
C35   C37   A    
Cu2   O7    S    
C9    H25   S    
C3    C5    A    
C37   H17   S    
C15   C17   A    
Cu1   O5    S    
C17   H21   S    
C6    C33   S    
C12   C25   S    
C1    O1    A    
C31   H13   S    
Cu2   O6    S    
C29   C31   A    
C38   C40   A    
C11   C13   A    
C4    C42   A    
C36   C38   A    
C33   C35   A    
C34   C36   A    
C7    H23   S    
C16   C18   A    
C22   C26   A    
C27   C28   S    
C23   O7    A    
H9    N2    S    
C38   H18   S    
