data_mof_unit_37101.cif
_audit_creation_date              2012-12-10T19:27:27-0500
_audit_creation_method            fapswitch 2.2
_symmetry_space_group_name_H-M    P1
_symmetry_Int_Tables_number       1
_space_group_crystal_system       triclinic
_cell_length_a                    23.312876
_cell_length_b                    10.515361
_cell_length_c                    9.77195
_cell_angle_alpha                 89.908791
_cell_angle_beta                  89.911865
_cell_angle_gamma                 89.693642
_cell_volume                      2395.48805761

loop_
_atom_site_label
_atom_site_type_symbol
_atom_type_description
_atom_site_fract_x
_atom_site_fract_y
_atom_site_fract_z
_atom_type_partial_charge
C1    C     C_R   0.500002 0.257712 0.499813 0.915083
C2    C     C_R   0.499855 0.742282 0.500190 0.910371
C3    C     C_R   0.245597 0.613239 0.382467 0.488257
C4    C     C_R   0.755432 0.585521 0.358318 0.486999
C5    C     C_R   0.304106 0.592853 0.392705 -0.200839
C6    C     C_R   0.697183 0.564611 0.372094 -0.201949
C7    C     C_R   0.327179 0.517634 0.497526 -0.261453
C8    C     C_R   0.673521 0.519858 0.495207 -0.266615
C9    C     C_R   0.290937 0.462665 0.596494 -0.091991
C10   C     C_R   0.709802 0.497145 0.608545 -0.101746
C11   C     C_R   0.231593 0.483111 0.589112 0.459768
C12   C     C_R   0.769133 0.514755 0.595669 0.453993
C13   C     C_R   0.208913 0.557508 0.480460 0.041735
C14   C     C_R   0.791885 0.558809 0.469731 0.046232
C15   C     C_3   0.549130 0.041737 0.557769 -0.271367
C16   C     C_3   0.450522 0.958193 0.442260 -0.274226
C17   C     C_3   0.545768 0.956696 0.428182 -0.307365
C18   C     C_3   0.453881 0.043293 0.571830 -0.308011
C19   C     C_3   0.499747 0.877042 0.500675 -0.087575
C20   C     C_3   0.499924 0.122932 0.499335 -0.088984
C21   C     C_3   0.503022 0.960650 0.627388 0.543511
C22   C     C_3   0.496627 0.039304 0.372631 0.543861
C23   C     C_R   0.389390 0.501273 0.499947 0.904863
C24   C     C_R   0.610882 0.502731 0.499678 0.905958
C25   C     C_3   0.473638 0.400989 0.049308 -0.098633
C26   C     C_3   0.526286 0.599143 0.950753 -0.101772
C27   C     C_3   0.525176 0.401096 0.952883 0.078177
C28   C     C_3   0.474714 0.598813 0.047231 0.076125
C29   C     C_3   0.448017 0.501278 0.951396 -0.122218
C30   C     C_3   0.551978 0.498650 0.048635 -0.123583
C31   C     C_R   0.879810 0.674673 0.497733 0.540849
C32   C     C_R   0.120857 0.472750 0.394904 0.563524
C33   C     C_R   0.881138 0.469681 0.392124 0.534767
C34   C     C_R   0.119932 0.670854 0.514765 0.512536
C35   C     C_R   0.940918 0.475195 0.374590 -0.133737
C36   C     C_R   0.060222 0.682966 0.496942 -0.132236
C37   C     C_R   0.970347 0.579636 0.432330 -0.059994
C38   C     C_R   0.030714 0.580351 0.435622 -0.059612
C39   C     C_R   0.939528 0.681325 0.491299 -0.093813
C40   C     C_R   0.061382 0.476066 0.381725 -0.093836
C41   C     C_R   0.972702 0.377422 0.308530 0.463396
C42   C     C_R   0.028508 0.790229 0.543508 0.463720
C43   C     C_R   0.032240 0.377057 0.316700 -0.123430
C44   C     C_R   0.968811 0.786381 0.543905 -0.118792
H1    H     H_    0.451861 0.317598 0.095443 0.184165
H2    H     H_    0.548058 0.682540 0.904632 0.181387
H3    H     H_    0.404404 0.504214 0.906140 0.159696
H4    H     H_    0.595597 0.496433 0.094010 0.156913
H5    H     H_    0.055625 0.298886 0.270247 0.219456
H6    H     H_    0.945430 0.867189 0.584824 0.222746
H7    H     H_    0.331890 0.636731 0.317296 0.199035
H8    H     H_    0.670161 0.585661 0.284719 0.195656
H9    H     H_    0.582257 0.917737 0.367995 0.177720
H10   H     H_    0.417397 0.082294 0.632011 0.180990
H11   H     H_    0.588788 0.078990 0.605453 0.187012
H12   H     H_    0.410877 0.920868 0.394572 0.187577
N1    N     N_R   0.852450 0.568621 0.452047 -0.370228
N2    N     N_R   0.148340 0.567617 0.463020 -0.369480
N3    N     N_3   0.499960 0.500030 0.863290 -0.102998
N4    N     N_3   0.500040 0.499970 0.136710 -0.103928
O1    O     O_R   0.500000 0.313960 0.616610 -0.634802
O2    O     O_R   0.500000 0.686040 0.383390 -0.637746
O3    O     O_R   0.500030 0.313950 0.383350 -0.568082
O4    O     O_R   0.499970 0.686050 0.616650 -0.569744
O5    O     O_R   0.416140 0.499970 0.616650 -0.622016
O6    O     O_R   0.583860 0.500030 0.383350 -0.623371
O7    O     O_R   0.416170 0.499960 0.383400 -0.614960
O8    O     O_R   0.583830 0.500040 0.616600 -0.620780
O9    O     O_2   0.849202 0.771595 0.552011 -0.516468
O10   O     O_2   0.151204 0.374524 0.342378 -0.518852
O11   O     O_2   0.851742 0.365104 0.355035 -0.495050
O12   O     O_2   0.149465 0.758159 0.586528 -0.497391
Zn1   Zn    Zn3+2 0.499980 0.500010 0.655740 0.979844
Zn2   Zn    Zn3+2 0.500020 0.499990 0.344260 0.976228
O13   O     O_3   0.947588 0.281286 0.234654 -0.690395
H13   H     H_    0.917136 0.320513 0.177644 0.374942
O14   O     O_3   0.053835 0.900461 0.588525 -0.686679
H14   H     H_    0.085097 0.920977 0.523464 0.375539
C45   C     C_1   0.553507 0.287464 0.897993 0.239866
N5    N     N_1   0.576074 0.197574 0.855539 -0.204916
C46   C     C_1   0.444653 0.709981 0.102857 0.221146
N6    N     N_1   0.420615 0.797691 0.146026 -0.206977
O15   O     O_3   0.226237 0.686047 0.273887 -0.718308
H15   H     H_    0.183989 0.693986 0.277175 0.349036
O16   O     O_3   0.774869 0.630522 0.233705 -0.720317
H16   H     H_    0.816229 0.650229 0.239345 0.350287
C47   C     C_1   0.313566 0.380173 0.702413 0.326982
N7    N     N_1   0.331605 0.313946 0.786906 -0.188863
C48   C     C_1   0.687867 0.453751 0.738866 0.365212
N8    N     N_1   0.670979 0.419559 0.843952 -0.184465
O17   O     O_3   0.197138 0.426917 0.687377 -0.714946
H17   H     H_    0.156897 0.455105 0.675921 0.353943
O18   O     O_3   0.803433 0.486250 0.707382 -0.720148
H18   H     H_    0.844355 0.497436 0.684025 0.352193
O19   O     O_3   0.506432 0.913862 0.761197 -0.751262
H19   H     H_    0.501403 0.989001 0.821166 0.338424
O20   O     O_3   0.493242 0.085914 0.238755 -0.750696
H20   H     H_    0.496320 0.010120 0.179014 0.337925

loop_
_geom_bond_atom_site_label_1
_geom_bond_atom_site_label_2
_ccdc_geom_bond_type
C47   N7    T    
O18   H18   S    
C25   H1    S    
C18   C21   S    
C36   C42   A    
O19   H19   S    
C32   N2    A    
O20   H20   S    
O16   H16   S    
C29   H3    S    
C30   H4    S    
C28   C29   S    
C35   C37   A    
C27   C45   S    
C33   C35   A    
O6    Zn2   S    
O5    Zn1   S    
C7    C9    A    
C23   O7    A    
C17   C19   S    
C40   C43   A    
C29   N3    S    
C10   C48   S    
C30   N4    S    
C16   C22   S    
O4    Zn1   S    
C25   N4    S    
C26   N3    S    
N3    Zn1   S    
C18   C20   S    
C3    C13   A    
C24   O6    A    
C28   C46   S    
C22   O20   S    
C27   C30   S    
C41   C43   A    
C42   C44   A    
C1    O3    A    
C2    O4    A    
C46   N6    T    
C28   N4    S    
C25   C29   S    
C15   C20   S    
C4    C6    A    
O17   H17   S    
C5    C7    A    
C33   O11   S    
C43   H5    S    
C32   O10   S    
C13   N2    S    
C21   O19   S    
O1    Zn1   S    
O8    Zn1   S    
O14   H14   S    
C24   O8    A    
C15   H11   S    
O13   H13   S    
C16   H12   S    
C37   C38   A    
C41   O13   S    
O15   H15   S    
C31   O9    S    
O7    Zn2   S    
C9    C11   A    
C10   C12   A    
C8    C10   A    
C20   C22   S    
C26   C30   S    
C3    O15   S    
C12   O18   S    
C17   H9    S    
C44   H6    S    
C15   C17   S    
C14   N1    S    
C1    C20   S    
C33   N1    A    
C19   C21   S    
C2    C19   S    
O2    Zn2   S    
C12   C14   A    
C3    C5    A    
C1    O1    A    
C6    C8    A    
C39   C44   A    
C4    O16   S    
O3    Zn2   S    
C25   C27   S    
C26   C28   S    
C17   C22   S    
C23   O5    A    
C36   C38   A    
C37   C39   A    
C27   N3    S    
C9    C47   S    
C38   C40   A    
C11   C13   A    
C31   N1    A    
C16   C19   S    
C7    C23   S    
N4    Zn2   S    
C8    C24   S    
C31   C39   A    
C34   C36   A    
C32   C40   A    
C4    C14   A    
C35   C41   A    
C18   H10   S    
C34   O12   S    
C45   N5    T    
C11   O17   S    
C15   C21   S    
C42   O14   S    
C16   C18   S    
C34   N2    A    
C5    H7    S    
C6    H8    S    
C48   N8    T    
C26   H2    S    
C2    O2    A    
