data_mof_unit_59518.cif
_audit_creation_date              2012-12-10T18:36:09-0500
_audit_creation_method            fapswitch 2.2
_symmetry_space_group_name_H-M    P1
_symmetry_Int_Tables_number       1
_space_group_crystal_system       triclinic
_cell_length_a                    14.913156
_cell_length_b                    15.422554
_cell_length_c                    18.953827
_cell_angle_alpha                 90.508988
_cell_angle_beta                  104.969527
_cell_angle_gamma                 80.205635
_cell_volume                      4147.22032276

loop_
_atom_site_label
_atom_site_type_symbol
_atom_type_description
_atom_site_fract_x
_atom_site_fract_y
_atom_site_fract_z
_atom_type_partial_charge
C1    C     C_R   0.439934 0.662584 0.490368 0.948550
C2    C     C_R   0.559663 0.337749 0.509190 0.968216
C3    C     C_R   0.400765 0.756678 0.488516 -0.275378
C4    C     C_R   0.598592 0.244361 0.510123 -0.277784
C5    C     C_R   0.299833 0.879702 0.526250 -0.119965
C6    C     C_R   0.705398 0.122478 0.477833 -0.108261
C7    C     C_R   0.320161 0.789191 0.513077 0.323094
C8    C     C_R   0.672554 0.213683 0.478052 0.342027
C9    C     C_R   0.452508 0.814861 0.468417 0.362904
C10   C     C_R   0.553082 0.184939 0.536165 0.341944
C11   C     C_R   0.443837 0.901296 0.493348 -0.063198
C12   C     C_R   0.563697 0.098033 0.512872 -0.041699
C13   C     C_R   0.360977 0.936153 0.514916 0.013794
C14   C     C_R   0.647123 0.063843 0.491418 0.014031
C15   C     C_R   0.514104 0.954230 0.496579 0.096305
C16   C     C_R   0.493834 0.044948 0.509754 0.100552
C17   C     C_R   0.401987 0.080998 0.514118 -0.191233
C18   C     C_R   0.604925 0.918912 0.489488 -0.225099
C19   C     C_R   0.338730 0.027397 0.520337 -0.158127
C20   C     C_R   0.667191 0.973148 0.481798 -0.204825
C21   C     C_R   0.848506 0.617244 0.624699 0.374509
C22   C     C_R   0.157002 0.371605 0.381247 0.338368
C23   C     C_R   0.501248 0.500525 0.634966 0.898512
C24   C     C_R   0.498346 0.500500 0.364772 0.858710
C25   C     C_R   0.755134 0.605784 0.597216 -0.070593
C26   C     C_R   0.247923 0.390319 0.405295 -0.083792
C27   C     C_R   0.794402 0.515403 0.504549 -0.053202
C28   C     C_R   0.206591 0.479485 0.497771 0.003981
C29   C     C_R   0.888080 0.529294 0.526003 -0.082973
C30   C     C_R   0.114905 0.460161 0.478063 -0.020270
C31   C     C_R   0.918440 0.569660 0.593722 -0.019504
C32   C     C_R   0.086062 0.418088 0.411411 -0.079960
C33   C     C_R   0.952839 0.498310 0.484553 -0.020252
C34   C     C_R   0.050149 0.487453 0.519853 0.090608
C35   C     C_R   0.080014 0.504683 0.595553 -0.077034
C36   C     C_R   0.923643 0.481532 0.408330 -0.065788
C37   C     C_R   0.016152 0.556192 0.629314 -0.074780
C38   C     C_R   0.989009 0.429899 0.375194 -0.046283
C39   C     C_R   0.410268 0.551903 0.722148 -0.189950
C40   C     C_R   0.546112 0.571327 0.268343 -0.189352
C41   C     C_R   0.402925 0.575655 0.791285 -0.142417
C42   C     C_R   0.535656 0.595437 0.196190 -0.142579
C43   C     C_R   0.483316 0.564146 0.849974 0.079989
C44   C     C_R   0.468416 0.564455 0.140796 0.079334
C45   C     C_R   0.571305 0.527702 0.839047 -0.244936
C46   C     C_R   0.411892 0.508378 0.158276 -0.254039
C47   C     C_R   0.579392 0.500308 0.770135 -0.019533
C48   C     C_R   0.424258 0.480489 0.230638 -0.009540
C49   C     C_R   0.497814 0.514618 0.710562 -0.062475
C50   C     C_R   0.490582 0.514497 0.286817 -0.078259
C51   C     C_R   0.466185 0.580556 0.064577 0.290663
C52   C     C_R   0.474108 0.580193 0.923935 0.297417
H1    H     H_    0.347203 0.564511 0.677209 0.173736
H2    H     H_    0.596967 0.598986 0.309930 0.181957
H3    H     H_    0.229159 0.522124 0.541906 0.134636
H4    H     H_    0.771483 0.471937 0.461171 0.156657
H5    H     H_    0.302202 0.360697 0.379988 0.195882
H6    H     H_    0.701847 0.635500 0.623683 0.147157
H7    H     H_    0.334350 0.603281 0.798819 0.185518
H8    H     H_    0.580339 0.638412 0.183718 0.159163
H9    H     H_    0.633047 0.515881 0.885191 0.146392
H10   H     H_    0.362457 0.481379 0.114999 0.148120
H11   H     H_    0.270618 0.058867 0.526241 0.188550
H12   H     H_    0.730432 0.942240 0.467733 0.202536
H13   H     H_    0.376245 0.150911 0.511384 0.210541
H14   H     H_    0.629842 0.849141 0.489143 0.206116
N1    N     N_R   0.549617 0.593273 0.977972 -0.169406
N2    N     N_R   0.389611 0.570473 0.010317 -0.168908
N3    N     N_R   0.545591 0.593730 0.047116 -0.167109
N4    N     N_R   0.393422 0.570623 0.941100 -0.163963
N5    N     N_R   0.731690 0.552730 0.540620 -0.118243
N6    N     N_R   0.268310 0.447270 0.459380 -0.129606
O1    O     O_R   0.383120 0.605620 0.479520 -0.613170
O2    O     O_R   0.616880 0.394380 0.520480 -0.555386
O3    O     O_R   0.531890 0.639510 0.505590 -0.582566
O4    O     O_R   0.468110 0.360490 0.494410 -0.576107
O5    O     O_R   0.425590 0.483060 0.588820 -0.611602
O6    O     O_R   0.574410 0.516940 0.411180 -0.633756
O7    O     O_R   0.574360 0.516950 0.614890 -0.587766
O8    O     O_R   0.425640 0.483050 0.385110 -0.594333
Zn1   Zn    Zn3+2 0.400660 0.477370 0.482600 0.979414
Zn2   Zn    Zn3+2 0.599340 0.522630 0.517400 0.995732
C53   C     C_2   0.050867 0.583751 0.705385 0.406956
H15   H     H_    0.017018 0.569579 0.747156 0.133605
O9    O     O_2   0.117247 0.623283 0.721629 -0.614181
C54   C     C_2   0.959538 0.402950 0.298485 0.612269
H16   H     H_    0.994490 0.421270 0.258676 0.064432
O10   O     O_2   0.898706 0.357475 0.279921 -0.576302
O11   O     O_3   0.871027 0.667514 0.685498 -0.665155
C55   C     C_3   0.843203 0.758207 0.665398 0.068801
H17   H     H_    0.829909 0.793135 0.714191 0.182006
H18   H     H_    0.776069 0.773525 0.621360 0.116796
C56   C     C_3   0.922212 0.793830 0.643117 -0.380146
H19   H     H_    0.989558 0.774465 0.685694 0.276699
H20   H     H_    0.930714 0.765296 0.590693 0.217931
C57   C     C_3   0.901051 0.893951 0.634255 -0.833649
H21   H     H_    0.832346 0.915617 0.594029 0.279730
H22   H     H_    0.957189 0.917334 0.614730 0.295919
H23   H     H_    0.898714 0.923847 0.687422 0.256782
O12   O     O_3   0.137967 0.310528 0.327912 -0.663869
C58   C     C_3   0.176574 0.225284 0.359729 0.098712
H24   H     H_    0.148462 0.213639 0.407306 0.154550
H25   H     H_    0.254916 0.216478 0.378080 0.141206
C59   C     C_3   0.149926 0.156666 0.303084 -0.292206
H26   H     H_    0.071920 0.163318 0.285046 0.239278
H27   H     H_    0.176107 0.168292 0.254757 0.232525
C60   C     C_3   0.192161 0.063311 0.334298 -0.987086
H28   H     H_    0.270332 0.054662 0.351365 0.269553
H29   H     H_    0.171476 0.015066 0.291946 0.270005
H30   H     H_    0.165872 0.049644 0.382099 0.264972
C61   C     C_2   0.171813 0.457375 0.642407 0.369473
H31   H     H_    0.208732 0.485651 0.691597 0.115057
O13   O     O_2   0.205455 0.383710 0.627749 -0.542270
C62   C     C_2   0.834160 0.534531 0.362208 0.325714
H32   H     H_    0.800041 0.592498 0.384040 0.077026
O14   O     O_2   0.798515 0.516834 0.299493 -0.567618
C63   C     C_2   0.672771 0.453384 0.764719 0.392829
H33   H     H_    0.736090 0.463873 0.805024 0.072327
O15   O     O_2   0.680068 0.399369 0.718165 -0.582513
C64   C     C_2   0.371809 0.411328 0.243270 0.376421
H34   H     H_    0.302691 0.408726 0.207374 0.073980
O16   O     O_2   0.407498 0.353285 0.290395 -0.612298
O17   O     O_3   0.494676 0.213490 0.581100 -0.640957
C65   C     C_3   0.549516 0.220760 0.653250 0.128143
H35   H     H_    0.508191 0.271339 0.679944 0.187037
H36   H     H_    0.617058 0.244113 0.655653 0.155937
C66   C     C_3   0.568617 0.132996 0.696294 -0.367538
H37   H     H_    0.500653 0.111081 0.693860 0.254565
H38   H     H_    0.612106 0.082128 0.671502 0.221043
C67   C     C_3   0.620603 0.141555 0.776005 -0.901691
H39   H     H_    0.689446 0.162173 0.779617 0.273980
H40   H     H_    0.633656 0.077009 0.805688 0.267234
H41   H     H_    0.577690 0.190773 0.802589 0.270407
O18   O     O_3   0.510287 0.785165 0.423268 -0.649841
C68   C     C_3   0.467496 0.819395 0.351081 0.081382
H42   H     H_    0.523488 0.811583 0.321442 0.172124
H43   H     H_    0.438948 0.891282 0.349085 0.136256
C69   C     C_3   0.390188 0.768392 0.311634 -0.383845
H44   H     H_    0.417045 0.696605 0.320103 0.230637
H45   H     H_    0.328243 0.784365 0.334706 0.200612
C70   C     C_3   0.358399 0.791485 0.229866 -0.911226
H46   H     H_    0.329321 0.862879 0.220227 0.262821
H47   H     H_    0.302738 0.753446 0.203137 0.268443
H48   H     H_    0.418503 0.774595 0.204867 0.265166
O19   O     O_3   0.711712 0.272744 0.446050 -0.628446
C71   C     C_3   0.664482 0.281209 0.370778 -0.001455
H49   H     H_    0.588674 0.309879 0.362776 0.180500
H50   H     H_    0.669934 0.216047 0.344734 0.135624
C72   C     C_3   0.709020 0.342191 0.332682 -0.267160
H51   H     H_    0.693272 0.410197 0.351040 0.233429
H52   H     H_    0.786540 0.320403 0.348240 0.272840
C73   C     C_3   0.671826 0.341649 0.249701 -0.803980
H53   H     H_    0.694547 0.275847 0.229555 0.250844
H54   H     H_    0.699898 0.391458 0.223673 0.313610
H55   H     H_    0.593726 0.357675 0.233358 0.254748
O20   O     O_3   0.266281 0.732103 0.530899 -0.623120
C74   C     C_3   0.187193 0.728470 0.471046 0.067143
H56   H     H_    0.205259 0.673022 0.436512 0.173674
H57   H     H_    0.163868 0.789937 0.435590 0.105164
C75   C     C_3   0.104181 0.712547 0.499881 -0.320662
H58   H     H_    0.126001 0.653844 0.537462 0.229889
H59   H     H_    0.082217 0.769270 0.531658 0.223746
C76   C     C_3   0.019769 0.699499 0.437743 -0.966885
H60   H     H_    0.995430 0.758881 0.400562 0.272564
H61   H     H_    0.961016 0.688474 0.460624 0.263322
H62   H     H_    0.038828 0.641425 0.406143 0.261840
C77   C     C_2   0.219730 0.911667 0.558278 0.464993
H63   H     H_    0.153082 0.889574 0.537989 0.067867
O21   O     O_2   0.228665 0.960808 0.609550 -0.550117
C78   C     C_2   0.796377 0.093152 0.458780 0.431914
H64   H     H_    0.818617 0.133541 0.422159 0.104908
O22   O     O_2   0.850605 0.027112 0.487328 -0.606358

loop_
_geom_bond_atom_site_label_1
_geom_bond_atom_site_label_2
_ccdc_geom_bond_type
C68   C69   S    
C74   H56   S    
C27   C29   A    
C26   N6    A    
C15   C18   A    
C2    C4    S    
C76   H60   S    
C4    C8    A    
C36   C62   S    
C59   H27   S    
O19   C71   S    
C27   N5    A    
O17   C65   S    
C39   C41   A    
C21   O11   S    
C21   C31   A    
C58   H24   S    
C22   C32   A    
C38   C54   S    
O20   C74   S    
C76   H61   S    
C3    C7    A    
C72   H52   S    
C64   O16   D    
C54   O10   D    
C43   C52   S    
C23   C49   S    
C72   H51   S    
C78   H64   S    
C15   C16   A    
C57   H23   S    
C29   C33   A    
C33   C36   A    
C34   C35   A    
C56   H20   S    
C11   C15   A    
C24   O8    A    
C7    O20   S    
C12   C16   A    
C19   H11   S    
C16   C17   A    
C57   H22   S    
C60   H28   S    
C25   N5    A    
C32   C38   A    
C5    C13   A    
N6    Zn1   S    
C2    O2    A    
N5    Zn2   S    
C9    O18   S    
C40   C42   A    
C58   H25   S    
C35   C61   S    
C41   C43   A    
C28   N6    A    
C42   C44   A    
O2    Zn2   S    
O1    Zn1   S    
C59   H26   S    
C28   H3    S    
C44   C46   A    
C62   H32   S    
C71   H50   S    
C45   C47   A    
C24   C50   S    
C46   C48   A    
C22   O12   S    
C30   C34   A    
C1    O3    A    
C75   C76   S    
C14   C20   A    
C68   H42   S    
C76   H62   S    
C41   H7    S    
C77   O21   D    
C10   O17   S    
C72   C73   S    
C42   H8    S    
C77   H63   S    
C5    C7    A    
C13   C19   A    
C27   H4    S    
C6    C8    A    
C31   C37   A    
C1    C3    S    
C70   H47   S    
C75   H59   S    
C20   H12   S    
C67   H40   S    
C66   H38   S    
C60   H29   S    
C3    C9    A    
C6    C14   A    
C71   C72   S    
C9    C11   A    
O6    Zn2   S    
C55   H18   S    
C53   H15   S    
C73   H55   S    
O5    Zn1   S    
C57   H21   S    
C8    O19   S    
C33   C34   A    
C61   O13   D    
C56   H19   S    
C23   O5    A    
C48   C50   A    
C43   C45   A    
C52   N1    A    
C10   C12   A    
C65   C66   S    
C44   C51   S    
C24   O6    A    
C53   O9    D    
C46   H10   S    
C56   C57   S    
C40   H2    S    
C60   H30   S    
C70   H48   S    
C67   H41   S    
C18   H14   S    
C25   H6    S    
C4    C10   A    
C66   H37   S    
C2    O4    A    
C64   H34   S    
C48   C64   S    
C55   C56   S    
C65   H36   S    
C71   H49   S    
C6    C78   S    
C68   H43   S    
C21   C25   A    
C61   H31   S    
C35   C37   A    
C54   H16   S    
C73   H54   S    
O8    Zn1   S    
C69   C70   S    
O4    Zn1   S    
O7    Zn2   S    
C62   O14   D    
C39   C49   A    
O3    Zn2   S    
C23   O7    A    
O18   C68   S    
C69   H45   S    
C74   C75   S    
C47   C49   A    
C17   H13   S    
C1    O1    A    
C75   H58   S    
C63   O15   D    
C67   H39   S    
C12   C14   A    
C66   C67   S    
C28   C30   A    
C29   C31   A    
C63   H33   S    
C36   C38   A    
C30   C32   A    
C11   C13   A    
C55   H17   S    
C39   H1    S    
C78   O22   D    
C40   C50   A    
C45   H9    S    
O12   C58   S    
C17   C19   A    
C18   C20   A    
C51   N2    A    
C5    C77   S    
C26   H5    S    
C52   N4    A    
C69   H44   S    
C47   C63   S    
C73   H53   S    
C74   H57   S    
C22   C26   A    
N2    N4    A    
C37   C53   S    
C58   C59   S    
C51   N3    A    
N1    N3    A    
O11   C55   S    
C70   H46   S    
C59   C60   S    
C65   H35   S    
