data_mof_unit_39157.cif
_audit_creation_date              2012-12-11T15:48:04-0500
_audit_creation_method            fapswitch 2.2
_symmetry_space_group_name_H-M    P1
_symmetry_Int_Tables_number       1
_space_group_crystal_system       triclinic
_cell_length_a                    6.923395
_cell_length_b                    17.608605
_cell_length_c                    19.479619
_cell_angle_alpha                 108.595602
_cell_angle_beta                  89.376112
_cell_angle_gamma                 90.601907
_cell_volume                      2250.61008922

loop_
_atom_site_label
_atom_site_type_symbol
_atom_type_description
_atom_site_fract_x
_atom_site_fract_y
_atom_site_fract_z
_atom_type_partial_charge
O1    O     O_R   0.494330 0.415710 0.413720 -0.536743
O2    O     O_R   0.819360 0.430070 0.560210 -0.542829
O3    O     O_R   0.994320 0.584290 0.586280 -0.546980
C1    C     C_R   0.649793 0.414378 0.581300 0.716692
O4    O     O_R   0.823740 0.406290 0.412670 -0.510427
O5    O     O_R   0.998730 0.560340 0.437690 -0.545562
C2    C     C_R   0.655277 0.381959 0.385371 0.747202
O6    O     O_R   0.489920 0.439660 0.562310 -0.539002
O7    O     O_3   0.662330 0.550570 0.508380 -0.381771
V1    V     V_3+5 0.935370 0.490620 0.498440 1.490910
O8    O     O_R   0.328720 0.569930 0.439790 -0.544415
C3    C     C_R   0.160829 0.585210 0.418439 0.707081
O9    O     O_R   0.324340 0.593710 0.587330 -0.547726
C4    C     C_R   0.155036 0.616947 0.615305 0.678145
V2    V     V_3+5 0.435940 0.509380 0.501560 1.451336
O10   O     O_3   0.159110 0.449430 0.491620 -0.344098
C5    C     C_R   0.312476 0.723320 0.718709 -0.138790
C6    C     C_R   0.301405 0.787102 0.783673 -0.105736
C7    C     C_R   0.121391 0.814770 0.815796 -0.030507
C8    C     C_R   0.952757 0.776976 0.781021 -0.106028
H1    H     H_    0.811661 0.796651 0.803913 0.122697
C9    C     C_R   0.963826 0.713186 0.716071 -0.139091
H2    H     H_    0.830733 0.685559 0.691063 0.117208
C10   C     C_R   0.143844 0.685426 0.683993 -0.048144
C11   C     C_R   0.301674 0.630941 0.319082 -0.221306
C12   C     C_R   0.153171 0.634814 0.369746 -0.082381
C13   C     C_R   0.994799 0.684968 0.372538 -0.176369
C14   C     C_R   0.985674 0.731766 0.326183 0.025824
C15   C     C_R   0.132671 0.726793 0.274522 0.110176
C16   C     C_R   0.290407 0.675241 0.270675 0.133375
C17   C     C_R   0.829695 0.782410 0.330221 -0.228644
C18   C     C_R   0.818702 0.830251 0.285269 0.463650
C19   C     C_R   0.968535 0.828245 0.233561 -0.073093
C20   C     C_R   0.122002 0.772958 0.226671 -0.091456
C21   C     C_R   0.266159 0.763441 0.172372 0.093344
C22   C     C_R   0.420435 0.710477 0.168899 -0.071890
C23   C     C_R   0.433634 0.668057 0.218022 -0.218259
C24   C     C_R   0.973738 0.878918 0.189124 0.371082
C25   C     C_R   0.110094 0.865545 0.131626 -0.235721
C26   C     C_R   0.253853 0.806643 0.122759 0.308406
H3    H     H_    0.423396 0.591669 0.315969 0.116708
H4    H     H_    0.879695 0.688419 0.411610 0.132655
H5    H     H_    0.713526 0.784445 0.368569 0.173416
H6    H     H_    0.535402 0.702414 0.129263 0.175743
H7    H     H_    0.555844 0.628931 0.214347 0.121689
C27   C     C_R   0.485143 0.187268 0.868634 -0.220940
C28   C     C_R   0.627180 0.129931 0.864845 -0.160943
C29   C     C_R   0.773900 0.116008 0.810745 0.388550
C30   C     C_R   0.788307 0.165739 0.765330 -0.077383
C31   C     C_R   0.638502 0.222167 0.769679 -0.037610
C32   C     C_R   0.486663 0.231737 0.820721 0.161805
C33   C     C_R   0.943491 0.162120 0.715299 0.443874
C34   C     C_R   0.942375 0.210427 0.670570 -0.215212
C35   C     C_R   0.791289 0.262941 0.673045 0.017604
C36   C     C_R   0.638284 0.269037 0.722427 0.084873
C37   C     C_R   0.484966 0.322356 0.724644 0.123473
C38   C     C_R   0.334625 0.329804 0.774979 -0.190546
C39   C     C_R   0.336675 0.285672 0.823115 -0.130482
C40   C     C_R   0.793174 0.310424 0.627323 -0.158466
C41   C     C_R   0.641009 0.363170 0.628779 -0.081270
C42   C     C_R   0.485718 0.368061 0.677082 -0.213054
H8    H     H_    0.062622 0.207314 0.633647 0.180370
H9    H     H_    0.913235 0.305828 0.590018 0.149635
H10   H     H_    0.218845 0.292868 0.861702 0.114414
C43   C     C_R   0.800329 0.257525 0.293166 0.382211
C44   C     C_R   0.786943 0.195104 0.227351 -0.127298
H11   H     H_    0.906752 0.154061 0.210266 0.178711
C45   C     C_R   0.620394 0.183952 0.184655 -0.112505
C46   C     C_R   0.465489 0.236767 0.209234 -0.129361
C47   C     C_R   0.478790 0.300370 0.274220 -0.145707
H12   H     H_    0.357838 0.340870 0.290514 0.161941
C48   C     C_R   0.645974 0.312351 0.317161 -0.139074
O11   O     O_R   0.774940 0.060470 0.937800 -0.525773
O12   O     O_R   0.440880 0.093730 0.087350 -0.550965
O13   O     O_R   0.266130 0.939630 0.062280 -0.506446
C49   C     C_R   0.609450 0.116644 0.115469 0.733124
O14   O     O_R   0.445480 0.069960 0.939820 -0.545457
O15   O     O_R   0.270770 0.915690 0.913690 -0.539904
C50   C     C_R   0.615121 0.083077 0.916472 0.744892
O16   O     O_R   0.770300 0.084410 0.086380 -0.545480
O17   O     O_3   0.602600 0.949510 0.991670 -0.346675
V3    V     V_3+5 0.329470 0.009370 0.001550 1.551673
O18   O     O_R   0.940760 0.906160 0.912560 -0.541611
C51   C     C_R   0.110124 0.883051 0.884594 0.748224
O19   O     O_R   0.936150 0.929930 0.060100 -0.519226
C52   C     C_R   0.103999 0.914726 0.081729 0.840836
V4    V     V_3+5 0.828930 0.990450 0.998310 1.582451
O20   O     O_3   0.105670 0.050490 0.008320 -0.388293
H13   H     H_    0.453567 0.703680 0.695793 0.118089
Cl1   Cl    Cl    0.415736 0.784997 0.047743 -0.663102
H14   H     H_    0.370413 0.196649 0.908773 0.134499
Cl2   Cl    Cl    0.912833 0.027802 0.793997 -0.569276
Cl3   Cl    Cl    0.155030 0.104947 0.707655 -0.539110
H15   H     H_    0.368319 0.409006 0.679069 0.120350
H16   H     H_    0.215825 0.370205 0.777469 0.123845
H17   H     H_    0.434481 0.814748 0.808686 0.125789
Cl4   Cl    Cl    0.010727 0.260662 0.344271 -0.616508
H18   H     H_    0.334716 0.229693 0.177714 0.129292
Cl5   Cl    Cl    0.600879 0.883772 0.293829 -0.525693
Cl6   Cl    Cl    0.836051 0.968048 0.210942 -0.527527

loop_
_geom_bond_atom_site_label_1
_geom_bond_atom_site_label_2
_ccdc_geom_bond_type
O18   V4    S    
C36   C37   A    
C6    H17   S    
C44   C45   A    
C7    C8    A    
C28   C50   S    
C1    O6    A    
O17   V3    S    
C17   C18   A    
C34   C35   A    
C12   C13   A    
C17   H5    S    
C22   C23   A    
C6    C7    A    
O16   V4    S    
O5    C3    A    
C24   C25   A    
V2    O10   S    
C37   C38   A    
C20   C21   A    
C4    C10   S    
O11   V4    S    
C27   C28   A    
O8    V2    S    
C28   C29   A    
C45   C46   A    
C47   H12   S    
O1    V2    S    
O7    V1    S    
C46   H18   S    
O19   V4    S    
C44   H11   S    
C40   C41   A    
O9    C4    A    
O12   V3    S    
C5    C6    A    
C35   C40   A    
O14   C50   A    
C39   H10   S    
C5    C10   A    
C5    H13   S    
C24   Cl6   S    
C11   H3    S    
C25   C26   A    
O4    C2    A    
C42   H15   S    
C27   H14   S    
C31   C32   A    
C11   C12   A    
O19   C52   A    
C15   C20   A    
C16   C23   A    
C3    C12   S    
C41   C42   A    
C21   C22   A    
O2    C1    A    
C15   C16   A    
C34   H8    S    
O15   V3    S    
O13   C52   A    
O18   C51   A    
C30   C33   A    
C1    C41   S    
C19   C20   A    
O11   C50   A    
C33   Cl3   S    
C37   C42   A    
C32   C39   A    
O17   V4    S    
O3    C4    A    
O12   C49   A    
C29   C30   A    
C8    C9    A    
C43   C44   A    
O6    V2    S    
O9    V2    S    
C29   Cl2   S    
C9    C10   A    
C22   H6    S    
C23   H7    S    
C7    C51   S    
O2    V1    S    
C2    C48   S    
C33   C34   A    
C11   C16   A    
C35   C36   A    
C14   C15   A    
O1    C2    A    
C14   C17   A    
C49   O16   A    
O5    V1    S    
O8    C3    A    
O13   V3    S    
C45   C49   S    
C43   C48   A    
C40   H9    S    
C31   C36   A    
C18   Cl5   S    
C18   C19   A    
C21   C26   A    
O7    V2    S    
C43   Cl4   S    
O4    V1    S    
O3    V1    S    
V1    O10   S    
C13   H4    S    
C38   C39   A    
O14   V3    S    
V3    O20   S    
C27   C32   A    
C46   C47   A    
O15   C51   A    
C8    H1    S    
V4    O20   S    
C30   C31   A    
C38   H16   S    
C13   C14   A    
C9    H2    S    
C19   C24   A    
C47   C48   A    
C25   C52   S    
C26   Cl1   S    
