data_mof_unit_54376.cif
_audit_creation_date              2012-12-11T14:21:22-0500
_audit_creation_method            fapswitch 2.2
_symmetry_space_group_name_H-M    P1
_symmetry_Int_Tables_number       1
_space_group_crystal_system       triclinic
_cell_length_a                    21.954049
_cell_length_b                    7.207451
_cell_length_c                    14.938076
_cell_angle_alpha                 90.248626
_cell_angle_beta                  107.205184
_cell_angle_gamma                 90.071745
_cell_volume                      2257.89191545

loop_
_atom_site_label
_atom_site_type_symbol
_atom_type_description
_atom_site_fract_x
_atom_site_fract_y
_atom_site_fract_z
_atom_type_partial_charge
O1    O     O_R   0.584770 0.505770 0.002090 -0.540876
O2    O     O_R   0.415230 0.005770 0.997910 -0.540710
O3    O     O_R   0.467060 0.173340 0.861950 -0.537471
O4    O     O_R   0.532940 0.673340 0.138050 -0.537033
C1    C     C_R   0.454985 0.343534 0.825865 0.675308
C2    C     C_R   0.544989 0.844518 0.174027 0.675023
O5    O     O_R   0.587510 0.175890 0.993210 -0.540837
O6    O     O_R   0.412490 0.675890 0.006790 -0.541061
O7    O     O_R   0.536540 0.008150 0.130100 -0.537080
O8    O     O_R   0.463460 0.508150 0.869900 -0.537222
C3    C     C_R   0.612964 0.345013 0.997421 0.730604
C4    C     C_R   0.387039 0.844866 0.002559 0.729470
O9    O     O_3   0.483140 0.340040 0.044760 -0.377267
O10   O     O_3   0.516860 0.840040 0.955240 -0.377409
V1    V     V_3+5 0.503130 0.064190 0.991700 1.424955
V2    V     V_3+5 0.496870 0.564190 0.008300 1.424442
C5    C     C_2   0.213929 0.727719 0.003340 -0.123046
C6    C     C_2   0.785871 0.227500 0.996296 -0.123370
C7    C     C_2   0.180358 0.886858 0.996424 -0.291600
C8    C     C_2   0.819651 0.386622 0.003558 -0.295290
C9    C     C_2   0.281809 0.714584 0.003116 -0.134917
C10   C     C_2   0.717983 0.214673 0.996524 -0.132151
C11   C     C_2   0.319967 0.861347 0.003589 -0.295317
C12   C     C_2   0.680044 0.361569 0.996397 -0.295836
H1    H     H_    0.300863 0.575585 0.003206 0.137570
H2    H     H_    0.698724 0.075712 0.996141 0.138547
H3    H     H_    0.302164 0.001175 0.004386 0.134088
H4    H     H_    0.698013 0.501383 0.995857 0.134473
C13   C     C_R   0.927191 0.882641 0.724025 -0.032596
C14   C     C_R   0.072389 0.388659 0.276357 -0.036013
C15   C     C_R   0.573936 0.850478 0.275502 -0.026685
C16   C     C_R   0.426036 0.344946 0.724217 -0.031280
C17   C     C_R   0.938998 0.865182 0.568702 -0.168069
C18   C     C_R   0.062295 0.435575 0.431399 -0.168366
C19   C     C_R   0.966214 0.879061 0.665354 -0.170096
C20   C     C_R   0.034844 0.429733 0.334631 -0.168808
C21   C     C_R   0.861031 0.868284 0.686258 -0.231931
C22   C     C_R   0.137284 0.350471 0.315036 -0.229779
C23   C     C_R   0.832542 0.839342 0.589191 0.082074
C24   C     C_R   0.165658 0.345210 0.413225 0.080995
C25   C     C_R   0.872586 0.848779 0.530195 0.150764
C26   C     C_R   0.127504 0.398244 0.470852 0.149897
C27   C     C_R   0.765354 0.812288 0.548526 -0.050584
C28   C     C_R   0.231627 0.302622 0.455476 -0.050206
C29   C     C_R   0.738457 0.831587 0.449316 0.024531
C30   C     C_R   0.260454 0.347231 0.552351 0.024990
C31   C     C_R   0.780335 0.844205 0.393505 -0.161730
C32   C     C_R   0.220461 0.402167 0.606539 -0.163087
C33   C     C_R   0.846023 0.846582 0.433308 -0.202892
C34   C     C_R   0.155115 0.420957 0.566896 -0.202920
C35   C     C_R   0.723885 0.764687 0.602645 0.322601
C36   C     C_R   0.270069 0.216661 0.405085 0.322354
C37   C     C_R   0.658199 0.777014 0.563548 -0.188626
C38   C     C_R   0.335999 0.214330 0.442629 -0.187069
C39   C     C_R   0.631187 0.811894 0.468454 0.055765
C40   C     C_R   0.365374 0.271066 0.534522 0.055359
C41   C     C_R   0.670672 0.833875 0.409220 0.079939
C42   C     C_R   0.328097 0.332206 0.592008 0.079286
C43   C     C_R   0.564465 0.813594 0.431200 -0.143565
C44   C     C_R   0.431808 0.254086 0.571275 -0.143522
C45   C     C_R   0.536051 0.830905 0.335134 -0.163748
C46   C     C_R   0.461761 0.288208 0.665798 -0.159878
C47   C     C_R   0.640381 0.855587 0.311992 -0.189481
C48   C     C_R   0.360219 0.371632 0.687453 -0.191461
H5    H     H_    0.876258 0.854024 0.387680 0.119789
H6    H     H_    0.126328 0.462124 0.611371 0.120659
H7    H     H_    0.666667 0.871970 0.262025 0.089604
H8    H     H_    0.335458 0.413934 0.736502 0.092585
H9    H     H_    0.484583 0.824850 0.307040 0.108418
H10   H     H_    0.512541 0.264166 0.694164 0.110631
H11   H     H_    0.627791 0.746576 0.607180 0.146287
H12   H     H_    0.364279 0.154375 0.401360 0.145506
H13   H     H_    0.017542 0.889582 0.694309 0.104695
H14   H     H_    0.984676 0.461362 0.305048 0.106396
H15   H     H_    0.764093 0.849389 0.318191 0.118512
H16   H     H_    0.237894 0.430632 0.680509 0.119059
O11   O     O_R   0.036450 0.233070 0.130130 -0.536933
O12   O     O_R   0.963550 0.733070 0.869870 -0.536994
O13   O     O_R   0.912470 0.560570 0.006790 -0.543666
O14   O     O_R   0.087530 0.060570 0.993210 -0.543824
C49   C     C_R   0.886974 0.391840 0.002513 0.730964
C50   C     C_R   0.113024 0.891983 0.997476 0.732525
O15   O     O_R   0.032920 0.562940 0.138050 -0.539398
O16   O     O_R   0.967080 0.062940 0.861950 -0.539461
O17   O     O_R   0.084790 0.730500 0.002090 -0.537903
O18   O     O_R   0.915210 0.230500 0.997910 -0.537927
C51   C     C_R   0.044930 0.394953 0.174566 0.686739
C52   C     C_R   0.955125 0.893909 0.825528 0.686349
O19   O     O_3   0.016820 0.396170 0.955260 -0.379261
O20   O     O_3   0.983180 0.896170 0.044740 -0.379168
V3    V     V_3+5 0.996880 0.672090 0.008300 1.422865
V4    V     V_3+5 0.003120 0.172090 0.991700 1.422656
H17   H     H_    0.190727 0.596939 0.008879 0.140640
H18   H     H_    0.808886 0.096620 0.990461 0.141929
H19   H     H_    0.832729 0.885709 0.733779 0.154346
H20   H     H_    0.165318 0.335932 0.266989 0.155469
O21   O     O_3   0.744779 0.686734 0.690454 -0.650665
H21   H     H_    0.781509 0.605722 0.691756 0.289472
O22   O     O_3   0.245331 0.116237 0.323683 -0.649704
H22   H     H_    0.206008 0.053860 0.327964 0.290612
H23   H     H_    0.534209 0.795709 0.476229 0.116223
H24   H     H_    0.460327 0.206212 0.527662 0.116503
H25   H     H_    0.202019 0.019086 0.989781 0.129789
H26   H     H_    0.798154 0.518940 0.010459 0.131299
H27   H     H_    0.969842 0.868553 0.523906 0.115838
H28   H     H_    0.032841 0.473693 0.475373 0.116390

loop_
_geom_bond_atom_site_label_1
_geom_bond_atom_site_label_2
_ccdc_geom_bond_type
C35   O21   S    
O15   C51   A    
O11   V4    S    
O4    V2    S    
C39   C43   A    
C15   C45   A    
C18   C26   A    
O2    C4    A    
C2    O7    A    
O21   H21   S    
O17   V3    S    
C23   C25   A    
O5    C3    A    
C4    C11   S    
C29   C41   A    
C33   H5    S    
C48   H8    S    
O12   C52   A    
C3    C12   S    
C46   H10   S    
C44   C46   A    
C29   C31   A    
C32   H16   S    
C13   C52   S    
C17   C19   A    
C7    H25   S    
C28   C30   A    
O1    C3    A    
C11   H3    S    
C7    C50   S    
C12   H4    S    
O13   V3    S    
C49   O18   A    
C1    C16   S    
C28   C36   A    
C32   C34   A    
C2    C15   S    
O6    V2    S    
C8    C49   S    
C30   C42   A    
C44   H24   S    
C25   C33   A    
C36   C38   A    
C41   C47   A    
C38   C40   A    
C37   C39   A    
C42   C48   A    
C47   H7    S    
C43   C45   A    
C43   H23   S    
C15   C47   A    
C17   H27   S    
C16   C48   A    
O14   C50   A    
O13   C49   A    
C23   C27   A    
O5    V1    S    
C5    C9    S    
C40   C44   A    
C35   C37   A    
C18   H28   S    
O14   V4    S    
C34   H6    S    
O22   H22   S    
O6    C4    A    
O1    V2    S    
O19   V4    S    
O2    V1    S    
C27   C29   A    
C20   H14   S    
C26   C34   A    
O4    C2    A    
C39   C41   A    
C6    H18   S    
C10   C12   D    
C5    H17   S    
C22   H20   S    
C37   H11   S    
O3    V1    S    
C45   H9    S    
C9    H1    S    
C19   H13   S    
C6    C10   S    
O16   C52   A    
O3    C1    A    
C8    H26   S    
O12   V3    S    
C31   C33   A    
C50   O17   A    
O15   V3    S    
C13   C19   A    
C36   O22   S    
C14   C20   A    
C17   C25   A    
C9    C11   D    
O7    V1    S    
C16   C46   A    
C1    O8    A    
C21   C23   A    
O8    V2    S    
C22   C24   A    
C27   C35   A    
O20   V3    S    
C24   C26   A    
C5    C7    D    
C18   C20   A    
C40   C42   A    
C6    C8    D    
C21   H19   S    
C31   H15   S    
C30   C32   A    
C24   C28   A    
C38   H12   S    
O11   C51   A    
C10   H2    S    
O9    V2    S    
C13   C21   A    
O10   V1    S    
O18   V4    S    
O16   V4    S    
C14   C22   A    
C14   C51   S    
