data_mof_unit_8528.cif
_audit_creation_date              2012-12-10T18:31:51-0500
_audit_creation_method            fapswitch 2.2
_symmetry_space_group_name_H-M    P1
_symmetry_Int_Tables_number       1
_space_group_crystal_system       triclinic
_cell_length_a                    10.724937
_cell_length_b                    15.082668
_cell_length_c                    15.464824
_cell_angle_alpha                 80.320289
_cell_angle_beta                  91.039802
_cell_angle_gamma                 105.081387
_cell_volume                      2380.18819171

loop_
_atom_site_label
_atom_site_type_symbol
_atom_type_description
_atom_site_fract_x
_atom_site_fract_y
_atom_site_fract_z
_atom_type_partial_charge
C1    C     C_R   0.478278 0.440585 0.662095 0.812916
C2    C     C_3   0.121406 0.501391 0.500652 0.009432
C3    C     C_3   0.072480 0.503887 0.405740 -0.416079
C4    C     C_3   0.106751 0.591130 0.532907 -0.416755
C5    C     C_R   0.452453 0.401464 0.755108 -0.038684
C6    C     C_R   0.509589 0.591626 0.241778 -0.043832
C7    C     C_R   0.437569 0.277836 0.879068 -0.093539
C8    C     C_R   0.454161 0.309953 0.789047 -0.218666
C9    C     C_R   0.425898 0.458175 0.810464 -0.226067
C10   C     C_R   0.414827 0.429634 0.901504 0.041360
C11   C     C_R   0.422541 0.337767 0.936881 0.001548
C12   C     C_R   0.742373 0.502975 0.497359 0.899046
C13   C     C_R   0.408714 0.493592 0.957793 0.085198
C14   C     C_R   0.430669 0.469825 0.047998 -0.012543
C15   C     C_R   0.425302 0.376058 0.082758 -0.268320
C16   C     C_R   0.418850 0.309731 0.028762 0.429612
C17   C     C_R   0.386106 0.581820 0.926638 -0.205441
C18   C     C_R   0.400116 0.648345 0.980560 -0.195760
C19   C     C_R   0.438373 0.629612 0.066597 0.165044
C20   C     C_R   0.455413 0.540611 0.100800 0.098792
C21   C     C_R   0.458882 0.698670 0.119297 -0.190566
C22   C     C_R   0.492235 0.679218 0.206516 -0.100253
C23   C     C_R   0.516608 0.558819 0.337047 1.009485
C24   C     C_R   0.499938 0.525947 0.186261 -0.200532
C25   C     C_R   0.699909 0.841550 0.639972 -0.270889
C26   C     C_R   0.661655 0.751714 0.618989 0.276172
C27   C     C_R   0.526598 0.802603 0.508801 0.425544
C28   C     C_R   0.540855 0.885772 0.544366 -0.112552
C29   C     C_R   0.639190 0.908500 0.603670 0.085241
C30   C     C_R   0.467005 0.949877 0.517981 0.113393
C31   C     C_R   0.512942 0.044303 0.530920 0.112009
C32   C     C_R   0.619419 0.066940 0.585215 -0.203156
C33   C     C_R   0.677807 0.998413 0.624320 -0.139351
C34   C     C_R   0.257760 0.499002 0.501067 0.890849
C35   C     C_R   0.345974 0.920199 0.481590 -0.118401
C36   C     C_R   0.284283 0.984426 0.440895 -0.103716
C37   C     C_R   0.338725 0.079081 0.440339 0.040312
C38   C     C_R   0.449752 0.111187 0.488461 0.008829
C39   C     C_R   0.279062 0.141126 0.393290 -0.282615
C40   C     C_R   0.321884 0.235524 0.396016 0.585034
C41   C     C_R   0.490921 0.208318 0.491070 -0.119731
C42   C     C_3   0.899361 0.426201 0.568125 -0.579495
C43   C     C_3   0.038542 0.416638 0.563348 -0.405245
C44   C     C_3   0.925124 0.487233 0.406627 0.315395
C45   C     C_3   0.967904 0.600491 0.522253 0.323486
C46   C     C_3   0.880372 0.507572 0.495694 -0.101686
H1    H     H_    0.831727 0.358269 0.560518 0.213888
H2    H     H_    0.175636 0.654001 0.496228 0.247461
H3    H     H_    0.121334 0.572202 0.365883 0.250187
H4    H     H_    0.524449 0.461962 0.211968 0.196827
H5    H     H_    0.500279 0.732393 0.245195 0.255955
H6    H     H_    0.383206 0.715385 0.954226 0.155862
H7    H     H_    0.442804 0.207345 0.902535 0.209686
H8    H     H_    0.471658 0.264077 0.746440 0.159993
H9    H     H_    0.421003 0.526774 0.780772 0.149410
H10   H     H_    0.878776 0.439468 0.634431 0.190602
H11   H     H_    0.423055 0.352338 0.152539 0.226966
H12   H     H_    0.354575 0.601042 0.861237 0.138603
H13   H     H_    0.445481 0.766946 0.093788 0.171779
H14   H     H_    0.756302 0.016608 0.668604 0.149884
H15   H     H_    0.570940 0.237118 0.529864 0.144829
H16   H     H_    0.194935 0.959995 0.407891 0.183625
H17   H     H_    0.775702 0.858553 0.686539 0.167400
H18   H     H_    0.079345 0.412402 0.630165 0.177099
H19   H     H_    0.656682 0.135911 0.600677 0.132240
H20   H     H_    0.302023 0.847193 0.480449 0.176837
H21   H     H_    0.193608 0.114431 0.357299 0.215672
H22   H     H_    0.037959 0.351033 0.539590 0.244901
H23   H     H_    0.884802 0.411186 0.406925 0.155888
H24   H     H_    0.096976 0.450058 0.374406 0.240265
H25   H     H_    0.932966 0.605779 0.588058 0.066752
H26   H     H_    0.132836 0.588425 0.603207 0.149196
N1    N     N_R   0.573860 0.731700 0.552730 -0.150112
N2    N     N_R   0.426060 0.268290 0.447230 -0.158856
O1    O     O_R   0.462770 0.383110 0.605620 -0.628585
O2    O     O_R   0.510160 0.531900 0.639510 -0.646075
O3    O     O_R   0.661510 0.425600 0.483070 -0.623173
O4    O     O_R   0.708900 0.574390 0.516960 -0.605956
O5    O     O_R   0.489840 0.468100 0.360490 -0.557662
O6    O     O_R   0.537230 0.616890 0.394380 -0.501951
O7    O     O_R   0.291100 0.425610 0.483040 -0.553279
O8    O     O_R   0.338490 0.574400 0.516930 -0.615096
Zn1   Zn    Zn3+2 0.468350 0.400660 0.477370 1.030001
Zn2   Zn    Zn3+2 0.531650 0.599340 0.522630 1.046060
S1    S     S_3+6 0.867227 0.539078 0.304903 0.053413
O9    O     O_2   0.802592 0.613173 0.317184 -0.235873
O10   O     O_2   0.976684 0.580306 0.238683 -0.271902
O11   O     O_3   0.759254 0.453802 0.265566 -0.570369
H27   H     H_    0.761224 0.474824 0.201260 0.380295
S2    S     S_3+6 0.413002 0.193904 0.079245 0.042600
O12   O     O_2   0.301853 0.127529 0.043972 -0.283534
O13   O     O_2   0.537042 0.172024 0.058639 -0.283441
O14   O     O_3   0.393665 0.180823 0.188796 -0.533999
H28   H     H_    0.391305 0.114822 0.210922 0.400182
S3    S     S_3+6 0.213594 0.298352 0.344202 0.033795
O15   O     O_2   0.154750 0.252884 0.268255 -0.277144
O16   O     O_2   0.106811 0.287693 0.409618 -0.339576
O17   O     O_3   0.275472 0.411237 0.304411 -0.578711
H29   H     H_    0.222796 0.425738 0.253303 0.376632
C47   C     C_3   0.731225 0.684496 0.669459 -0.344238
C48   C     C_3   0.698206 0.665801 0.767875 -0.893394
H30   H     H_    0.593008 0.653772 0.779280 0.264765
H31   H     H_    0.728273 0.603407 0.800257 0.261408
H32   H     H_    0.749577 0.725922 0.798869 0.263115
H33   H     H_    0.713391 0.617858 0.647912 0.253028
H34   H     H_    0.837176 0.715093 0.659728 0.208542
S4    S     S_3+6 0.509408 0.810009 0.394390 0.024738
O18   O     O_2   0.502264 0.904837 0.348942 -0.310468
O19   O     O_2   0.628427 0.792756 0.358393 -0.217532
O20   O     O_3   0.375384 0.729592 0.374560 -0.609874
H35   H     H_    0.313430 0.765162 0.350220 0.375662
S5    S     S_3+6 0.972252 0.712488 0.454561 0.031682
O21   O     O_2   0.841194 0.728489 0.436848 -0.178597
O22   O     O_2   0.045638 0.786625 0.503864 -0.380970
O23   O     O_3   0.051038 0.724296 0.358643 -0.519523
H36   H     H_    0.068650 0.791352 0.333469 0.387336

loop_
_geom_bond_atom_site_label_1
_geom_bond_atom_site_label_2
_ccdc_geom_bond_type
C16   S2    S    
O14   H28   S    
C45   H25   S    
C15   H11   S    
S3    O15   D    
C41   H15   S    
N2    Zn1   S    
O6    Zn2   S    
O2    Zn2   S    
S5    O22   D    
C3    H3    S    
S3    O17   S    
C18   H6    S    
C7    C8    A    
C45   C46   S    
C7    C11   A    
C47   H33   S    
C48   H30   S    
C30   C35   A    
C1    C5    S    
C36   C37   A    
C19   C21   A    
C21   H13   S    
C42   C46   S    
C30   C31   A    
O3    Zn1   S    
C15   C16   A    
C6    C22   A    
C29   C33   A    
C26   N1    A    
C18   C19   A    
C25   H17   S    
C20   C24   A    
O20   H35   S    
C42   H10   S    
C41   N2    A    
C19   C20   A    
C43   H22   S    
C12   O4    A    
S4    O18   D    
C9    H9    S    
C34   O7    A    
C23   O6    A    
C9    C10   A    
N1    Zn2   S    
C17   H12   S    
C2    C34   S    
C48   H31   S    
C21   C22   A    
C25   C29   A    
S4    O19   D    
C36   H16   S    
S5    O21   D    
O7    Zn1   S    
C44   C46   S    
C43   H18   S    
C4    C45   S    
S1    O10   D    
C24   H4    S    
C3    C44   S    
C45   S5    S    
C1    O1    A    
C14   C20   A    
C3    H24   S    
C38   C41   A    
C12   C46   S    
C8    H8    S    
C39   C40   A    
C35   H20   S    
C25   C26   A    
S1    O9    D    
C35   C36   A    
C2    C4    S    
C5    C9    A    
C37   C38   A    
C11   C16   A    
S2    O13   D    
C31   C32   A    
C27   S4    S    
C2    C43   S    
C6    C24   A    
C12   O3    A    
C17   C18   A    
C44   H23   S    
C48   H32   S    
O8    Zn2   S    
S4    O20   S    
C42   C43   S    
C7    H7    S    
C40   S3    S    
C44   S1    S    
C4    H26   S    
S2    O14   S    
C4    H2    S    
S1    O11   S    
C28   C29   A    
C1    O2    A    
C39   H21   S    
C10   C13   A    
C5    C8    A    
S3    O16   D    
C33   H14   S    
C47   H34   S    
C31   C38   A    
C13   C17   A    
C32   C33   A    
C28   C30   A    
C2    C3    S    
C37   C39   A    
C27   N1    A    
O5    Zn1   S    
O1    Zn1   S    
S2    O12   D    
C6    C23   S    
C47   C48   S    
C40   N2    A    
C42   H1    S    
C10   C11   A    
O4    Zn2   S    
O11   H27   S    
O17   H29   S    
C27   C28   A    
C14   C15   A    
C22   H5    S    
C34   O8    A    
C23   O5    A    
C13   C14   A    
S5    O23   S    
O23   H36   S    
C26   C47   S    
C32   H19   S    
