data_mof_unit_56390.cif
_audit_creation_date              2012-12-11T21:14:56-0500
_audit_creation_method            fapswitch 2.2
_symmetry_space_group_name_H-M    P1
_symmetry_Int_Tables_number       1
_space_group_crystal_system       triclinic
_cell_length_a                    8.298176
_cell_length_b                    18.789434
_cell_length_c                    26.849805
_cell_angle_alpha                 99.638056
_cell_angle_beta                  92.814952
_cell_angle_gamma                 88.321758
_cell_volume                      4121.35486215

loop_
_atom_site_label
_atom_site_type_symbol
_atom_type_description
_atom_site_fract_x
_atom_site_fract_y
_atom_site_fract_z
_atom_type_partial_charge
Ba1   Ba    Ba6+2 0.160810 0.465630 0.521640 1.716776
Ba2   Ba    Ba6+2 0.649380 0.534380 0.478400 1.708591
C1    C     C_3   0.502483 0.234503 0.691486 -0.174459
C2    C     C_R   0.072297 0.094848 0.448348 -0.044307
C3    C     C_R   0.213133 0.070121 0.421667 0.371864
C4    C     C_3   0.982229 0.271512 0.617495 0.361071
C5    C     C_R   0.266459 0.996668 0.419449 -0.050394
C6    C     C_R   0.190230 0.951335 0.448457 -0.012021
C7    C     C_R   0.050283 0.976334 0.474443 -0.001327
C8    C     C_R   0.249864 0.880753 0.451384 -0.087618
C9    C     C_R   0.165741 0.832249 0.474518 -0.016559
C10   C     C_R   0.021733 0.856283 0.498726 0.019984
C11   C     C_R   0.966096 0.928834 0.499388 0.013320
C12   C     C_3   0.515903 0.268774 0.644026 0.286273
C13   C     C_R   0.220125 0.759683 0.473109 0.039690
C14   C     C_R   0.127319 0.711876 0.493804 -0.231204
C15   C     C_R   0.986210 0.734336 0.518729 0.065407
C16   C     C_3   0.051681 0.201498 0.632451 -0.197288
C17   C     C_R   0.933971 0.808148 0.522552 -0.016684
C18   C     C_R   0.847949 0.072194 0.499120 0.007815
C19   C     C_R   0.788202 0.144033 0.499741 0.017634
C20   C     C_R   0.874394 0.192431 0.476529 -0.069941
C21   C     C_R   0.007404 0.165392 0.448465 0.021035
C22   C     C_R   0.796647 0.835442 0.548976 0.003708
C23   C     C_3   0.551127 0.316930 0.343750 0.330716
C24   C     C_R   0.738014 0.906118 0.548072 0.011152
C25   C     C_R   0.822877 0.953145 0.523531 0.005798
C26   C     C_R   0.762906 0.024356 0.522888 0.008254
C27   C     C_R   0.593043 0.930129 0.570675 -0.061850
C28   C     C_3   0.859014 0.620161 0.634287 0.267037
C29   C     C_R   0.530681 0.999294 0.568437 -0.115287
C30   C     C_R   0.615099 0.047039 0.545009 0.012531
C31   C     C_R   0.640750 0.166984 0.522687 -0.016204
C32   C     C_R   0.553688 0.117053 0.543767 -0.119797
C33   C     C_R   0.586384 0.239620 0.524395 0.046222
C34   C     C_3   0.532903 0.245256 0.307816 -0.234801
C35   C     C_R   0.680289 0.288171 0.505006 -0.238168
C36   C     C_R   0.823294 0.266300 0.481262 0.023387
C37   C     C_R   0.285159 0.435903 0.172347 0.584186
C38   C     C_R   0.153744 0.551158 0.171890 0.585761
C39   C     C_2   0.022224 0.511828 0.268402 -0.049672
C40   C     C_3   0.927556 0.630025 0.689190 0.345776
C41   C     C_3   0.992260 0.510711 0.323819 -0.057702
C42   C     C_1   0.279340 0.487609 0.335417 -0.014671
C43   C     C_2   0.310267 0.489030 0.287816 -0.124259
C44   C     C_2   0.173546 0.499944 0.250895 0.209829
C45   C     C_3   0.842931 0.721494 0.367178 0.359993
C46   C     C_R   0.275868 0.488822 0.095165 -0.078544
C47   C     C_R   0.323232 0.432054 0.121273 -0.024129
C48   C     C_R   0.408906 0.372699 0.095991 -0.066516
C49   C     C_R   0.189501 0.548535 0.120691 -0.040056
C50   C     C_2   0.148538 0.519008 0.355266 -0.262556
C51   C     C_2   0.650662 0.472157 0.637366 -0.293010
C52   C     C_3   0.982477 0.364635 0.364377 0.315138
C53   C     C_R   0.435830 0.421109 0.966210 0.021173
C54   C     C_R   0.316343 0.543201 0.967465 0.016064
C55   C     C_R   0.397458 0.481146 0.941555 0.053394
C56   C     C_3   0.918785 0.790357 0.356967 0.366941
C57   C     C_R   0.509330 0.359358 0.937825 -0.099310
C58   C     C_R   0.549254 0.357760 0.887892 -0.058856
C59   C     C_R   0.518038 0.417559 0.863779 -0.022965
C60   C     C_R   0.441231 0.479229 0.890458 -0.080303
C61   C     C_R   0.408380 0.539073 0.866069 -0.053934
C62   C     C_R   0.455571 0.537287 0.816111 0.636632
C63   C     C_R   0.561610 0.416742 0.813406 0.577476
C64   C     C_3   0.019959 0.331078 0.310348 -0.356545
C65   C     C_2   0.737646 0.458955 0.725894 -0.036972
C66   C     C_3   0.791580 0.470328 0.674662 -0.056085
C67   C     C_3   0.339353 0.684688 0.349780 0.251192
C68   C     C_1   0.517262 0.505470 0.654007 0.064948
C69   C     C_2   0.468476 0.500953 0.699741 -0.051369
C70   C     C_2   0.583447 0.476644 0.738863 0.242088
C71   C     C_R   0.399513 0.424572 0.018026 0.021213
C72   C     C_R   0.315167 0.485936 0.043561 0.051419
C73   C     C_R   0.270170 0.544567 0.018152 0.020691
C74   C     C_R   0.446430 0.368936 0.045696 -0.098334
C75   C     C_R   0.141122 0.604681 0.094640 -0.048446
C76   C     C_3   0.304216 0.698245 0.646217 0.556052
C77   C     C_R   0.285808 0.602363 0.941678 -0.090398
C78   C     C_3   0.342013 0.700027 0.296121 -0.267012
C79   C     C_R   0.330744 0.600207 0.892260 -0.024727
C80   C     C_R   0.180003 0.602811 0.044628 -0.095105
C81   C     C_3   0.328132 0.707139 0.704589 0.229783
C82   C     C_3   0.474539 0.256097 0.254547 -0.219492
C83   C     C_3   0.446671 0.183191 0.220266 -0.199550
C84   C     C_3   0.405247 0.193038 0.165910 -0.388475
C85   C     C_3   0.481608 0.152322 0.678271 -0.228390
C86   C     C_3   0.462274 0.118552 0.725701 -0.262428
C87   C     C_3   0.440433 0.037065 0.712249 -0.325068
C88   C     C_3   0.924414 0.153872 0.648467 -0.232387
C89   C     C_R   0.991438 0.047986 0.474384 -0.046522
C90   C     C_3   0.005101 0.085276 0.662961 -0.222768
C91   C     C_3   0.882124 0.034650 0.677446 -0.363331
C92   C     C_3   0.394191 0.964753 0.382824 -0.138260
C93   C     C_3   0.564356 0.973006 0.408085 -0.205258
C94   C     C_3   0.692988 0.963814 0.368859 -0.315681
H1    H     H_    0.536803 0.327474 0.655443 0.023411
H2    H     H_    0.398311 0.259741 0.712896 0.128207
H3    H     H_    0.456792 0.715774 0.713933 0.171653
H4    H     H_    0.299287 0.655860 0.717232 -0.001754
H5    H     H_    0.621038 0.243200 0.623642 -0.035982
H6    H     H_    0.613768 0.245892 0.715917 0.126181
H7    H     H_    0.617307 0.353373 0.323440 -0.002481
H8    H     H_    0.623283 0.307235 0.378014 0.055969
H9    H     H_    0.651514 0.216072 0.305948 0.099744
H10   H     H_    0.445563 0.212103 0.322841 0.245967
H11   H     H_    0.710162 0.725745 0.361244 0.098384
H12   H     H_    0.961274 0.577900 0.700982 -0.042012
H13   H     H_    0.874510 0.717258 0.407307 -0.093185
H14   H     H_    0.866610 0.837045 0.382286 -0.080458
H15   H     H_    0.050596 0.788879 0.365931 -0.025263
H16   H     H_    0.212045 0.683487 0.360493 -0.003810
H17   H     H_    0.397394 0.630971 0.350421 0.082690
H18   H     H_    0.268318 0.659853 0.270564 0.139876
H19   H     H_    0.467692 0.695899 0.283415 0.148711
H20   H     H_    0.075744 0.291504 0.595674 0.116023
H21   H     H_    0.292360 0.755090 0.294298 0.175817
H22   H     H_    0.168583 0.656337 0.491758 0.050853
H23   H     H_    0.039290 0.659321 0.692708 -0.029359
H24   H     H_    0.363171 0.862895 0.435555 0.105427
H25   H     H_    0.057006 0.199718 0.425445 0.193769
H26   H     H_    0.731939 0.802018 0.569875 0.148783
H27   H     H_    0.526825 0.895351 0.589884 0.198690
H28   H     H_    0.417264 0.015780 0.585724 0.083945
H29   H     H_    0.438867 0.132345 0.560211 0.091179
H30   H     H_    0.872488 0.260867 0.592524 -0.070973
H31   H     H_    0.639254 0.343789 0.507395 0.064544
H32   H     H_    0.433208 0.482305 0.275531 0.106984
H33   H     H_    0.448785 0.328665 0.115234 0.107912
H34   H     H_    0.094417 0.386542 0.384506 0.044259
H35   H     H_    0.826894 0.444840 0.753734 0.105015
H36   H     H_    0.605890 0.309066 0.868191 0.119658
H37   H     H_    0.536222 0.310441 0.952769 0.072070
H38   H     H_    0.515515 0.321856 0.029988 0.069840
H39   H     H_    0.919884 0.516898 0.242360 0.101078
H40   H     H_    0.072752 0.650924 0.112992 0.141991
H41   H     H_    0.229777 0.652259 0.958821 0.087893
H42   H     H_    0.113373 0.170358 0.599523 0.088807
H43   H     H_    0.304579 0.647324 0.874603 0.164278
H44   H     H_    0.346663 0.517516 0.709914 0.113492
H45   H     H_    0.889183 0.407954 0.364066 -0.004689
H46   H     H_    0.135264 0.647980 0.027721 0.081837
H47   H     H_    0.151823 0.547375 0.394051 0.057543
H48   H     H_    0.658855 0.447447 0.597983 0.073020
H49   H     H_    0.142194 0.215402 0.664176 0.142246
H50   H     H_    0.728659 0.609826 0.632843 0.038832
H51   H     H_    0.921677 0.572061 0.613686 -0.003004
H52   H     H_    0.701507 0.788253 0.746416 0.392820
H53   H     H_    0.427019 0.719592 0.557602 0.342448
H54   H     H_    0.018552 0.776653 0.691260 0.361538
H55   H     H_    0.295973 0.228192 0.164104 0.164346
H56   H     H_    0.104112 0.283979 0.310729 0.188075
H57   H     H_    0.507963 0.217533 0.150418 0.133788
H58   H     H_    0.381410 0.139624 0.142312 0.132392
H59   H     H_    0.557199 0.148468 0.220840 0.141325
H60   H     H_    0.346068 0.155283 0.234282 0.150012
H61   H     H_    0.359672 0.288126 0.256649 0.176650
H62   H     H_    0.566682 0.286460 0.238384 0.130810
H63   H     H_    0.329057 0.024772 0.687874 0.145371
H64   H     H_    0.545259 0.010662 0.691782 0.145713
H65   H     H_    0.430130 0.013992 0.747494 0.178018
H66   H     H_    0.570798 0.129234 0.751558 0.141732
H67   H     H_    0.077856 0.370355 0.290852 0.061400
H68   H     H_    0.355139 0.143145 0.745838 0.135080
H69   H     H_    0.373955 0.140022 0.652394 0.133280
H70   H     H_    0.588380 0.127410 0.658337 0.113549
H71   H     H_    0.817877 0.061547 0.711094 0.132376
H72   H     H_    0.794086 0.018697 0.645399 0.132385
H73   H     H_    0.944857 0.985243 0.686806 0.192411
H74   H     H_    0.072784 0.056018 0.630623 0.134731
H75   H     H_    0.091337 0.100507 0.695787 0.130719
H76   H     H_    0.861770 0.184110 0.681418 0.144832
H77   H     H_    0.835246 0.138927 0.616513 0.111932
H78   H     H_    0.906798 0.312534 0.288713 0.092206
H79   H     H_    0.681573 0.788377 0.238659 0.370909
H80   H     H_    0.186978 0.101714 0.317794 0.331825
H81   H     H_    0.814678 0.963986 0.387888 0.121210
H82   H     H_    0.675568 0.912139 0.342918 0.205801
H83   H     H_    0.685436 0.008239 0.346326 0.185400
H84   H     H_    0.576510 0.026994 0.431870 0.179675
H85   H     H_    0.586405 0.932006 0.433130 0.109424
H86   H     H_    0.372387 0.907112 0.367404 0.108763
H87   H     H_    0.382126 0.988782 0.347857 0.168590
H88   H     H_    0.185621 0.676690 0.631823 -0.084258
N1    N     N_R   0.203227 0.495510 0.197423 -0.428137
N2    N     N_R   0.532701 0.476728 0.790202 -0.429860
O1    O     O_2   0.106080 0.324280 0.466820 -0.425423
O2    O     O_2   0.671087 0.569147 0.328180 -0.509674
O3    O     O_3   0.903727 0.662360 0.333826 -0.583679
O4    O     O_3   0.859130 0.413620 0.470620 -0.493264
O5    O     O_3   0.459240 0.537930 0.559910 -0.452851
O6    O     O_2   0.583120 0.462390 0.379940 -0.496989
O7    O     O_3   0.398069 0.344234 0.359222 -0.622046
O8    O     O_2   0.561972 0.758118 0.472564 -0.476421
O9    O     O_3   0.424705 0.738383 0.382318 -0.618334
O10   O     O_2   0.323801 0.385738 0.194402 -0.633592
O11   O     O_2   0.624214 0.362349 0.790099 -0.620135
O12   O     O_3   0.429401 0.653099 0.624724 -0.656316
O13   O     O_2   0.080225 0.603461 0.193882 -0.550124
O14   O     O_2   0.429464 0.590336 0.795967 -0.536073
O15   O     O_3   0.376230 0.370290 0.556910 -0.465049
O16   O     O_2   0.249425 0.243064 0.522959 -0.467643
O17   O     O_3   0.920952 0.310826 0.387144 -0.640358
O18   O     O_3   0.371221 0.258433 0.614604 -0.634334
O19   O     O_2   0.227190 0.537650 0.620070 -0.526072
O20   O     O_3   0.971110 0.406970 0.583250 -0.499891
O21   O     O_2   0.125470 0.435628 0.672118 -0.487887
O22   O     O_2   0.652604 0.632200 0.736504 -0.341912
O23   O     O_3   0.946320 0.321401 0.660994 -0.615057
O24   O     O_2   0.880315 0.692866 0.784745 -0.215684
O25   O     O_3   0.734955 0.756549 0.715172 -0.485652
O26   O     O_2   0.165252 0.821357 0.621033 -0.300730
O27   O     O_2   0.437500 0.830600 0.660639 -0.244253
O28   O     O_3   0.404624 0.772206 0.567410 -0.539715
O29   O     O_2   0.172856 0.756918 0.789657 -0.209398
O30   O     O_2   0.348368 0.840304 0.759534 -0.217142
O31   O     O_3   0.069082 0.817592 0.713892 -0.414531
O32   O     O_2   0.944614 0.874913 0.286337 -0.299622
O33   O     O_2   0.977133 0.744507 0.258658 -0.238474
O34   O     O_2   0.704230 0.675760 0.533200 -0.455937
O35   O     O_3   0.687676 0.796563 0.276121 -0.550706
O36   O     O_2   0.343321 0.201720 0.425080 -0.281923
O37   O     O_2   0.476328 0.105785 0.370311 -0.363575
O38   O     O_3   0.193690 0.148505 0.341014 -0.550702
O39   O     O_3   0.951180 0.586390 0.529420 -0.497912
O40   O     O_3   0.434080 0.629720 0.443130 -0.479942
O41   O     O_3   0.883422 0.682960 0.613754 -0.612723
O42   O     O_3   0.351080 0.462080 0.440130 -0.445550
O43   O     O_3   0.839200 0.593040 0.416790 -0.483838
P1    P     P_3+3 0.929380 0.335110 0.452880 1.003252
P2    P     P_3+3 0.398530 0.559060 0.613740 0.979136
P3    P     P_3+3 0.959349 0.409806 0.648299 0.940330
P4    P     P_3+3 0.880940 0.664900 0.547160 1.028691
P5    P     P_3+3 0.845431 0.581252 0.350852 0.983822
P6    P     P_3+3 0.398064 0.276941 0.553911 0.970893
P7    P     P_3+3 0.402354 0.438527 0.376762 0.958259
P8    P     P_3+3 0.410611 0.722446 0.444197 0.950906
S1    S     S_3+6 0.794940 0.678126 0.733469 -0.052327
S2    S     S_3+6 0.325828 0.783405 0.624621 -0.053771
S3    S     S_3+6 0.227846 0.781832 0.743127 0.039358
S4    S     S_3+6 0.885804 0.802091 0.292405 -0.069756
S5    S     S_3+6 0.315319 0.131813 0.389880 -0.151570

loop_
_geom_bond_atom_site_label_1
_geom_bond_atom_site_label_2
_ccdc_geom_bond_type
C6    C7    A    
C85   C86   S    
C76   S2    S    
C53   C57   A    
C71   C72   A    
C93   C94   S    
C80   H46   S    
C16   H49   S    
Ba1   O15   S    
C7    C89   A    
C44   N1    S    
O36   S5    D    
Ba2   O42   S    
C28   H51   S    
C21   H25   S    
C4    O23   S    
O35   S4    S    
C43   C44   S    
C88   H77   S    
C67   H17   S    
C24   C25   A    
C35   C36   A    
C54   C77   A    
C61   C79   A    
C37   N1    Am   
O24   S1    D    
C33   C35   A    
C84   H57   S    
Ba2   O6    S    
C29   H28   S    
C65   C70   D    
O18   P6    S    
C48   C74   A    
C42   P7    S    
C67   H16   S    
C41   C50   S    
O15   P6    S    
C85   H70   S    
C19   C31   A    
O37   S5    D    
C52   O17   S    
C20   C36   A    
C67   O9    S    
O2    P5    D    
C54   C55   A    
C10   C17   A    
Ba1   Ba2   S    
C83   H59   S    
O32   S4    D    
O43   P5    S    
C16   H42   S    
C51   C66   S    
C7    C11   A    
C68   P2    S    
Ba2   O43   S    
C15   C17   A    
O16   P6    D    
H53   O28   S    
O1    P1    D    
C9    C13   A    
C76   C81   S    
C46   C49   A    
C91   H72   S    
C90   H74   S    
C14   C15   A    
C12   O18   S    
C39   C44   D    
C87   H63   S    
C68   C69   D    
C75   H40   S    
C3    S5    S    
Ba1   O19   S    
O7    P7    S    
C76   H88   S    
C2    C89   A    
Ba1   O4    S    
C42   C50   D    
C57   C58   A    
C94   H83   S    
O40   P8    S    
C81   H3    S    
C19   C20   A    
Ba2   O34   S    
C39   C41   S    
C58   H36   S    
C92   C93   S    
C52   H34   S    
C51   C68   D    
Ba1   P1    S    
C87   H65   S    
O6    P7    D    
C12   H1    S    
Ba1   O1    S    
C34   H10   S    
C40   S1    S    
O41   P4    S    
C18   C89   A    
C65   H35   S    
C4    C16   S    
C50   H47   S    
C72   C73   A    
C1    C85   S    
C56   H15   S    
C16   C88   S    
C46   C72   A    
O34   P4    D    
C55   C60   A    
C8    H24   S    
C82   C83   S    
C4    H30   S    
C36   P1    S    
H52   O25   S    
O22   S1    D    
C3    C5    A    
C2    C21   A    
C74   H38   S    
O12   P2    S    
C23   H7    S    
C12   H5    S    
C38   N1    Am   
C18   C26   A    
C83   C84   S    
O20   P3    S    
C57   H37   S    
O33   S4    D    
C58   C59   A    
O4    P1    S    
O23   P3    S    
O30   S3    D    
C45   O3    S    
C56   S4    S    
C65   C66   S    
C49   C75   A    
C64   H56   S    
C60   C61   A    
Ba1   O20   S    
C48   H33   S    
C14   H22   S    
Ba1   P2    S    
Ba2   P4    S    
C88   C90   S    
C29   C30   A    
C78   H19   S    
C26   C30   A    
C9    C10   A    
C70   N2    S    
C18   C19   A    
C22   H26   S    
C31   C32   A    
H79   O35   S    
O25   S1    S    
C64   H78   S    
C23   H8    S    
C10   C11   A    
O3    P5    S    
O31   S3    S    
C4    H20   S    
C1    C12   S    
C63   O11   D    
Ba1   O5    S    
Ba1   O42   S    
C6    C8    A    
C46   C47   A    
C37   C47   A    
C78   H18   S    
C45   H11   S    
C81   H4    S    
C62   O14   D    
C45   H13   S    
C94   H81   S    
C71   C74   A    
O19   P2    D    
C33   P6    S    
C92   H87   S    
C39   H39   S    
C23   O7    S    
C42   C43   D    
Ba2   O40   S    
C87   H64   S    
C77   C79   A    
Ba1   O39   S    
C79   H43   S    
C5    C92   S    
C63   N2    Am   
C91   H73   S    
C82   H62   S    
H80   O38   S    
C77   H41   S    
C34   H9    S    
C56   H14   S    
C28   O41   S    
O9    P8    S    
C93   H85   S    
Ba2   O4    S    
C22   C24   A    
C2    C3    A    
O27   S2    D    
C41   P5    S    
O17   P1    S    
C82   H61   S    
C73   C80   A    
C69   H44   S    
C52   C64   S    
C38   O13   D    
C15   P4    S    
C40   H23   S    
C38   C49   A    
C92   H86   S    
C37   O10   D    
C13   P8    S    
C43   H32   S    
C28   H50   S    
O39   P4    S    
C51   H48   S    
C53   C55   A    
C17   C22   A    
C84   H58   S    
C69   C70   S    
C27   C29   A    
C86   H68   S    
C84   H55   S    
C45   C56   S    
C1    H2    S    
O38   S5    S    
C85   H69   S    
C75   C80   A    
C34   C82   S    
C32   H29   S    
C86   H66   S    
C13   C14   A    
C27   H27   S    
C78   H21   S    
C90   C91   S    
C31   C33   A    
H54   O31   S    
C64   H67   S    
O28   S2    S    
C76   O12   S    
C28   C40   S    
O8    P8    D    
C59   C60   A    
O21   P3    D    
C1    H6    S    
O42   P7    S    
O26   S2    D    
C5    C6    A    
C8    C9    A    
C23   C34   S    
C61   C62   A    
C53   C71   A    
C59   C63   A    
C93   H84   S    
C52   H45   S    
C86   C87   S    
C91   H71   S    
C24   C27   A    
O5    P2    S    
C47   C48   A    
C88   H76   S    
C25   C26   A    
C54   C73   A    
C81   S3    S    
C20   C21   A    
C11   C25   A    
C67   C78   S    
O29   S3    D    
C90   H75   S    
C94   H82   S    
C40   H12   S    
Ba2   O5    S    
C83   H60   S    
C62   N2    Am   
C66   P3    S    
Ba2   O39   S    
C30   C32   A    
C35   H31   S    
