data_mof_unit_43306.cif
_audit_creation_date              2012-12-11T20:14:00-0500
_audit_creation_method            fapswitch 2.2
_symmetry_space_group_name_H-M    P1
_symmetry_Int_Tables_number       1
_space_group_crystal_system       triclinic
_cell_length_a                    21.921008
_cell_length_b                    26.656822
_cell_length_c                    8.371762
_cell_angle_alpha                 90.000301
_cell_angle_beta                  102.754682
_cell_angle_gamma                 89.976389
_cell_volume                      4771.27846942

loop_
_atom_site_label
_atom_site_type_symbol
_atom_type_description
_atom_site_fract_x
_atom_site_fract_y
_atom_site_fract_z
_atom_type_partial_charge
Ba1   Ba    Ba6+2 0.999850 0.464270 0.844920 1.641127
Ba2   Ba    Ba6+2 0.999850 0.535730 0.344920 1.640997
Ba3   Ba    Ba6+2 0.499850 0.964270 0.844920 1.640722
Ba4   Ba    Ba6+2 0.499850 0.035730 0.344920 1.641055
C1    C     C_3   0.017560 0.217674 0.687013 -0.361218
C2    C     C_2   0.852207 0.700795 0.779487 -0.110953
C3    C     C_2   0.353135 0.798678 0.277077 -0.110047
C4    C     C_2   0.352027 0.200700 0.779765 -0.110970
C5    C     C_2   0.806453 0.309801 0.136033 0.012590
C6    C     C_2   0.806510 0.690198 0.636148 0.013109
C7    C     C_2   0.307804 0.809455 0.133086 0.012191
C8    C     C_2   0.306471 0.190203 0.636069 0.012635
C9    C     C_2   0.811999 0.354505 0.049345 -0.135468
C10   C     C_2   0.811958 0.645435 0.549695 -0.135197
C11   C     C_2   0.313062 0.854487 0.048112 -0.135731
C12   C     C_3   0.018716 0.781780 0.186935 -0.360409
C13   C     C_2   0.311962 0.145473 0.549483 -0.135618
C14   C     C_1   0.860492 0.387550 0.105377 0.056628
C15   C     C_1   0.860551 0.612438 0.605464 0.057185
C16   C     C_1   0.361031 0.887677 0.105771 0.057729
C17   C     C_1   0.360467 0.112414 0.605480 0.056485
C18   C     C_R   0.159107 0.700443 0.896247 -0.128592
C19   C     C_R   0.161885 0.300679 0.393998 -0.131729
C20   C     C_R   0.661728 0.199399 0.894124 -0.131530
C21   C     C_R   0.661526 0.800470 0.394552 -0.131396
C22   C     C_R   0.114256 0.661763 0.826835 0.005039
C23   C     C_3   0.519330 0.718034 0.685784 -0.361847
C24   C     C_R   0.114945 0.338207 0.326141 0.004434
C25   C     C_R   0.614814 0.161872 0.826277 0.004347
C26   C     C_R   0.614608 0.838015 0.326661 0.004196
C27   C     C_R   0.138907 0.614054 0.083861 0.065490
C28   C     C_R   0.139375 0.386173 0.583198 0.065074
C29   C     C_R   0.639335 0.113862 0.083278 0.064878
C30   C     C_R   0.639267 0.886113 0.583405 0.064922
C31   C     C_R   0.182382 0.648754 0.149435 -0.122522
C32   C     C_R   0.184177 0.352387 0.647286 -0.120475
C33   C     C_R   0.684118 0.147642 0.147356 -0.120494
C34   C     C_3   0.517623 0.282263 0.186650 -0.361467
C35   C     C_R   0.684055 0.852318 0.647516 -0.120968
C36   C     C_R   0.193247 0.694955 0.057589 0.012522
C37   C     C_R   0.195904 0.306654 0.554887 0.012425
C38   C     C_R   0.695792 0.193404 0.054991 0.012501
C39   C     C_R   0.695675 0.806517 0.555291 0.012292
C40   C     C_3   0.990167 0.273924 0.116900 0.433363
C41   C     C_3   0.990712 0.726746 0.617834 0.432894
C42   C     C_3   0.490227 0.773677 0.115077 0.432809
C43   C     C_3   0.490002 0.226097 0.616395 0.433334
C44   C     C_2   0.753030 0.275219 0.071913 -0.073486
C45   C     C_3   0.904540 0.331239 0.336485 -0.039331
C46   C     C_2   0.752996 0.724733 0.572268 -0.073282
C47   C     C_2   0.256892 0.773643 0.061020 -0.079127
C48   C     C_2   0.253054 0.224805 0.572023 -0.073535
C49   C     C_2   0.241624 0.731986 0.136733 -0.075755
C50   C     C_2   0.247296 0.271764 0.628793 -0.071587
C51   C     C_2   0.747173 0.228295 0.128932 -0.071572
C52   C     C_2   0.747133 0.771666 0.629128 -0.071600
C53   C     C_R   0.103413 0.619915 0.931793 -0.277125
C54   C     C_R   0.103334 0.379739 0.431914 -0.277118
C55   C     C_R   0.603253 0.120333 0.932056 -0.277002
C56   C     C_3   0.904741 0.668803 0.836225 -0.039402
C57   C     C_R   0.603119 0.879619 0.432291 -0.276968
C58   C     C_3   0.969052 0.219033 0.105569 0.307008
C59   C     C_3   0.971106 0.782026 0.608517 0.309200
C60   C     C_3   0.469226 0.718761 0.102200 0.306178
C61   C     C_3   0.468792 0.280980 0.604647 0.307040
C62   C     C_3   0.179671 0.468735 0.282409 0.312098
C63   C     C_3   0.179417 0.531288 0.782950 0.311826
C64   C     C_3   0.679392 0.968615 0.282281 0.312289
C65   C     C_3   0.679477 0.031316 0.782362 0.312238
C66   C     C_3   0.237866 0.435893 0.318835 -0.387456
C67   C     C_3   0.405017 0.831239 0.336251 -0.037557
C68   C     C_3   0.237491 0.564232 0.819499 -0.386741
C69   C     C_3   0.737520 0.935699 0.318980 -0.387560
C70   C     C_3   0.737624 0.064174 0.818783 -0.387483
C71   C     C_3   0.822050 0.532406 0.907776 0.314496
C72   C     C_3   0.821976 0.467679 0.407415 0.314553
C73   C     C_3   0.321815 0.032292 0.907362 0.314513
C74   C     C_3   0.322180 0.967599 0.407639 0.314197
C75   C     C_3   0.764921 0.566412 0.871638 -0.371753
C76   C     C_3   0.764853 0.433702 0.371664 -0.371285
C77   C     C_3   0.264683 0.066300 0.872044 -0.371154
C78   C     C_3   0.404569 0.168716 0.836451 -0.039253
C79   C     C_3   0.265090 0.933594 0.370965 -0.371960
C80   C     C_3   0.003546 0.272622 0.645872 0.335295
C81   C     C_3   0.004299 0.726810 0.147023 0.337191
C82   C     C_3   0.504640 0.772941 0.645444 0.336033
C83   C     C_3   0.503576 0.227315 0.145706 0.335416
C84   C     C_2   0.903367 0.377849 0.250262 -0.238722
C85   C     C_2   0.903547 0.622179 0.750084 -0.238228
C86   C     C_2   0.403537 0.878077 0.251221 -0.239107
C87   C     C_2   0.403330 0.122074 0.750393 -0.238593
C88   C     C_3   0.046466 0.178546 0.297208 0.300882
C89   C     C_2   0.851966 0.299308 0.279860 -0.110887
C90   C     C_3   0.103469 0.144649 0.316986 -0.323165
C91   C     C_3   0.049297 0.821627 0.800442 0.299893
C92   C     C_3   0.109037 0.852319 0.820919 -0.321537
C93   C     C_3   0.546166 0.678059 0.294561 0.300481
C94   C     C_3   0.603405 0.644401 0.315059 -0.322953
C95   C     C_3   0.545935 0.321578 0.796596 0.300686
C96   C     C_3   0.602952 0.355427 0.816733 -0.323261
H1    H     H_    0.039696 0.296259 0.725248 0.093127
H2    H     H_    0.225522 0.602452 0.854631 0.061815
H3    H     H_    0.439817 0.287497 0.479780 0.044335
H4    H     H_    0.161014 0.471880 0.394423 0.010995
H5    H     H_    0.160885 0.527937 0.895081 0.011380
H6    H     H_    0.660616 0.971773 0.394099 0.010549
H7    H     H_    0.660818 0.028152 0.894356 0.010594
H8    H     H_    0.144491 0.450777 0.182945 0.062433
H9    H     H_    0.144116 0.549287 0.683798 0.062708
H10   H     H_    0.644253 0.950713 0.182604 0.063368
H11   H     H_    0.644273 0.049262 0.682876 0.062876
H12   H     H_    0.011947 0.160188 0.357687 0.031883
H13   H     H_    0.725511 0.897365 0.352732 0.062305
H14   H     H_    0.062002 0.214722 0.358981 0.024199
H15   H     H_    0.138492 0.161692 0.255709 0.122386
H16   H     H_    0.125006 0.139591 0.449059 0.056922
H17   H     H_    0.089563 0.107389 0.261535 0.126740
H18   H     H_    0.061608 0.785309 0.864782 0.022255
H19   H     H_    0.015755 0.842540 0.857981 0.033654
H20   H     H_    0.098512 0.889601 0.761965 0.126686
H21   H     H_    0.130039 0.857778 0.953317 0.059417
H22   H     H_    0.143291 0.832435 0.763440 0.119916
H23   H     H_    0.511424 0.659382 0.353538 0.032111
H24   H     H_    0.725684 0.102501 0.852849 0.062210
H25   H     H_    0.561300 0.714151 0.357440 0.024223
H26   H     H_    0.638685 0.661815 0.255463 0.122179
H27   H     H_    0.624451 0.639067 0.447298 0.056974
H28   H     H_    0.589920 0.607230 0.258320 0.126808
H29   H     H_    0.561398 0.285441 0.858735 0.024266
H30   H     H_    0.511288 0.340010 0.856491 0.031975
H31   H     H_    0.589105 0.392659 0.760982 0.126710
H32   H     H_    0.624326 0.360544 0.948879 0.057053
H33   H     H_    0.638090 0.338318 0.755964 0.122389
H34   H     H_    0.258153 0.433333 0.208683 0.128651
H35   H     H_    0.257594 0.567090 0.709110 0.128668
H36   H     H_    0.757966 0.933188 0.209082 0.128863
H37   H     H_    0.757930 0.066719 0.708663 0.128814
H38   H     H_    0.840745 0.528883 0.795999 0.000841
H39   H     H_    0.840454 0.471283 0.295334 0.000963
H40   H     H_    0.340106 0.028646 0.794992 0.001162
H41   H     H_    0.039886 0.703113 0.228138 0.094737
H42   H     H_    0.340962 0.971204 0.296035 0.001671
H43   H     H_    0.857830 0.549648 0.007161 0.083727
H44   H     H_    0.857899 0.450376 0.506374 0.083462
H45   H     H_    0.357846 0.049610 0.005980 0.083090
H46   H     H_    0.357914 0.950298 0.507067 0.083625
H47   H     H_    0.729572 0.551359 0.766648 0.114283
H48   H     H_    0.729340 0.448850 0.267160 0.114132
H49   H     H_    0.229031 0.051129 0.767934 0.114123
H50   H     H_    0.229755 0.948753 0.266093 0.114720
H51   H     H_    0.778413 0.604669 0.840875 0.076794
H52   H     H_    0.540426 0.796733 0.725433 0.093512
H53   H     H_    0.778280 0.395475 0.340334 0.076750
H54   H     H_    0.278042 0.104498 0.840306 0.076617
H55   H     H_    0.278636 0.895381 0.339758 0.076372
H56   H     H_    0.744067 0.568826 0.980870 0.135291
H57   H     H_    0.744228 0.431186 0.481256 0.135442
H58   H     H_    0.244262 0.068894 0.981967 0.135473
H59   H     H_    0.244195 0.931032 0.480092 0.135073
H60   H     H_    0.006945 0.277852 0.516732 -0.064888
H61   H     H_    0.008396 0.721032 0.018623 -0.065149
H62   H     H_    0.508145 0.778526 0.516508 -0.064688
H63   H     H_    0.539705 0.203662 0.225201 0.093198
H64   H     H_    0.506999 0.222023 0.016610 -0.064854
H65   H     H_    0.064070 0.207730 0.664038 0.062764
H66   H     H_    0.065985 0.791027 0.167837 0.064792
H67   H     H_    0.566032 0.708600 0.663079 0.063257
H68   H     H_    0.564140 0.292143 0.163646 0.062882
H69   H     H_    0.018322 0.210340 0.817331 0.186975
H70   H     H_    0.017919 0.789746 0.315970 0.185322
H71   H     H_    0.520019 0.710393 0.815890 0.187373
H72   H     H_    0.518396 0.289647 0.316934 0.187019
H73   H     H_    0.937933 0.211689 0.191879 -0.073151
H74   H     H_    0.273165 0.452103 0.421731 0.125959
H75   H     H_    0.940471 0.789822 0.695868 -0.074941
H76   H     H_    0.437760 0.711160 0.187413 -0.071548
H77   H     H_    0.437538 0.288352 0.690626 -0.073318
H78   H     H_    0.781107 0.213707 0.232257 0.069044
H79   H     H_    0.781125 0.786296 0.732169 0.069020
H80   H     H_    0.265349 0.723865 0.261964 0.076453
H81   H     H_    0.281315 0.286379 0.731812 0.069019
H82   H     H_    0.777672 0.363334 0.938008 0.073011
H83   H     H_    0.777479 0.636525 0.438744 0.072609
H84   H     H_    0.279226 0.863224 0.935732 0.073302
H85   H     H_    0.272971 0.547902 0.921806 0.126021
H86   H     H_    0.277588 0.136640 0.438260 0.072863
H87   H     H_    0.164731 0.731528 0.818492 0.073299
H88   H     H_    0.171239 0.270853 0.315342 0.076920
H89   H     H_    0.671032 0.229231 0.815450 0.076897
H90   H     H_    0.670804 0.770607 0.315939 0.077020
H91   H     H_    0.231884 0.782789 0.938043 0.070402
H92   H     H_    0.217346 0.210557 0.471695 0.066513
H93   H     H_    0.717406 0.289460 0.971300 0.066501
H94   H     H_    0.717298 0.710447 0.471991 0.066371
H95   H     H_    0.850206 0.265268 0.348940 0.066263
H96   H     H_    0.772739 0.951817 0.422237 0.125588
H97   H     H_    0.850570 0.734920 0.848230 0.066191
H98   H     H_    0.353329 0.762952 0.338675 0.062497
H99   H     H_    0.350301 0.234764 0.848751 0.066211
H100  H     H_    0.210843 0.642669 0.271135 0.082986
H101  H     H_    0.213139 0.358917 0.768110 0.081287
H102  H     H_    0.713105 0.141087 0.268144 0.081342
H103  H     H_    0.713090 0.858894 0.768219 0.081528
H104  H     H_    0.942207 0.403345 0.291435 0.068992
H105  H     H_    0.942406 0.596669 0.791213 0.069287
H106  H     H_    0.441926 0.903894 0.293714 0.068932
H107  H     H_    0.772932 0.047983 0.921750 0.125749
H108  H     H_    0.442110 0.096504 0.791736 0.069052
H109  H     H_    0.069157 0.591841 0.879732 0.065335
H110  H     H_    0.068109 0.407234 0.380873 0.065947
H111  H     H_    0.568038 0.092852 0.881037 0.065797
H112  H     H_    0.567909 0.907123 0.381224 0.065976
H113  H     H_    0.981311 0.193659 0.609796 0.098124
H114  H     H_    0.983543 0.805866 0.106236 0.095707
H115  H     H_    0.483471 0.693854 0.607905 0.097702
H116  H     H_    0.481384 0.306294 0.109362 0.098017
H117  H     H_    0.950552 0.297816 0.053711 -0.016389
H118  H     H_    0.225980 0.397571 0.353017 0.062171
H119  H     H_    0.950398 0.703583 0.554525 -0.017776
H120  H     H_    0.450644 0.797625 0.051992 -0.016387
H121  H     H_    0.450446 0.202167 0.553240 -0.016405
H122  H     H_    0.002551 0.284195 0.248267 -0.177190
H123  H     H_    0.003067 0.716106 0.748932 -0.175330
H124  H     H_    0.502359 0.783667 0.246708 -0.176444
H125  H     H_    0.502346 0.215897 0.747837 -0.176910
H126  H     H_    0.939966 0.212467 0.980893 0.044077
H127  H     H_    0.941909 0.789300 0.484330 0.041597
H128  H     H_    0.440556 0.712377 0.976937 0.045361
O1    O     O_2   0.875320 0.428620 0.822840 -0.453239
O2    O     O_3   0.041275 0.719788 0.542091 -0.588430
O3    O     O_3   0.541437 0.780186 0.041586 -0.588585
O4    O     O_3   0.541088 0.219832 0.542263 -0.588656
O5    O     O_3   0.072510 0.524860 0.092920 -0.500722
O6    O     O_3   0.072510 0.475140 0.592920 -0.500562
O7    O     O_3   0.572510 0.024860 0.092920 -0.500710
O8    O     O_3   0.572510 0.975140 0.592920 -0.500665
O9    O     O_3   0.927380 0.474960 0.096800 -0.503718
O10   O     O_3   0.927380 0.525040 0.596800 -0.503635
O11   O     O_3   0.427380 0.974960 0.096800 -0.503341
O12   O     O_2   0.875320 0.571380 0.322840 -0.453740
O13   O     O_3   0.427380 0.025040 0.596800 -0.503634
O14   O     O_3   0.978260 0.384470 0.628120 -0.484672
O15   O     O_3   0.978260 0.615530 0.128120 -0.485069
O16   O     O_3   0.478260 0.884470 0.628120 -0.484759
O17   O     O_3   0.478260 0.115530 0.128120 -0.484617
O18   O     O_2   0.860354 0.357317 0.619764 -0.479445
O19   O     O_2   0.860428 0.642944 0.119822 -0.479357
O20   O     O_2   0.360582 0.856677 0.620203 -0.480319
O21   O     O_2   0.360356 0.142738 0.119794 -0.479422
O22   O     O_3   0.804170 0.485260 0.955085 -0.635115
O23   O     O_2   0.375320 0.928620 0.822840 -0.454398
O24   O     O_3   0.804169 0.514791 0.455264 -0.635206
O25   O     O_3   0.304116 0.985200 0.955588 -0.635219
O26   O     O_3   0.304230 0.014716 0.455123 -0.635113
O27   O     O_3   0.943819 0.284982 0.670980 -0.587302
O28   O     O_3   0.944126 0.715101 0.170324 -0.587313
O29   O     O_3   0.444688 0.784678 0.670303 -0.587833
O30   O     O_3   0.443826 0.215042 0.170791 -0.587453
O31   O     O_2   0.124210 0.428020 0.866900 -0.461061
O32   O     O_2   0.124210 0.571980 0.366900 -0.460825
O33   O     O_2   0.624210 0.928020 0.866900 -0.460748
O34   O     O_2   0.375320 0.071380 0.322840 -0.453232
O35   O     O_2   0.624210 0.071980 0.366900 -0.460781
O36   O     O_3   0.021040 0.384370 0.061630 -0.484239
O37   O     O_3   0.021040 0.615630 0.561630 -0.483819
O38   O     O_3   0.521040 0.884370 0.061630 -0.484209
O39   O     O_3   0.521040 0.115630 0.561630 -0.484296
O40   O     O_2   0.125503 0.344673 0.000897 -0.483387
O41   O     O_2   0.125842 0.655094 0.502673 -0.484983
O42   O     O_2   0.625838 0.844906 0.002262 -0.483395
O43   O     O_2   0.625525 0.155297 0.501184 -0.483394
O44   O     O_3   0.020663 0.185751 0.128769 -0.625873
O45   O     O_3   0.196123 0.483884 0.734931 -0.633871
O46   O     O_3   0.023755 0.814231 0.631841 -0.625216
O47   O     O_3   0.520931 0.685567 0.125981 -0.626017
O48   O     O_3   0.520365 0.314271 0.628096 -0.625909
O49   O     O_3   0.196266 0.516237 0.234993 -0.633645
O50   O     O_3   0.696164 0.983829 0.734989 -0.633797
O51   O     O_3   0.696142 0.016099 0.235109 -0.633805
O52   O     O_3   0.041189 0.280161 0.042538 -0.588678
P1    P     P_3+3 0.869190 0.445350 0.992760 0.980096
P2    P     P_3+3 0.077040 0.662618 0.608564 0.964752
P3    P     P_3+3 0.577137 0.837324 0.108392 0.964542
P4    P     P_3+3 0.577068 0.162694 0.608163 0.964875
P5    P     P_3+3 0.919746 0.659739 0.062797 0.957758
P6    P     P_3+3 0.919663 0.340331 0.563045 0.957809
P7    P     P_3+3 0.419654 0.159685 0.063011 0.957896
P8    P     P_3+3 0.419925 0.840012 0.562975 0.957454
P9    P     P_3+3 0.869190 0.554650 0.492760 0.980133
P10   P     P_3+3 0.369190 0.945350 0.992760 0.979555
P11   P     P_3+3 0.369190 0.054650 0.492760 0.980064
P12   P     P_3+3 0.130420 0.444720 0.696970 0.980006
P13   P     P_3+3 0.130420 0.555280 0.196970 0.979560
P14   P     P_3+3 0.630420 0.944720 0.696970 0.980017
P15   P     P_3+3 0.630420 0.055280 0.196970 0.980090
P16   P     P_3+3 0.077125 0.337316 0.108108 0.965066

loop_
_geom_bond_atom_site_label_1
_geom_bond_atom_site_label_2
_ccdc_geom_bond_type
O38   P3    S    
C44   C51   D    
Ba2   O32   S    
C63   O45   S    
C80   H1    S    
Ba1   O5    S    
C23   H71   S    
C44   H93   S    
O17   P7    S    
C81   H61   S    
C42   O3    S    
C70   H24   S    
C91   C92   S    
Ba2   P13   S    
C73   H40   S    
C28   C54   D    
O19   P5    D    
C21   C39   A    
C87   H108  S    
C65   H7    S    
C96   H31   S    
C42   H124  S    
C76   H53   S    
C64   O51   S    
C62   C66   S    
C20   C38   A    
C56   P5    S    
Ba4   O39   S    
C3    C7    A    
O12   P9    D    
O11   P10   S    
O27   P6    S    
C66   H118  S    
C91   O46   S    
C61   H77   S    
C92   H21   S    
C52   H79   S    
C4    C78   A    
C28   C32   D    
Ba2   P9    S    
O3    P3    S    
Ba3   O23   S    
C63   C68   S    
C35   H103  S    
C21   H90   S    
C74   H42   S    
Ba1   P1    S    
C48   H92   S    
C19   H88   S    
C88   O44   S    
C90   H17   S    
C77   H49   S    
O32   P13   D    
C79   H55   S    
O50   P14   S    
C71   C75   S    
C33   C38   S    
C69   H13   S    
O34   P11   D    
C1    H69   S    
C62   O49   S    
O24   P9    S    
Ba3   O13   S    
C43   C61   S    
C18   H87   S    
O39   P4    S    
C5    C9    A    
C20   C25   S    
O14   P6    S    
O8    P14   S    
C59   O46   S    
Ba3   O7    S    
C75   H56   S    
C86   H106  S    
C7    C11   A    
C74   C79   S    
Ba2   O6    S    
C85   H105  S    
C25   C55   S    
C12   H66   S    
Ba3   O33   S    
C8    C13   A    
O37   P2    S    
C33   H102  S    
Ba4   P15   S    
C20   H89   S    
C82   H62   S    
O45   P12   S    
O6    P12   S    
O42   P3    D    
C60   H76   S    
C71   O22   S    
O9    P1    S    
C83   H63   S    
Ba1   O6    S    
C32   H101  S    
O5    P13   S    
C79   H50   S    
C62   H8    S    
C48   C50   D    
C94   H28   S    
C83   H64   S    
C43   H121  S    
C1    H113  S    
C29   C55   D    
Ba3   O38   S    
C30   P14   S    
O33   P14   D    
C61   O48   S    
C23   H115  S    
C67   P8    S    
Ba4   O8    S    
C45   C84   A    
C32   C37   S    
C89   H95   S    
C64   H6    S    
Ba1   O1    S    
C83   O30   S    
C16   P10   S    
C8    C48   S    
O10   P9    S    
C55   H111  S    
C31   H100  S    
C93   C94   S    
C70   H107  S    
C54   H110  S    
C60   O47   S    
C80   H60   S    
C11   C16   A    
C37   C50   S    
C70   H37   S    
C53   H109  S    
C45   P6    S    
C42   H120  S    
C95   H29   S    
C30   C35   D    
C41   H123  S    
C62   H4    S    
Ba2   O15   S    
C73   O25   S    
C93   H25   S    
C5    C89   A    
C6    C10   A    
C2    C56   A    
C81   H41   S    
O20   P8    D    
C1    C80   S    
C90   H16   S    
C88   H12   S    
C68   H35   S    
C75   H47   S    
C43   O4    S    
C40   C58   S    
C64   C69   S    
C58   H126  S    
C58   H73   S    
C16   C86   A    
C41   C59   S    
O29   P8    S    
C29   C33   D    
C77   H54   S    
Ba1   P12   S    
C42   C60   S    
O30   P7    S    
C47   C49   D    
C57   H112  S    
C74   O26   S    
O40   P16   D    
C23   C82   S    
C34   H68   S    
C9    H82   S    
C82   O29   S    
C15   C85   A    
C82   H52   S    
Ba3   O8    S    
O13   P11   S    
Ba1   O36   S    
C93   O47   S    
Ba2   O5    S    
C95   C96   S    
C43   H125  S    
C69   H36   S    
O1    P1    D    
C13   H86   S    
C4    C8    A    
C18   C36   A    
C11   H84   S    
C80   O27   S    
C88   C90   S    
C27   P13   S    
C50   H81   S    
O43   P4    D    
C65   C70   S    
C64   H10   S    
C19   C24   S    
O4    P4    S    
Ba2   O37   S    
C78   P7    S    
C66   H74   S    
C78   C87   A    
C29   P15   S    
C71   H43   S    
O15   P5    S    
C17   P11   S    
C9    C14   A    
C94   H26   S    
C94   H27   S    
C7    C47   S    
O16   P8    S    
C1    H65   S    
C72   O24   S    
C18   C22   S    
C12   C81   S    
C41   H119  S    
O22   P1    S    
C27   C31   D    
O41   P2    D    
O18   P6    D    
C40   H122  S    
C41   O2    S    
C61   H3    S    
Ba4   O35   S    
Ba3   Ba4   S    
C6    C46   S    
C49   H80   S    
C73   H45   S    
C5    C44   S    
C60   H128  S    
C47   H91   S    
C96   H33   S    
C75   H51   S    
C17   C87   A    
C72   H39   S    
C21   C26   S    
C56   C85   A    
C81   O28   S    
O35   P15   D    
C77   H58   S    
C95   H30   S    
C23   H67   S    
C91   H18   S    
C63   H9    S    
C10   C15   A    
C92   H20   S    
C28   P12   S    
C40   H117  S    
C72   C76   S    
Ba3   P14   S    
C34   H116  S    
C51   H78   S    
C72   H44   S    
C71   H38   S    
C2    C6    A    
C2    H97   S    
C59   H127  S    
C95   O48   S    
C96   H32   S    
Ba2   O9    S    
C59   H75   S    
C24   C54   S    
Ba1   O10   S    
O36   P16   S    
O2    P2    S    
C19   C37   A    
C92   H22   S    
C34   C83   S    
C91   H19   S    
C27   C53   D    
C3    H98   S    
C31   C36   S    
C38   C51   S    
Ba4   P11   S    
C10   H83   S    
C93   H23   S    
C46   C52   D    
C3    C67   A    
C46   H94   S    
Ba2   O12   S    
C76   H57   S    
C40   O52   S    
C14   P1    S    
C68   H2    S    
O31   P12   D    
C25   P4    S    
O51   P15   S    
C65   O50   S    
Ba1   Ba2   S    
C26   P3    S    
O52   P16   S    
Ba4   O11   S    
C67   C86   A    
O28   P5    S    
Ba3   O16   S    
C30   C57   D    
C90   H15   S    
C65   H11   S    
C22   C53   S    
O7    P15   S    
C68   H85   S    
C22   P2    S    
C14   C84   A    
Ba1   O14   S    
C74   H46   S    
C36   C49   S    
C12   H70   S    
C39   C52   S    
C76   H48   S    
C79   H59   S    
C63   H5    S    
C35   C39   S    
C12   H114  S    
Ba4   O34   S    
C73   C77   S    
C15   P9    S    
C69   H96   S    
O21   P7    D    
C66   H34   S    
O23   P10   D    
C24   P16   S    
O49   P13   S    
Ba4   O7    S    
C84   H104  S    
Ba3   P10   S    
C45   C89   A    
C26   C57   S    
C88   H14   S    
C4    H99   S    
C34   H72   S    
O26   P11   S    
C58   O44   S    
Ba4   O17   S    
Ba1   O31   S    
O25   P10   S    
C13   C17   A    
