data_mof_unit_35192.cif
_audit_creation_date              2012-12-10T17:57:27-0500
_audit_creation_method            fapswitch 2.2
_symmetry_space_group_name_H-M    P1
_symmetry_Int_Tables_number       1
_space_group_crystal_system       triclinic
_cell_length_a                    9.514333
_cell_length_b                    10.836166
_cell_length_c                    13.36061
_cell_angle_alpha                 90.225657
_cell_angle_beta                  71.419073
_cell_angle_gamma                 89.714372
_cell_volume                      1305.62470811

loop_
_atom_site_label
_atom_site_type_symbol
_atom_type_description
_atom_site_fract_x
_atom_site_fract_y
_atom_site_fract_z
_atom_type_partial_charge
C1    C     C_R   0.500219 0.738059 0.497424 0.775775
C2    C     C_R   0.434496 0.493185 0.980318 0.039089
C3    C     C_R   0.459495 0.453599 0.875022 -0.143019
C4    C     C_R   0.544963 0.469441 0.028779 0.047813
C5    C     C_R   0.673892 0.399954 0.973944 0.018566
C6    C     C_R   0.687531 0.347407 0.874187 0.069500
C7    C     C_R   0.573107 0.365423 0.830371 0.473168
C8    C     C_R   0.530967 0.513858 0.130493 -0.293257
C9    C     C_R   0.761679 0.415287 0.127132 0.169280
C10   C     C_R   0.367306 0.499822 0.818026 -0.200218
C11   C     C_R   0.610275 0.935567 0.520908 -0.236480
C12   C     C_R   0.419319 0.498111 0.701169 0.856913
C13   C     C_R   0.613013 0.063036 0.520503 -0.185928
C14   C     C_R   0.503184 0.128969 0.494553 -0.082576
C15   C     C_R   0.393845 0.067383 0.465211 -0.183466
C16   C     C_R   0.390895 0.939340 0.462799 0.166235
C17   C     C_R   0.499323 0.872395 0.493455 -0.034923
C18   C     C_R   0.899504 0.585087 0.557762 -0.027525
C19   C     C_R   0.048239 0.584862 0.557764 -0.112971
C20   C     C_R   0.101202 0.415304 0.440535 0.565168
C21   C     C_R   0.951049 0.414853 0.442371 -0.118261
C22   C     C_R   0.501151 0.262325 0.498258 0.811432
C23   C     C_R   0.580722 0.496945 0.298860 0.793774
C24   C     C_R   0.783422 0.379226 0.022545 -0.135932
C25   C     C_R   0.630240 0.479372 0.183096 -0.079154
C26   C     C_R   0.234437 0.562775 0.872916 0.437639
C27   C     C_R   0.197468 0.581492 0.981478 -0.226606
C28   C     C_R   0.297645 0.551867 0.033863 -0.244700
Cu1   Cu    Cu3+1 0.359340 0.499980 0.500000 0.974546
Cu2   Cu    Cu3+1 0.640660 0.500020 0.500000 0.957575
H1    H     H_    0.698795 0.109907 0.543015 0.170646
H2    H     H_    0.310688 0.119407 0.443461 0.193057
H3    H     H_    0.822453 0.653202 0.604377 0.128283
H4    H     H_    0.083765 0.652598 0.603822 0.152733
H5    H     H_    0.913886 0.345198 0.398616 0.131785
H6    H     H_    0.883879 0.328947 0.981533 0.152042
H7    H     H_    0.439294 0.571887 0.173500 0.148689
H8    H     H_    0.262205 0.573483 0.116907 0.139593
H9    H     H_    0.092947 0.625288 0.024549 0.158967
H10   H     H_    0.694287 0.886521 0.544214 0.157237
N1    N     N_R   0.147940 0.499970 0.499970 -0.188523
N2    N     N_R   0.852060 0.500060 0.499990 -0.170776
O1    O     O_R   0.381250 0.680340 0.500010 -0.590642
O2    O     O_R   0.618820 0.680370 0.500010 -0.593066
O3    O     O_R   0.323240 0.499950 0.650980 -0.548737
O4    O     O_R   0.560810 0.499980 0.650980 -0.543000
O5    O     O_R   0.381180 0.319630 0.499990 -0.542659
O6    O     O_R   0.618750 0.319660 0.499990 -0.569392
O7    O     O_R   0.439190 0.500020 0.349020 -0.579099
O8    O     O_R   0.676760 0.500050 0.349020 -0.574839
C29   C     C_3   0.876347 0.378370 0.177539 -0.871065
H11   H     H_    0.922183 0.461721 0.204130 0.240714
H12   H     H_    0.825945 0.316351 0.245256 0.231437
H13   H     H_    0.970353 0.327704 0.121425 0.225003
C30   C     C_3   0.273152 0.879297 0.425582 -0.851123
H14   H     H_    0.191469 0.831927 0.492349 0.237798
H15   H     H_    0.210257 0.947803 0.394801 0.209605
H16   H     H_    0.324915 0.813088 0.360427 0.239751
O9    O     O_3   0.196380 0.321890 0.388425 -0.612448
C31   C     C_3   0.225022 0.327574 0.277775 0.033003
H17   H     H_    0.345273 0.343262 0.241321 0.200449
H18   H     H_    0.165901 0.403451 0.250965 0.104634
C32   C     C_3   0.189107 0.203817 0.236462 -0.361668
H19   H     H_    0.234266 0.127370 0.272494 0.228068
H20   H     H_    0.066937 0.193054 0.259157 0.206997
C33   C     C_3   0.257091 0.194427 0.116376 -0.913288
H21   H     H_    0.221597 0.273388 0.077346 0.258500
H22   H     H_    0.221262 0.107396 0.087971 0.252417
H23   H     H_    0.380102 0.194014 0.093337 0.258132
C34   C     C_3   0.821172 0.269402 0.815067 -0.838466
H24   H     H_    0.817757 0.236943 0.737046 0.267216
H25   H     H_    0.923765 0.324691 0.799869 0.242798
H26   H     H_    0.827939 0.186869 0.862333 0.210526
O10   O     O_3   0.136976 0.603036 0.821929 -0.600134
C35   C     C_3   0.153012 0.731797 0.804299 0.034695
H27   H     H_    0.229867 0.747007 0.723070 0.158158
H28   H     H_    0.198250 0.781344 0.860702 0.133069
C36   C     C_3   0.001510 0.788808 0.814852 -0.321579
H29   H     H_    0.946673 0.735960 0.766518 0.216645
H30   H     H_    0.929818 0.783827 0.898648 0.218055
C37   C     C_3   0.015685 0.923345 0.779648 -0.951834
H31   H     H_    0.065912 0.979049 0.829278 0.260477
H32   H     H_    0.904054 0.961635 0.787856 0.254766
H33   H     H_    0.085667 0.930250 0.695591 0.262152
O11   O     O_3   0.569717 0.292045 0.745903 -0.604794
C38   C     C_3   0.458964 0.200578 0.781012 0.037012
H34   H     H_    0.413679 0.181702 0.715650 0.166911
H35   H     H_    0.362124 0.230004 0.849577 0.125463
C39   C     C_3   0.526109 0.081295 0.807721 -0.332753
H36   H     H_    0.627611 0.056162 0.741903 0.223640
H37   H     H_    0.557501 0.095833 0.880170 0.214598
C40   C     C_3   0.416503 0.974967 0.826179 -0.946164
H38   H     H_    0.314714 0.997262 0.892717 0.253239
H39   H     H_    0.467900 0.890148 0.845930 0.254530
H40   H     H_    0.386053 0.956735 0.753833 0.261105

loop_
_geom_bond_atom_site_label_1
_geom_bond_atom_site_label_2
_ccdc_geom_bond_type
C33   H22   S    
C30   H14   S    
C32   H20   S    
C22   O6    A    
C9    C29   S    
C4    C8    A    
C37   H31   S    
C9    C25   A    
C15   H2    S    
Cu1   O7    S    
O11   C38   S    
C26   C27   A    
C24   H6    S    
Cu1   O5    S    
C31   C32   S    
Cu2   O6    S    
C3    C7    A    
C18   N2    A    
C5    C6    A    
C36   H30   S    
C23   O7    A    
C33   H23   S    
C15   C16   A    
C31   H18   S    
C18   C19   A    
C1    O1    A    
C27   H9    S    
C16   C17   A    
C34   H24   S    
C39   H37   S    
C10   C26   A    
C22   O5    A    
Cu2   O8    S    
C32   C33   S    
O9    C31   S    
C13   C14   A    
Cu1   O1    S    
C8    C25   A    
Cu2   O2    S    
C37   H32   S    
Cu2   O4    S    
C20   N1    A    
O10   C35   S    
C29   H11   S    
C12   O4    A    
C36   H29   S    
C4    C5    A    
C23   O8    A    
C38   C39   S    
C40   H40   S    
C32   H19   S    
Cu1   O3    S    
C31   H17   S    
C39   C40   S    
C2    C4    A    
C35   H27   S    
Cu1   Cu2   S    
C18   H3    S    
C1    O2    A    
C28   H8    S    
C34   H26   S    
C40   H39   S    
C20   O9    S    
C35   H28   S    
C10   C12   S    
C30   H15   S    
C8    H7    S    
C37   H33   S    
C6    C34   S    
C11   C17   A    
Cu1   N1    S    
C38   H34   S    
C13   H1    S    
C12   O3    A    
C19   H4    S    
C34   H25   S    
C9    C24   A    
C6    C7    A    
C21   H5    S    
C1    C17   S    
C29   H13   S    
C14   C22   S    
C2    C3    A    
C16   C30   S    
C3    C10   A    
C11   C13   A    
C36   C37   S    
C7    O11   S    
C5    C24   A    
C40   H38   S    
C26   O10   S    
C33   H21   S    
C38   H35   S    
C23   C25   S    
C11   H10   S    
C35   C36   S    
C21   N2    A    
C20   C21   A    
C30   H16   S    
C27   C28   A    
C14   C15   A    
Cu2   N2    S    
C2    C28   A    
C29   H12   S    
C39   H36   S    
C19   N1    A    
