data_mof_unit_56832.cif
_audit_creation_date              2012-10-26T19:41:50-0400
_audit_creation_method            fapswitch 2.2
_symmetry_space_group_name_H-M    P1
_symmetry_Int_Tables_number       1
_space_group_crystal_system       triclinic
_cell_length_a                    10.630756
_cell_length_b                    10.835613
_cell_length_c                    9.617447
_cell_angle_alpha                 91.652075
_cell_angle_beta                  89.417511
_cell_angle_gamma                 94.278305
_cell_volume                      1104.25903633

loop_
_atom_site_label
_atom_site_type_symbol
_atom_type_description
_atom_site_fract_x
_atom_site_fract_y
_atom_site_fract_z
_atom_type_partial_charge
C1    C     C_R   0.504421 0.262240 0.497749 0.556007
C2    C     C_R   0.546961 0.067431 0.614361 -0.019560
C3    C     C_R   0.508556 0.127107 0.494111 -0.001616
C4    C     C_R   0.259385 0.499054 0.500867 0.593355
C5    C     C_R   0.457420 0.054244 0.380537 0.064834
C6    C     C_R   0.446952 0.926745 0.388504 -0.142318
C7    C     C_R   0.472539 0.869446 0.511881 -0.033830
C8    C     C_R   0.698951 0.651373 0.136425 0.297626
C9    C     C_R   0.803618 0.690021 0.053235 -0.134732
C10   C     C_R   0.791263 0.696458 0.912638 -0.198964
C11   C     C_R   0.681452 0.648753 0.851580 -0.089702
C12   C     C_3   0.961529 0.501403 0.365721 -0.108797
C13   C     C_R   0.591206 0.573081 0.924508 0.126120
C14   C     C_R   0.595009 0.573219 0.074432 0.159203
C15   C     C_R   0.410839 0.433519 0.072550 0.030060
C16   C     C_R   0.488169 0.736249 0.503296 0.550847
C17   C     C_R   0.412555 0.431389 0.925049 0.047045
C18   C     C_R   0.740295 0.500154 0.499143 0.555727
C19   C     C_3   0.036059 0.498412 0.632591 0.093042
C20   C     C_3   0.947248 0.396946 0.561231 -0.114734
C21   C     C_3   0.876762 0.499849 0.496861 -0.019540
C22   C     C_3   0.963231 0.600996 0.568994 -0.115595
C23   C     C_3   0.033623 0.400488 0.431887 0.266892
C24   C     C_3   0.050826 0.601954 0.439043 -0.169424
C25   C     C_3   0.739976 0.820549 0.290119 -0.124754
C26   C     C_3   0.978275 0.222005 0.304779 -0.096417
C27   C     C_3   0.122281 0.499452 0.503183 0.064473
C28   C     C_R   0.624120 0.128094 0.718342 -0.100171
C29   C     C_R   0.638657 0.073457 0.846130 -0.130533
C30   C     C_R   0.569770 0.962763 0.874955 -0.092103
C31   C     C_R   0.497840 0.899621 0.770847 0.126351
C32   C     C_R   0.504315 0.942935 0.632809 0.023508
Cu1   Cu    Cu3+1 0.499990 0.499990 0.640660 0.981204
Cu2   Cu    Cu3+1 0.500010 0.500010 0.359340 1.035061
H1    H     H_    0.902357 0.313034 0.610313 0.113029
H2    H     H_    0.095754 0.686031 0.390324 0.133760
H3    H     H_    0.928432 0.502352 0.256668 0.147416
H4    H     H_    0.674152 0.217117 0.701389 0.139293
H5    H     H_    0.695639 0.121576 0.926264 0.128795
H6    H     H_    0.696244 0.877659 0.211966 0.111931
H7    H     H_    0.844357 0.835719 0.288141 0.101168
H8    H     H_    0.710731 0.853600 0.394623 0.131139
H9    H     H_    0.927877 0.272213 0.225716 0.123142
H10   H     H_    0.911571 0.187124 0.387039 0.096936
H11   H     H_    0.016010 0.140295 0.251437 0.162041
H12   H     H_    0.567339 0.929267 0.980001 0.141461
H13   H     H_    0.417539 0.871665 0.297059 0.171348
H14   H     H_    0.336320 0.380432 0.126322 0.175456
H15   H     H_    0.890325 0.730447 0.098643 0.139457
H16   H     H_    0.864812 0.744329 0.851752 0.144909
H17   H     H_    0.673057 0.672159 0.746017 0.192617
H18   H     H_    0.341237 0.374077 0.869104 0.160518
H19   H     H_    0.931248 0.684684 0.623627 0.125391
I1    I     I_    0.341395 0.784539 0.843987 -0.309475
I2    I     I_    0.078126 0.494309 0.849045 -0.390594
I3    I     I_    0.392241 0.118874 0.189343 -0.387435
N1    N     N_R   0.501210 0.501210 0.147910 -0.242926
N2    N     N_R   0.501250 0.501290 0.852040 -0.238038
O1    O     O_R   0.499990 0.319640 0.618810 -0.509778
O2    O     O_3   0.080012 0.296825 0.361860 -0.536313
O3    O     O_R   0.500000 0.319660 0.381240 -0.474921
O4    O     O_R   0.316850 0.499960 0.618770 -0.472876
O5    O     O_R   0.316860 0.499980 0.381190 -0.490736
O6    O     O_R   0.500000 0.680340 0.618760 -0.510831
O7    O     O_R   0.500010 0.680360 0.381190 -0.452477
O8    O     O_R   0.683140 0.500020 0.618810 -0.535190
O9    O     O_R   0.683150 0.500040 0.381230 -0.452982
O10   O     O_3   0.700808 0.692867 0.273673 -0.513798

loop_
_geom_bond_atom_site_label_1
_geom_bond_atom_site_label_2
_ccdc_geom_bond_type
C25   H8    S    
Cu1   O8    S    
Cu2   N1    S    
C2    C28   A    
C20   C23   S    
C8    O10   S    
C6    C7    A    
C16   O7    A    
C23   C27   S    
C18   O8    A    
C18   C21   S    
C11   C13   A    
C9    C10   A    
C12   C24   S    
C5    I3    S    
C19   C20   S    
C4    O5    A    
C24   C27   S    
C28   H4    S    
C17   N2    A    
C3    C5    A    
C29   H5    S    
C2    C3    A    
C8    C9    A    
C26   H10   S    
Cu1   O1    S    
C25   H7    S    
C21   C22   S    
C23   O2    S    
C15   N1    A    
C12   C23   S    
C24   H2    S    
C25   O10   S    
C15   H14   S    
Cu1   O6    S    
C4    C27   S    
Cu2   O7    S    
C28   C29   A    
C26   H9    S    
Cu1   Cu2   S    
C22   H19   S    
C1    O1    A    
C25   H6    S    
C5    C6    A    
C7    C32   A    
C22   C24   S    
C11   H17   S    
C10   C11   A    
C29   C30   A    
Cu2   O9    S    
C10   H16   S    
C4    O4    A    
C31   I1    S    
C19   C22   S    
C9    H15   S    
C20   C21   S    
C17   H18   S    
C2    C32   A    
C6    H13   S    
C19   I2    S    
C12   H3    S    
C15   C17   A    
C14   N1    A    
Cu1   N2    S    
C30   C31   A    
Cu2   O5    S    
C8    C14   A    
C13   N2    A    
C16   O6    A    
C26   H11   S    
C19   C27   S    
C18   O9    A    
C13   C14   A    
C20   H1    S    
C26   O2    S    
C12   C21   S    
C30   H12   S    
Cu2   O3    S    
C7    C16   S    
C31   C32   A    
Cu1   O4    S    
C1    C3    S    
C1    O3    A    
