data_mof_unit_50460.cif
_audit_creation_date              2012-12-10T20:47:10-0500
_audit_creation_method            fapswitch 2.2
_symmetry_space_group_name_H-M    P1
_symmetry_Int_Tables_number       1
_space_group_crystal_system       triclinic
_cell_length_a                    10.496665
_cell_length_b                    8.924847
_cell_length_c                    8.120872
_cell_angle_alpha                 90.060711
_cell_angle_beta                  88.603344
_cell_angle_gamma                 89.534147
_cell_volume                      760.52070285

loop_
_atom_site_label
_atom_site_type_symbol
_atom_type_description
_atom_site_fract_x
_atom_site_fract_y
_atom_site_fract_z
_atom_type_partial_charge
C1    C     C_R   0.499574 0.218073 0.499924 0.933798
C2    C     C_R   0.060979 0.543912 0.659187 0.002407
C3    C     C_R   0.131063 0.584771 0.517300 -0.298105
C4    C     C_R   0.880411 0.504333 0.492596 -0.253850
C5    C     C_R   0.066750 0.629204 0.376897 0.303533
C6    C     C_R   0.937807 0.592463 0.365887 0.404322
C7    C     C_1   0.500031 0.065230 0.499925 -0.191110
C8    C     C_1   0.500386 0.934791 0.500085 -0.183135
C9    C     C_3   0.184485 0.700291 0.864705 -0.359193
C10   C     C_3   0.103792 0.843295 0.870820 -0.831084
C11   C     C_3   0.836648 0.217097 0.711750 -0.421058
C12   C     C_R   0.500636 0.781964 0.500019 0.907857
C13   C     C_3   0.901964 0.126508 0.573565 -0.878683
C14   C     C_R   0.264003 0.537032 0.503421 0.881708
C15   C     C_R   0.743029 0.493753 0.497651 0.936627
C16   C     C_R   0.103767 0.565869 0.821166 0.231341
C17   C     C_R   0.912727 0.355601 0.753992 0.238501
C18   C     C_R   0.056394 0.472073 0.946102 -0.168889
C19   C     C_R   0.967187 0.362367 0.910476 -0.197332
C20   C     C_R   0.949219 0.465197 0.634371 -0.023054
H1    H     H_    0.091457 0.480042 0.069673 0.191742
H2    H     H_    0.900620 0.189384 0.455746 0.256217
H3    H     H_    0.002293 0.101056 0.604630 0.266672
H4    H     H_    0.850833 0.019332 0.556502 0.260585
H5    H     H_    0.826900 0.142535 0.820882 0.208548
H6    H     H_    0.738654 0.244597 0.676775 0.227941
H7    H     H_    0.940314 0.283079 0.005796 0.147908
H8    H     H_    0.207421 0.751199 0.295124 0.339043
H9    H     H_    0.916316 0.709145 0.164049 0.369823
H10   H     H_    0.064080 0.866275 0.747813 0.248104
H11   H     H_    0.024165 0.833163 0.961828 0.278068
H12   H     H_    0.163774 0.939456 0.906326 0.255610
H13   H     H_    0.230882 0.682587 0.984229 0.240100
H14   H     H_    0.262657 0.720361 0.774277 0.216815
N1    N     N_1   0.500000 0.500000 0.073640 -0.026646
N2    N     N_1   0.500000 0.500000 0.926360 -0.038625
O1    O     O_R   0.500000 0.285350 0.636850 -0.625331
O2    O     O_3   0.865685 0.641870 0.235877 -0.742402
O3    O     O_R   0.500000 0.714650 0.636850 -0.632922
O4    O     O_R   0.500000 0.285360 0.363100 -0.611988
O5    O     O_R   0.500000 0.714640 0.363100 -0.614223
O6    O     O_R   0.316770 0.500000 0.636900 -0.626843
O7    O     O_R   0.683230 0.500000 0.636900 -0.629287
O8    O     O_R   0.316780 0.500000 0.363150 -0.604854
O9    O     O_R   0.683220 0.500000 0.363150 -0.547697
O10   O     O_3   0.125683 0.712419 0.254448 -0.813379
Zn1   Zn    Zn3+2 0.500000 0.500000 0.682780 0.965243
Zn2   Zn    Zn3+2 0.500000 0.500000 0.317220 1.007174

loop_
_geom_bond_atom_site_label_1
_geom_bond_atom_site_label_2
_ccdc_geom_bond_type
H9    O2    S    
C6    O2    S    
C12   O5    A    
C8    C12   S    
O1    Zn1   S    
C18   H1    S    
C19   H7    S    
C5    O10   S    
C10   H10   S    
N1    N2    T    
C1    O4    A    
C1    O1    A    
C14   O6    A    
C12   O3    A    
C2    C3    A    
C15   O7    A    
C7    C8    T    
C16   C18   A    
C9    H13   S    
C11   C13   S    
H8    O10   S    
C5    C6    A    
C3    C14   S    
C4    C15   S    
N1    Zn2   S    
O3    Zn1   S    
C17   C19   A    
O5    Zn2   S    
C13   H2    S    
O6    Zn1   S    
C9    H14   S    
C4    C6    A    
C15   O9    A    
C2    C20   A    
C4    C20   A    
C10   H12   S    
C17   C20   A    
C2    C16   A    
C13   H3    S    
N2    Zn1   S    
C14   O8    A    
C18   C19   A    
C9    C10   S    
O9    Zn2   S    
O4    Zn2   S    
C11   H5    S    
C11   C17   S    
C11   H6    S    
C1    C7    S    
O7    Zn1   S    
C10   H11   S    
C9    C16   S    
O8    Zn2   S    
C13   H4    S    
C3    C5    A    
