data_mof_unit_27698.cif
_audit_creation_date              2013-03-05T15:49:11-0500
_audit_creation_method            fapswitch 2.2
_symmetry_space_group_name_H-M    P1
_symmetry_Int_Tables_number       1
_space_group_crystal_system       triclinic
_cell_length_a                    17.553568
_cell_length_b                    24.724197
_cell_length_c                    15.051312
_cell_angle_alpha                 90.177553
_cell_angle_beta                  126.145464
_cell_angle_gamma                 90.058854
_cell_volume                      5274.86779325

loop_
_atom_site_label
_atom_site_type_symbol
_atom_site_description
_atom_site_fract_x
_atom_site_fract_y
_atom_site_fract_z
_atom_type_partial_charge
C1    C     C_R   0.313000 0.128724 0.908472 0.349886
C2    C     C_R   0.348319 0.849153 0.908472 0.319238
C3    C     C_R   0.810554 0.625779 0.908702 0.350582
C4    C     C_R   0.846974 0.349411 0.909285 0.341406
N1    N     N_R   0.392450 0.103580 0.942190 -0.086847
N2    N     N_R   0.392450 0.896420 0.942190 -0.086884
N3    N     N_R   0.892450 0.603580 0.942190 -0.086740
N4    N     N_R   0.892450 0.396420 0.942190 -0.088310
C5    C     C_R   0.444514 0.848631 0.092227 -0.164084
C6    C     C_R   0.412283 0.134283 0.092578 -0.170647
C7    C     C_R   0.944188 0.348672 0.092521 -0.167573
C8    C     C_R   0.906824 0.628760 0.092926 -0.166691
H1    H     H_    0.490281 0.836114 0.177187 0.140904
H2    H     H_    0.452591 0.151459 0.173842 0.131891
H3    H     H_    0.990171 0.335905 0.177293 0.147915
H4    H     H_    0.943022 0.643076 0.175867 0.130829
N5    N     N_R   0.450490 0.896000 0.057360 -0.060151
N6    N     N_R   0.450490 0.104000 0.057360 -0.061427
N7    N     N_R   0.950490 0.396000 0.057360 -0.062910
N8    N     N_R   0.950490 0.604000 0.057360 -0.062270
C9    C     C_R   0.482295 0.044685 0.251259 -0.110064
C10   C     C_R   0.477702 0.954415 0.244775 -0.094015
C11   C     C_R   0.996895 0.543458 0.268493 -0.124621
C12   C     C_R   0.987255 0.452942 0.254122 -0.039261
H5    H     H_    0.484668 0.085418 0.276602 0.103240
H6    H     H_    0.474565 0.912591 0.260702 0.159710
H7    H     H_    0.003233 0.583571 0.300340 0.106271
H8    H     H_    0.975805 0.410818 0.258379 0.161774
N9    N     N_R   0.525490 0.028390 0.207550 -0.046515
N10   N     N_R   0.525490 0.971610 0.207550 -0.053617
N11   N     N_R   0.025490 0.528390 0.207550 -0.044127
N12   N     N_R   0.025490 0.471610 0.207550 -0.054344
C13   C     C_R   0.245328 0.953744 0.694082 0.001067
C14   C     C_R   0.247649 0.043595 0.690115 0.007341
C15   C     C_R   0.747227 0.454324 0.692169 0.035132
C16   C     C_R   0.748153 0.543990 0.690220 -0.003772
H9    H     H_    0.229698 0.912172 0.667652 0.199693
H10   H     H_    0.237738 0.083570 0.656497 0.186490
H11   H     H_    0.736122 0.413373 0.662403 0.193837
H12   H     H_    0.738429 0.584151 0.657442 0.181959
N13   N     N_R   0.317450 0.971190 0.792000 -0.069631
N14   N     N_R   0.317450 0.028810 0.792000 -0.071261
N15   N     N_R   0.817450 0.471190 0.792000 -0.071080
N16   N     N_R   0.817450 0.528810 0.792000 -0.072423
C17   C     C_R   0.322381 0.147045 0.002663 -0.095646
C18   C     C_R   0.381223 0.817948 0.001415 -0.123860
C19   C     C_R   0.816611 0.641494 0.002493 -0.097197
C20   C     C_R   0.878393 0.318672 0.002196 -0.120887
C21   C     C_R   0.448174 0.999544 0.272622 0.131895
C22   C     C_R   0.969661 0.496824 0.295226 0.096028
C23   C     C_R   0.203278 0.997927 0.629369 0.017174
C24   C     C_R   0.704620 0.498688 0.628209 0.022930
C25   C     C_R   0.442580 0.043622 0.691431 -0.044055
C26   C     C_R   0.444328 0.954437 0.692709 0.034854
C27   C     C_R   0.941774 0.543436 0.690865 -0.074676
C28   C     C_R   0.942278 0.454126 0.693434 0.022891
H13   H     H_    0.419001 0.083903 0.660989 0.208740
H14   H     H_    0.424672 0.913282 0.664247 0.198546
H15   H     H_    0.918519 0.583573 0.658302 0.189031
H16   H     H_    0.918976 0.413279 0.665913 0.172739
N17   N     N_R   0.473900 0.028390 0.792280 -0.072274
N18   N     N_R   0.473900 0.971610 0.792280 -0.066810
N19   N     N_R   0.973900 0.528390 0.792280 -0.063063
N20   N     N_R   0.973900 0.471610 0.792280 -0.066955
C29   C     C_R   0.770293 0.953703 0.262239 -0.120548
C30   C     C_R   0.771701 0.044975 0.271059 -0.068812
C31   C     C_R   0.270407 0.453725 0.263867 -0.111846
C32   C     C_R   0.271584 0.545069 0.271852 -0.068338
H17   H     H_    0.792247 0.911883 0.277268 0.153251
H18   H     H_    0.796414 0.085408 0.301186 0.119075
H19   H     H_    0.292430 0.411924 0.279509 0.156024
H20   H     H_    0.295964 0.585606 0.301460 0.126572
N21   N     N_R   0.682310 0.971180 0.208170 -0.051769
N22   N     N_R   0.682310 0.028820 0.208170 -0.055499
N23   N     N_R   0.182310 0.471180 0.208170 -0.051830
N24   N     N_R   0.182310 0.528820 0.208170 -0.056691
C33   C     C_R   0.685244 0.130140 0.093772 -0.142550
C34   C     C_R   0.649425 0.849592 0.094224 -0.151125
C35   C     C_R   0.183980 0.631374 0.093235 -0.136827
C36   C     C_R   0.151338 0.350247 0.094197 -0.147930
H21   H     H_    0.733058 0.144186 0.176916 0.128219
H22   H     H_    0.685387 0.837234 0.178355 0.167129
H23   H     H_    0.232536 0.644684 0.176801 0.133609
H24   H     H_    0.186541 0.337442 0.177998 0.164442
N25   N     N_R   0.606470 0.103570 0.057210 -0.067696
N26   N     N_R   0.606470 0.896430 0.057210 -0.066492
N27   N     N_R   0.106470 0.603570 0.057210 -0.068256
N28   N     N_R   0.106470 0.396430 0.057210 -0.067155
C37   C     C_R   0.564450 0.849723 0.910963 0.391979
C38   C     C_R   0.597230 0.127123 0.910229 0.350613
C39   C     C_R   0.066766 0.350643 0.911460 0.354244
C40   C     C_R   0.094386 0.629297 0.908926 0.360552
N29   N     N_R   0.549740 0.896000 0.943240 -0.087632
N30   N     N_R   0.549740 0.104000 0.943240 -0.088971
N31   N     N_R   0.049740 0.396000 0.943240 -0.094584
N32   N     N_R   0.049740 0.604000 0.943240 -0.087003
Ni1   Ni    Ni4+2 0.433780 0.065390 0.868430 0.301159
Ni2   Ni    Ni4+2 0.433780 0.934610 0.868430 0.298592
Ni3   Ni    Ni4+2 0.933780 0.565390 0.868430 0.300520
Ni4   Ni    Ni4+2 0.933780 0.434610 0.868430 0.290524
Ni5   Ni    Ni4+2 0.565800 0.934190 0.131570 0.226730
Ni6   Ni    Ni4+2 0.565800 0.065810 0.131570 0.231166
Ni7   Ni    Ni4+2 0.065800 0.434190 0.131570 0.233650
Ni8   Ni    Ni4+2 0.065800 0.565810 0.131570 0.233235
C41   C     C_R   0.426321 0.998577 0.628086 -0.027283
C42   C     C_R   0.923990 0.497917 0.628624 0.024272
C43   C     C_R   0.826292 0.999263 0.299541 0.134934
C44   C     C_R   0.326305 0.499328 0.301634 0.135529
C45   C     C_R   0.684323 0.143830 0.003977 -0.098307
C46   C     C_R   0.627528 0.819655 0.005595 -0.163796
C47   C     C_R   0.181112 0.646518 0.002624 -0.113450
C48   C     C_R   0.129838 0.320683 0.005188 -0.155327
C49   C     C_3   0.052576 0.952474 0.447961 0.326776
C50   C     C_3   0.031407 0.001330 0.549478 0.361969
C51   C     C_3   0.553122 0.453689 0.447341 0.334244
C52   C     C_3   0.532574 0.500857 0.551326 0.355985
C53   C     C_3   0.976459 0.955188 0.468025 -0.328907
C54   C     C_3   0.477829 0.454960 0.468933 -0.316990
H25   H     H_    0.942606 0.920632 0.479445 0.207637
H26   H     H_    0.444970 0.419742 0.480067 0.214195
C55   C     C_3   0.927150 0.998613 0.377894 -0.004560
C56   C     C_3   0.427129 0.498815 0.379907 -0.026672
C57   C     C_3   0.001570 0.994466 0.354870 -0.099417
C58   C     C_3   0.981380 0.044836 0.461303 -0.153217
C59   C     C_3   0.500696 0.496177 0.355424 -0.078113
C60   C     C_3   0.481005 0.544710 0.464166 -0.161296
C61   C     C_3   0.058284 0.040534 0.441163 -0.082894
C62   C     C_3   0.557084 0.541914 0.442601 -0.062988
C63   C     C_3   0.108395 0.997442 0.531636 -0.150122
C64   C     C_3   0.608788 0.498347 0.531933 -0.137820
H27   H     H_    0.986269 0.990919 0.272232 0.190303
H28   H     H_    0.951939 0.082885 0.468622 0.181256
H29   H     H_    0.484625 0.493544 0.272304 0.193843
H30   H     H_    0.450930 0.582159 0.472643 0.187176
H31   H     H_    0.093958 0.074891 0.432163 0.218973
H32   H     H_    0.591143 0.577278 0.433891 0.216851
C65   C     C_3   0.390496 0.746148 0.125175 -0.489033
C66   C     C_3   0.286743 0.193986 0.122725 -0.448732
C67   C     C_3   0.892782 0.244283 0.125011 -0.479460
C68   C     C_3   0.774426 0.687454 0.118997 -0.457053
H33   H     H_    0.463900 0.735276 0.156490 0.202355
H34   H     H_    0.361944 0.193481 0.193534 0.193928
H35   H     H_    0.965402 0.234282 0.152198 0.204621
H36   H     H_    0.848173 0.683957 0.192765 0.190081
H37   H     H_    0.395473 0.776916 0.182626 0.189247
H38   H     H_    0.253885 0.158305 0.133035 0.176840
H39   H     H_    0.899761 0.273614 0.185769 0.186051
H40   H     H_    0.735880 0.652425 0.121591 0.171311
C69   C     C_3   0.840911 0.193565 0.123920 0.270483
C70   C     C_3   0.733700 0.741005 0.127998 0.226405
C71   C     C_3   0.336601 0.696848 0.124671 0.269638
C72   C     C_3   0.243769 0.246471 0.130203 0.220161
H41   H     H_    0.321189 0.707038 0.184619 0.078663
H42   H     H_    0.197419 0.235220 0.155272 0.089943
H43   H     H_    0.829498 0.201362 0.188028 0.072793
H44   H     H_    0.682571 0.730384 0.146375 0.082067
H45   H     H_    0.895391 0.208025 0.962191 0.207359
H46   H     H_    0.879691 0.744782 0.074924 0.225838
H47   H     H_    0.400503 0.705644 0.970283 0.198483
H48   H     H_    0.378078 0.251944 0.057873 0.222453
H49   H     H_    0.783076 0.141055 0.915161 0.219517
H50   H     H_    0.788791 0.822119 0.028114 0.217120
H51   H     H_    0.288053 0.639157 0.924925 0.217523
H52   H     H_    0.283209 0.326377 0.014946 0.215440
C73   C     C_3   0.825208 0.225747 0.929330 -0.411346
C74   C     C_3   0.806849 0.738571 0.999257 -0.409454
C75   C     C_3   0.329632 0.723602 0.932836 -0.397085
C76   C     C_3   0.303766 0.243343 0.987471 -0.388878
C77   C     C_3   0.237440 0.788694 0.971139 -0.334846
C78   C     C_3   0.161166 0.183522 0.919937 -0.320565
C79   C     C_3   0.737228 0.287676 0.978224 -0.323368
C80   C     C_3   0.656355 0.683421 0.913307 -0.306226
C81   C     C_3   0.336210 0.769725 0.006808 0.295934
C82   C     C_3   0.269157 0.190552 0.007884 0.264037
C83   C     C_3   0.834709 0.269939 0.008167 0.279516
C84   C     C_3   0.763857 0.686052 0.008089 0.267040
H53   H     H_    0.194155 0.803422 0.885125 0.229767
H54   H     H_    0.142331 0.189996 0.836817 0.244718
H55   H     H_    0.690845 0.301930 0.892327 0.236041
H56   H     H_    0.643383 0.692896 0.833896 0.245253
H57   H     H_    0.244657 0.822977 0.023928 0.206530
H58   H     H_    0.136928 0.142615 0.924032 0.210783
H59   H     H_    0.745541 0.321518 0.032399 0.213294
H60   H     H_    0.626408 0.642904 0.908347 0.209803
C85   C     C_3   0.742827 0.187920 0.008423 0.150744
C86   C     C_3   0.677522 0.770227 0.012739 0.178764
C87   C     C_3   0.240957 0.689672 0.007051 0.152115
C88   C     C_3   0.179972 0.272349 0.011890 0.179877
C89   C     C_3   0.758093 0.182064 0.916795 -0.280450
C90   C     C_3   0.745067 0.785989 0.981892 -0.268292
C91   C     C_3   0.261470 0.680537 0.920532 -0.287890
C92   C     C_3   0.240569 0.289407 0.972209 -0.291695
C93   C     C_3   0.687693 0.240663 0.989005 -0.471756
C94   C     C_3   0.604416 0.727613 0.929343 -0.489270
C95   C     C_3   0.184872 0.742808 0.979868 -0.455499
C96   C     C_3   0.108525 0.227337 0.935410 -0.473058
H61   H     H_    0.175354 0.752277 0.045177 0.196469
H62   H     H_    0.074855 0.209479 0.972266 0.186197
H63   H     H_    0.683179 0.248398 0.058736 0.197579
H64   H     H_    0.566240 0.709370 0.960350 0.182545
H65   H     H_    0.613973 0.238268 0.913301 0.235229
H66   H     H_    0.549088 0.744878 0.848339 0.247063
H67   H     H_    0.113175 0.740050 0.901208 0.235941
H68   H     H_    0.050112 0.241811 0.853288 0.245098
H69   H     H_    0.797828 0.241255 0.846948 0.223958
H70   H     H_    0.812774 0.736798 0.929620 0.203583
H71   H     H_    0.305104 0.737022 0.850072 0.221604
H72   H     H_    0.302748 0.240503 0.913025 0.207731
H73   H     H_    0.691651 0.190169 0.835682 0.235792
H74   H     H_    0.704373 0.795475 0.893398 0.229752
H75   H     H_    0.196761 0.686474 0.837097 0.237473
H76   H     H_    0.194641 0.298955 0.883440 0.228370
C97   C     C_3   0.402501 0.056601 0.476412 0.181048
C98   C     C_3   0.517457 0.976037 0.557469 0.220863
C99   C     C_3   0.865152 0.539643 0.447083 0.178878
C100  C     C_3   0.034364 0.509632 0.582003 0.209828
H77   H     H_    0.459821 0.083732 0.539992 0.165823
H78   H     H_    0.576444 0.997317 0.632594 0.138657
H79   H     H_    0.889546 0.580716 0.483961 0.130593
H80   H     H_    0.053177 0.550245 0.621425 0.155566
C101  C     C_3   0.405947 0.056862 0.376911 -0.489038
C102  C     C_3   0.527058 0.985406 0.465328 -0.507337
C103  C     C_3   0.873236 0.535159 0.350654 -0.461663
C104  C     C_3   0.045059 0.511950 0.488753 -0.486903
H81   H     H_    0.460805 0.087076 0.397085 0.169891
H82   H     H_    0.577732 0.019322 0.489069 0.177905
H83   H     H_    0.888834 0.576080 0.334523 0.164112
H84   H     H_    0.063286 0.554243 0.482477 0.172859
H85   H     H_    0.339217 0.071751 0.301396 0.243780
H86   H     H_    0.560207 0.950068 0.454756 0.232260
H87   H     H_    0.805047 0.522412 0.273810 0.253412
H88   H     H_    0.105045 0.486612 0.507155 0.251225
H89   H     H_    0.270319 0.977412 0.404691 0.239803
H90   H     H_    0.343578 0.920771 0.464125 0.237647
H91   H     H_    0.824707 0.432519 0.438986 0.251453
H92   H     H_    0.938084 0.406877 0.538495 0.234860
C105  C     C_3   0.340187 0.961723 0.432034 -0.358598
C106  C     C_3   0.900747 0.439830 0.478091 -0.366098
C107  C     C_3   0.419971 0.998027 0.524855 -0.009825
C108  C     C_3   0.929588 0.496317 0.535168 0.009145
C109  C     C_3   0.430189 0.999218 0.357805 0.076787
C110  C     C_3   0.951996 0.494074 0.379147 0.076163
C111  C     C_3   0.348295 0.959282 0.333868 0.571166
C112  C     C_3   0.923023 0.435806 0.393714 0.518702
N33   N     N_R   0.247761 0.147699 0.798595 0.194035
O1    O     O_R   0.278590 0.176129 0.753198 -0.368441
O2    O     O_R   0.162692 0.127823 0.737334 -0.400506
N34   N     N_R   0.302225 0.829657 0.798497 0.199646
O3    O     O_R   0.212607 0.818255 0.738340 -0.375728
O4    O     O_R   0.345796 0.831654 0.752569 -0.401597
N35   N     N_R   0.743985 0.644654 0.799131 0.193360
O5    O     O_R   0.772336 0.675368 0.753823 -0.373906
O6    O     O_R   0.659138 0.624416 0.738922 -0.401893
N36   N     N_R   0.766765 0.338925 0.799073 0.197255
O7    O     O_R   0.686036 0.360774 0.763104 -0.365048
O8    O     O_R   0.777029 0.315087 0.729708 -0.345868
N37   N     N_R   0.093846 0.902883 0.441698 0.254705
O9    O     O_R   0.066513 0.856159 0.453054 -0.274235
O10   O     O_R   0.158457 0.905187 0.424963 -0.373328
N38   N     N_R   0.047526 0.004624 0.656174 0.259226
O11   O     O_R   0.016407 0.045790 0.679899 -0.334255
O12   O     O_R   0.086311 0.964390 0.724426 -0.356255
N39   N     N_R   0.594717 0.404787 0.439042 0.256314
O13   O     O_R   0.568731 0.357539 0.450158 -0.271757
O14   O     O_R   0.658467 0.408226 0.421055 -0.343705
N40   N     N_R   0.549220 0.503460 0.658357 0.261318
O15   O     O_R   0.515436 0.543340 0.681639 -0.335696
O16   O     O_R   0.590205 0.463511 0.726871 -0.320549
N41   N     N_R   0.898876 0.144721 0.155059 0.251336
O17   O     O_R   0.935767 0.130788 0.104623 -0.377794
O18   O     O_R   0.919397 0.116787 0.239584 -0.424274
N42   N     N_R   0.809591 0.773644 0.220883 0.234071
O19   O     O_R   0.879220 0.792550 0.221817 -0.367694
O20   O     O_R   0.815965 0.775862 0.311477 -0.368994
N43   N     N_R   0.395100 0.647907 0.163211 0.248879
O21   O     O_R   0.434341 0.631048 0.117091 -0.383302
O22   O     O_R   0.415862 0.623902 0.251648 -0.430937
N44   N     N_R   0.319254 0.282065 0.216613 0.235401
O23   O     O_R   0.384396 0.301463 0.209553 -0.368287
O24   O     O_R   0.331443 0.285908 0.310509 -0.357588
Br1   Br    Br    0.283033 0.088752 0.433904 -0.490751
Br2   Br    Br    0.537568 0.898314 0.587382 -0.362641
Br3   Br    Br    0.733519 0.534591 0.393800 -0.507735
Br4   Br    Br    0.128857 0.461039 0.697936 -0.399949
Br5   Br    Br    0.227808 0.979994 0.197930 -0.426254
Br6   Br    Br    0.361641 0.883048 0.309961 -0.487982
Br7   Br    Br    0.811202 0.407179 0.255449 -0.499201
Br8   Br    Br    0.023455 0.380821 0.450605 -0.442246
N45   N     N_R   0.562879 0.848373 0.815828 0.208672
O25   O     O_R   0.498851 0.821125 0.728707 -0.339551
O26   O     O_R   0.622068 0.879220 0.814248 -0.380389
N46   N     N_R   0.554159 0.144325 0.799899 0.195384
O27   O     O_R   0.580097 0.122897 0.742534 -0.464962
O28   O     O_R   0.479563 0.174784 0.751458 -0.361433
N47   N     N_R   0.020603 0.335373 0.799102 0.195256
O29   O     O_R   0.935274 0.316147 0.742786 -0.372456
O30   O     O_R   0.057287 0.348607 0.748229 -0.370470
N48   N     N_R   0.046802 0.649677 0.799684 0.198569
O31   O     O_R   0.068577 0.631541 0.736137 -0.463805
O32   O     O_R   0.968719 0.676464 0.756326 -0.369711

loop_
_geom_bond_atom_site_label_1
_geom_bond_atom_site_label_2
_geom_bond_distance
_ccdc_geom_bond_type
C27   H15   1.076776 S    
C80   C94   1.530768 S    
C14   N14   1.332055 A    
C35   N27   1.320321 A    
N3    Ni3   1.896166 S    
C78   H54   1.101586 S    
C79   H59   1.114204 S    
C53   H25   1.110390 S    
N16   Ni3   1.878756 S    
C95   H67   1.109888 S    
N32   Ni3   1.899473 S    
C101  H81   1.108922 S    
C93   H65   1.111941 S    
N21   N22   1.425103 A    
C5    H1    1.080505 S    
N36   O8    1.299283 A    
C98   C102  1.510973 S    
C7    H3    1.080396 S    
C8    H4    1.071679 S    
N42   O19   1.300401 A    
C66   C82   1.568375 S    
C110  C112  1.585596 S    
C76   H72   1.112060 S    
C96   H68   1.102558 S    
C19   C84   1.473704 S    
C36   H24   1.075367 S    
C20   C83   1.458720 S    
N21   Ni5   1.885838 S    
N28   N31   1.385306 A    
C5    C18   1.370588 A    
N33   O1    1.300838 A    
N23   Ni7   1.885836 S    
C7    C20   1.368230 A    
C8    C19   1.385788 A    
C104  H84   1.113663 S    
N34   O4    1.299646 A    
C106  C108  1.556557 S    
N39   O13   1.300313 A    
N14   Ni1   1.878756 S    
C70   N42   1.474489 S    
N1    N6    1.399804 A    
N30   Ni1   1.899473 S    
C45   C85   1.470917 S    
C93   H63   1.114127 S    
C9    N9    1.325682 A    
H90   C105  1.109634 S    
C11   N11   1.331746 A    
C86   C90   1.556531 S    
N23   N24   1.425103 A    
C100  C104  1.523065 S    
C65   C81   1.557799 S    
C34   H22   1.074767 S    
C32   H20   1.075915 S    
C51   C54   1.536263 S    
C8    N8    1.315990 A    
C28   C42   1.365549 A    
C58   C61   1.551876 S    
H49   C89   1.111035 S    
N41   O18   1.300223 A    
N15   N16   1.424611 A    
C6    H2    1.073434 S    
C16   N16   1.331745 A    
N48   O31   1.300367 A    
N2    Ni2   1.898847 S    
H50   C90   1.111711 S    
C78   C82   1.553588 S    
N39   O14   1.300041 A    
C26   C41   1.371697 A    
C21   C109  1.490338 S    
C40   C47   1.396414 A    
C75   C91   1.527849 S    
C76   C92   1.511333 S    
N46   O28   1.300970 A    
C69   H43   1.111451 S    
C13   N13   1.324670 A    
C36   N28   1.312465 A    
C1    N33   1.427680 S    
C30   H18   1.075836 S    
C6    N6    1.307411 A    
H47   C75   1.112638 S    
N9    Ni6   1.903745 S    
H48   C76   1.112234 S    
C90   H74   1.104185 S    
C54   H26   1.110357 S    
C55   C57   1.539872 S    
C111  Br6   1.957828 S    
C52   C64   1.529556 S    
C60   H30   1.109931 S    
N37   O10   1.299985 A    
C73   H69   1.102625 S    
C91   H75   1.098886 S    
C4    N36   1.429214 S    
C30   C43   1.378394 A    
C79   C93   1.516254 S    
C9    C21   1.391328 A    
C23   C63   1.430963 S    
C77   C95   1.515783 S    
C101  C109  1.561436 S    
C76   C82   1.545339 S    
C14   C23   1.367181 A    
C3    N35   1.426735 S    
C52   N40   1.459023 S    
C103  H83   1.112175 S    
C30   N22   1.327362 A    
C40   N32   1.323095 A    
C58   H28   1.109835 S    
N37   O9    1.300302 A    
N6    Ni6   1.891966 S    
C92   H76   1.105655 S    
N19   Ni3   1.895661 S    
C25   N17   1.329527 A    
C94   H64   1.113525 S    
C52   C54   1.527166 S    
C27   N19   1.332246 A    
C28   N20   1.315191 A    
C15   N15   1.327105 A    
C16   C24   1.363803 A    
C71   H41   1.112432 S    
C33   N25   1.320849 A    
C78   H58   1.112731 S    
C79   H55   1.104649 S    
C77   H53   1.108616 S    
C12   C22   1.370094 A    
N4    N7    1.399899 A    
C100  C108  1.567093 S    
C98   H78   1.114246 S    
H45   C73   1.112636 S    
C37   C46   1.398275 A    
C39   C48   1.389339 A    
C61   C63   1.536566 S    
N9    N10   1.403837 A    
N26   N29   1.385306 A    
C57   C61   1.561564 S    
N11   N12   1.403837 A    
C6    C17   1.380482 A    
N45   O25   1.300356 A    
C41   C107  1.490733 S    
C33   C45   1.385111 A    
N40   O16   1.299666 A    
C49   C53   1.535253 S    
C37   N45   1.416113 S    
N1    Ni1   1.896166 S    
C112  Br8   1.980072 S    
H91   C106  1.110295 S    
C31   N23   1.324655 A    
N2    N5    1.399899 A    
C9    H5    1.067818 S    
C46   C86   1.472014 S    
C60   C62   1.550816 S    
C10   N10   1.324198 A    
C86   C94   1.556046 S    
C12   H8    1.069746 S    
N38   O11   1.300321 A    
C70   C86   1.579589 S    
C85   C89   1.558694 S    
C32   N24   1.326745 A    
N22   Ni6   1.891331 S    
C88   C92   1.554379 S    
N11   Ni8   1.903745 S    
C56   C59   1.539188 S    
N4    Ni4   1.898847 S    
C78   C96   1.528377 S    
N47   O30   1.300315 A    
C1    C17   1.400938 A    
C66   H38   1.113739 S    
C3    C19   1.405193 A    
N44   O24   1.301740 A    
C37   N29   1.325492 A    
N17   N18   1.403837 A    
C50   C53   1.526074 S    
C39   N31   1.319728 A    
N19   N20   1.403837 A    
C25   C41   1.379356 A    
C102  H86   1.112063 S    
N42   O20   1.301684 A    
C77   C81   1.555423 S    
N44   O23   1.300532 A    
H51   C91   1.110795 S    
C38   C45   1.396134 A    
H52   C92   1.111959 S    
C71   N43   1.469473 S    
C29   C43   1.375900 A    
N25   Ni6   1.892502 S    
C80   C84   1.556848 S    
C95   H61   1.114184 S    
C51   C64   1.521976 S    
N24   Ni8   1.891332 S    
C69   C85   1.572579 S    
N13   N14   1.424611 A    
N43   O21   1.301135 A    
C72   C88   1.578152 S    
N35   O5    1.300822 A    
C97   Br1   1.965382 S    
C71   C87   1.573360 S    
C7    N7    1.316874 A    
C49   N37   1.455554 S    
C1    N1    1.325829 A    
C100  Br4   1.960159 S    
C65   H37   1.113874 S    
C61   H31   1.109857 S    
C3    N3    1.330577 A    
C62   H32   1.109598 S    
C4    C20   1.391047 A    
C31   C44   1.375820 A    
C94   H66   1.104154 S    
C2    N34   1.428716 S    
C97   C101  1.534120 S    
C38   N46   1.426200 S    
C73   C89   1.524444 S    
C75   C81   1.547103 S    
C80   H56   1.102777 S    
C42   C108  1.467154 S    
N41   O17   1.301166 A    
N48   O32   1.300968 A    
C102  C109  1.544465 S    
C103  H87   1.110659 S    
C38   N30   1.325904 A    
C105  C111  1.566687 S    
C27   C42   1.374541 A    
C100  H80   1.110811 S    
N15   Ni4   1.884200 S    
C96   H62   1.113431 S    
C66   H34   1.104089 S    
C85   C93   1.547192 S    
N47   O29   1.298549 A    
C25   H13   1.073806 S    
N31   Ni4   1.905072 S    
C11   C22   1.395875 A    
C26   N18   1.331767 A    
C66   C72   1.538471 S    
C67   C69   1.543253 S    
C13   H9    1.076169 S    
C28   H16   1.074940 S    
C40   N48   1.428620 S    
C15   H11   1.075919 S    
N36   O7    1.300541 A    
C99   H79   1.112600 S    
C49   C57   1.540699 S    
C33   H21   1.071808 S    
N12   Ni7   1.901005 S    
C77   H57   1.114739 S    
C72   N44   1.476219 S    
C111  Br5   1.955899 S    
N33   O2    1.301132 A    
C50   C63   1.528368 S    
C43   C55   1.436172 S    
N34   O3    1.300468 A    
H46   C74   1.111846 S    
C10   C21   1.394215 A    
C65   H33   1.113412 S    
C57   H27   1.110000 S    
N17   Ni1   1.895661 S    
C68   H36   1.105119 S    
C62   C64   1.537289 S    
C13   C23   1.359032 A    
C47   C87   1.470045 S    
H89   C105  1.109278 S    
C98   C107  1.574015 S    
C69   N41   1.468603 S    
C89   H73   1.101448 S    
C17   C82   1.457485 S    
C35   H23   1.071883 S    
C104  C110  1.549301 S    
C29   H17   1.080840 S    
N10   Ni5   1.901005 S    
C39   N47   1.427559 S    
H92   C106  1.105746 S    
C31   H19   1.080730 S    
N27   Ni8   1.892502 S    
N20   Ni4   1.898389 S    
N3    N8    1.399804 A    
C10   H6    1.070877 S    
C101  H85   1.110104 S    
C15   C24   1.359447 A    
C99   C108  1.557830 S    
C74   H70   1.113404 S    
C50   N38   1.459031 S    
C67   C83   1.558133 S    
C4    N4    1.327214 A    
C68   H40   1.113354 S    
C12   N12   1.308131 A    
C2    C18   1.392931 A    
C67   H39   1.113883 S    
C49   C63   1.521718 S    
N46   O27   1.301885 A    
N43   O22   1.299976 A    
C104  H88   1.111893 S    
C54   C56   1.538625 S    
N35   O6    1.301251 A    
C102  H82   1.115217 S    
C103  C110  1.559878 S    
C106  C112  1.536492 S    
C29   N21   1.324790 A    
N5    Ni5   1.886427 S    
C55   C58   1.538625 S    
C53   C55   1.538825 S    
N18   Ni2   1.898389 S    
N7    Ni7   1.886427 S    
C59   C62   1.560933 S    
C11   H7    1.076866 S    
C87   C91   1.558179 S    
C68   C84   1.567335 S    
C50   C58   1.524939 S    
C34   N26   1.315372 A    
C98   Br2   1.959411 S    
C52   C60   1.525099 S    
C36   C48   1.366902 A    
C2    N2    1.324405 A    
C67   H35   1.113318 S    
C18   C81   1.458335 S    
C16   H12   1.078200 S    
N38   O12   1.300375 A    
C97   H77   1.112145 S    
C79   C83   1.554489 S    
C109  C111  1.598479 S    
C75   H71   1.103348 S    
C56   C60   1.537649 S    
N25   N30   1.385404 A    
C80   H60   1.112455 S    
N27   N32   1.385404 A    
C34   C46   1.365102 A    
C51   N39   1.455687 S    
C5    N5    1.313964 A    
C72   H42   1.115373 S    
C105  C107  1.549301 S    
C99   Br3   1.952079 S    
C68   C70   1.548397 S    
N28   Ni7   1.889802 S    
C26   H14   1.077100 S    
C59   H29   1.109999 S    
C87   C95   1.547049 S    
C14   H10   1.078298 S    
C44   C56   1.435557 S    
C97   C107  1.570570 S    
C99   C103  1.543024 S    
C48   C88   1.452901 S    
N8    Ni8   1.891966 S    
C73   C83   1.545250 S    
C74   C84   1.546183 S    
C51   C59   1.540616 S    
C35   C47   1.387417 A    
C24   C64   1.433159 S    
C22   C110  1.469302 S    
N45   O26   1.299734 A    
C74   C90   1.512945 S    
N40   O15   1.300353 A    
C88   C96   1.556475 S    
C112  Br7   1.963114 S    
N13   Ni2   1.884200 S    
C65   C71   1.539432 S    
C70   H44   1.115242 S    
C32   C44   1.378400 A    
N26   Ni5   1.889802 S    
N29   Ni2   1.905072 S    
