data_mof_unit_9886.cif
_audit_creation_date              2013-03-05T16:43:42-0500
_audit_creation_method            fapswitch 2.2
_symmetry_space_group_name_H-M    P1
_symmetry_Int_Tables_number       1
_space_group_crystal_system       triclinic
_cell_length_a                    15.700613
_cell_length_b                    10.721343
_cell_length_c                    9.89029
_cell_angle_alpha                 89.0765
_cell_angle_beta                  91.902452
_cell_angle_gamma                 90.337324
_cell_volume                      1663.69123774

loop_
_atom_site_label
_atom_site_type_symbol
_atom_site_description
_atom_site_fract_x
_atom_site_fract_y
_atom_site_fract_z
_atom_type_partial_charge
O1    O     O_R   0.500010 0.316790 0.614690 -0.603264
O2    O     O_R   0.500000 0.316760 0.385350 -0.607116
C1    C     C_R   0.507476 0.260886 0.501523 0.935250
O3    O     O_R   0.376780 0.500010 0.614650 -0.616411
O4    O     O_R   0.376770 0.499970 0.385310 -0.581045
C2    C     C_R   0.337924 0.499638 0.497927 0.901513
Zn1   Zn    Zn3+2 0.500010 0.500020 0.653130 0.949596
Zn2   Zn    Zn3+2 0.499990 0.499980 0.346870 0.977808
O5    O     O_R   0.500000 0.683240 0.614650 -0.619226
O6    O     O_R   0.499990 0.683210 0.385310 -0.563261
O7    O     O_R   0.623230 0.500030 0.614690 -0.618403
O8    O     O_R   0.623220 0.499990 0.385350 -0.625629
C3    C     C_R   0.504064 0.739710 0.499365 0.928239
C4    C     C_R   0.661968 0.500856 0.502076 0.859944
C5    C     C_3   0.973240 0.394090 0.566868 -0.300856
C6    C     C_3   0.022838 0.396837 0.434536 0.474262
H1    H     H_    0.949293 0.310822 0.622229 0.155216
C7    C     C_1   0.248893 0.498454 0.493286 -0.157307
C8    C     C_1   0.750780 0.500606 0.506650 -0.190530
C9    C     C_3   0.033696 0.496207 0.626558 -0.223269
C10   C     C_3   0.082596 0.497461 0.493817 -0.002883
C11   C     C_3   0.974961 0.601132 0.566642 -0.234769
C12   C     C_3   0.916693 0.499138 0.505211 0.032097
C13   C     C_3   0.024545 0.600588 0.435065 0.117996
C14   C     C_3   0.966035 0.500582 0.373448 0.476991
C15   C     C_1   0.173502 0.497575 0.491560 -0.006607
C16   C     C_1   0.826036 0.500035 0.507972 0.007263
H2    H     H_    0.952949 0.684419 0.620554 0.155447
H3    H     H_    0.063890 0.494437 0.729691 0.163633
C17   C     C_R   0.492108 0.062343 0.615515 -0.076117
C18   C     C_R   0.522106 0.129510 0.505329 -0.188817
C19   C     C_R   0.555715 0.067500 0.393613 0.111143
C20   C     C_R   0.550566 0.936936 0.390014 0.447783
C21   C     C_R   0.514086 0.871738 0.499305 -0.247906
C22   C     C_R   0.487579 0.935363 0.611590 -0.159120
C23   C     C_3   0.512429 0.920257 0.759740 0.302446
C24   C     C_3   0.521545 0.064176 0.762417 0.942563
C25   C     C_R   0.425391 0.502243 0.066919 0.195553
N1    N     N_R   0.499430 0.499140 0.142800 -0.152813
C26   C     C_R   0.573539 0.513350 0.077080 -0.165934
H4    H     H_    0.631765 0.524270 0.136626 0.189160
C27   C     C_R   0.574500 0.514617 0.932971 0.197582
N2    N     N_R   0.499430 0.499180 0.857150 -0.139480
C28   C     C_R   0.425299 0.502676 0.925049 0.092255
C29   C     C_3   0.353200 0.411770 0.916810 -0.550337
C30   C     C_3   0.354081 0.410232 0.071264 0.324742
H5    H     H_    0.294920 0.454256 0.869105 0.224994
H6    H     H_    0.371483 0.321717 0.873036 0.232387
H7    H     H_    0.374285 0.320580 0.121082 0.075736
O9    O     O_3   0.054531 0.293558 0.365724 -0.627000
C31   C     C_3   0.989006 0.204523 0.347198 -0.352117
H8    H     H_    0.930314 0.246130 0.299529 0.185490
H9    H     H_    0.974246 0.157823 0.444843 0.172053
H10   H     H_    0.011393 0.131807 0.278427 0.189340
N3    N     N_2   0.593548 0.855160 0.782810 -0.311219
H11   H     H_    0.638793 0.873707 0.711694 0.233998
C32   C     C_3   0.629089 0.852176 0.920254 -0.795236
H12   H     H_    0.688868 0.797488 0.924428 0.227610
H13   H     H_    0.583984 0.807673 0.990550 0.265614
H14   H     H_    0.645615 0.947229 0.955035 0.264679
O10   O     O_3   0.461599 0.129895 0.839303 -0.659431
C33   C     C_3   0.468318 0.102329 0.979638 -0.370107
H15   H     H_    0.487067 0.188212 0.034366 0.170750
H16   H     H_    0.514230 0.027702 0.008451 0.191975
H17   H     H_    0.404774 0.073319 0.014966 0.207178
O11   O     O_3   0.608614 0.104313 0.771854 -0.679478
C34   C     C_3   0.623872 0.212325 0.848103 -0.240884
H18   H     H_    0.684238 0.255298 0.814922 0.191478
H19   H     H_    0.632601 0.187525 0.956972 0.141905
H20   H     H_    0.573652 0.283020 0.832593 0.235217
N4    N     N_2   0.652503 0.535109 0.866569 -0.270049
H21   H     H_    0.653511 0.616885 0.810835 0.272068
C35   C     C_3   0.732872 0.506386 0.936068 -0.855604
H22   H     H_    0.749714 0.579945 0.010341 0.245895
H23   H     H_    0.783889 0.503058 0.861058 0.253157
H24   H     H_    0.729698 0.413897 0.988059 0.244087
O12   O     O_3   0.281013 0.466172 0.122832 -0.577788
C36   C     C_3   0.219842 0.373128 0.149286 -0.248055
H25   H     H_    0.243146 0.307767 0.230683 0.175308
H26   H     H_    0.201470 0.321289 0.056085 0.146983
H27   H     H_    0.162007 0.418787 0.185656 0.204949
O13   O     O_3   0.921851 0.504958 0.246743 -0.620855
C37   C     C_3   0.979933 0.495872 0.141974 -0.341347
H28   H     H_    0.005713 0.399977 0.137234 0.191524
H29   H     H_    0.032621 0.565207 0.151512 0.191483
H30   H     H_    0.945391 0.515379 0.044327 0.190814
N5    N     N_2   0.055897 0.710896 0.366131 -0.298965
H31   H     H_    0.107110 0.751614 0.416621 0.236801
C38   C     C_3   0.991148 0.799984 0.324006 -0.788165
H32   H     H_    0.020479 0.876043 0.263577 0.231293
H33   H     H_    0.961981 0.841150 0.413769 0.225803
H34   H     H_    0.940855 0.754681 0.259993 0.275784
N6    N     N_2   0.595640 0.135546 0.287355 -0.288147
H35   H     H_    0.598412 0.089546 0.197075 0.240342
C39   C     C_3   0.676365 0.193762 0.324709 -0.739120
H36   H     H_    0.726285 0.122108 0.342785 0.210677
H37   H     H_    0.671381 0.249242 0.417646 0.240792
H38   H     H_    0.696178 0.257168 0.241447 0.233130
O14   O     O_3   0.578806 0.874438 0.278568 -0.611800
C40   C     C_3   0.662489 0.831663 0.306705 -0.290283
H39   H     H_    0.681287 0.771098 0.222952 0.191618
H40   H     H_    0.667581 0.774853 0.401763 0.142320
H41   H     H_    0.708291 0.910685 0.311825 0.152467
N7    N     N_2   0.444129 0.865350 0.839865 -0.291152
H42   H     H_    0.455188 0.774184 0.869943 0.255504
C41   C     C_3   0.355755 0.883386 0.796321 -0.758168
H43   H     H_    0.313732 0.853448 0.879034 0.236451
H44   H     H_    0.340290 0.825891 0.706210 0.238956
H45   H     H_    0.342447 0.982790 0.771821 0.268973

loop_
_geom_bond_atom_site_label_1
_geom_bond_atom_site_label_2
_geom_bond_distance
_ccdc_geom_bond_type
C31   H9    1.111282 S    
N5    H31   1.030874 S    
N6    H35   1.029278 S    
C35   H22   1.111229 S    
C39   H36   1.108961 S    
C7    C15   1.183224 T    
N3    H11   1.032427 S    
N7    C41   1.452210 S    
C39   H38   1.110621 S    
O12   C36   1.408184 S    
Zn1   O7    1.983975 S    
C30   H7    1.115900 S    
C6    C10   1.536182 S    
C17   C22   1.363945 A    
C23   C24   1.549362 S    
C6    O9    1.410729 S    
O1    C1    1.287193 A    
O4    C2    1.287450 A    
O7    C4    1.286512 A    
C36   H26   1.112998 S    
C32   H13   1.109307 S    
C41   H43   1.110141 S    
C5    C6    1.544781 S    
Zn1   O5    1.994862 S    
C21   C22   1.389330 A    
O5    C3    1.285621 A    
C40   H39   1.109373 S    
C33   H16   1.107614 S    
C37   H28   1.109400 S    
Zn2   N1    2.018204 S    
C12   C16   1.424630 S    
C38   H33   1.111142 S    
C8    C16   1.181261 T    
C5    C12   1.543444 S    
C19   N6    1.429423 S    
N6    C39   1.448950 S    
C11   H2    1.110098 S    
C35   H23   1.110799 S    
O3    Zn1   1.959425 S    
N7    H42   1.031115 S    
C10   C15   1.428190 S    
O9    C31   1.408800 S    
C9    H3    1.110362 S    
C29   H5    1.112067 S    
C5    C9    1.555479 S    
C2    C7    1.397068 S    
C31   H8    1.113399 S    
C25   N1    1.362855 A    
C13   C14   1.528789 S    
O3    C2    1.287725 A    
N1    C26   1.358126 A    
N4    C35   1.449048 S    
C36   H25   1.112786 S    
C32   H14   1.107457 S    
C29   C30   1.527024 S    
C40   H41   1.108727 S    
C34   H18   1.108554 S    
C17   C24   1.510350 S    
C20   O14   1.385723 S    
C22   C23   1.510142 S    
N2    C28   1.363920 A    
C25   C28   1.403017 A    
C33   H15   1.108946 S    
C30   O12   1.411632 S    
O14   C40   1.411649 S    
Zn2   O8    1.959427 S    
C24   O11   1.431274 S    
C40   H40   1.112816 S    
C20   C21   1.413185 A    
C38   H34   1.110161 S    
C1    C18   1.428168 S    
C26   H4    1.077718 S    
C37   H29   1.111596 S    
C9    C11   1.556115 S    
Zn1   N2    2.018015 S    
N3    C32   1.452138 S    
C14   O13   1.412300 S    
C35   H24   1.111246 S    
C11   C13   1.538553 S    
C27   N2    1.386340 A    
C28   C29   1.490433 S    
C29   H6    1.107698 S    
C6    C14   1.533565 S    
C5    H1    1.110010 S    
C33   H17   1.109140 S    
O1    Zn1   2.006929 S    
C4    C8    1.393652 S    
C18   C19   1.416963 A    
O2    Zn2   1.994859 S    
O8    C4    1.287090 A    
O6    C3    1.288517 A    
O4    Zn2   1.983976 S    
C24   O10   1.425882 S    
C39   H37   1.108046 S    
C23   N7    1.469155 S    
C34   H20   1.102268 S    
C19   C20   1.402644 A    
C31   H10   1.109127 S    
N5    C38   1.445628 S    
O2    C1    1.289373 A    
N4    H21   1.028410 S    
C23   N3    1.465370 S    
C36   H27   1.107322 S    
C32   H12   1.108839 S    
C17   C18   1.390245 A    
C41   H44   1.111212 S    
C26   C27   1.425712 A    
C27   N4    1.423032 S    
O11   C34   1.407131 S    
C12   C14   1.537818 S    
O10   C33   1.415031 S    
C13   N5    1.447492 S    
C25   C30   1.489075 S    
C3    C21   1.423307 S    
C37   H30   1.109330 S    
C9    C10   1.542542 S    
Zn2   O6    2.006928 S    
O13   C37   1.407782 S    
C10   C13   1.531942 S    
C11   C12   1.540969 S    
C34   H19   1.109172 S    
C38   H32   1.110125 S    
C41   H45   1.108652 S    
