data_mof_unit_66212.cif
_audit_creation_date              2012-10-26T18:03:57-0400
_audit_creation_method            fapswitch 2.2
_symmetry_space_group_name_H-M    P1
_symmetry_Int_Tables_number       1
_space_group_crystal_system       triclinic
_cell_length_a                    38.792004
_cell_length_b                    32.240136
_cell_length_c                    21.572029
_cell_angle_alpha                 90.0
_cell_angle_beta                  56.201455
_cell_angle_gamma                 90.000027
_cell_volume                      22419.7293987

loop_
_atom_site_label
_atom_site_type_symbol
_atom_type_description
_atom_site_fract_x
_atom_site_fract_y
_atom_site_fract_z
_atom_type_partial_charge
C1    C     C_R   0.920396 0.499991 0.579515 0.562732
C2    C     C_3   0.001516 0.499789 0.687715 0.032778
C3    C     C_R   0.502752 0.228640 0.940885 -0.004501
C4    C     C_R   0.000000 0.706524 0.000000 0.009755
C5    C     C_R   0.500000 0.206526 0.000000 0.009777
C6    C     C_1   0.500000 0.338639 0.000000 -0.047113
C7    C     C_1   0.000000 0.838638 0.000000 -0.047109
C8    C     C_1   1.000000 0.661508 0.000000 -0.032351
C9    C     C_1   0.500000 0.161510 0.000000 -0.032304
C10   C     C_1   1.000000 0.624067 0.000000 -0.005464
C11   C     C_1   0.500000 0.124069 0.000000 -0.005444
C12   C     C_1   0.500000 0.624038 1.000000 -0.018356
C13   C     C_3   0.498487 0.999789 0.312282 0.032787
C14   C     C_1   0.000000 0.124038 1.000000 -0.018358
C15   C     C_1   0.500000 0.376092 0.000000 -0.014068
C16   C     C_1   0.000000 0.876090 0.000000 -0.014066
C17   C     C_R   0.515555 0.728166 0.035580 -0.103098
C18   C     C_R   0.484446 0.728166 0.964417 -0.103099
C19   C     C_R   0.017049 0.228166 0.033011 -0.103111
C20   C     C_R   0.982951 0.228166 0.966987 -0.103110
C21   C     C_R   0.500000 0.706297 0.999999 0.037863
C22   C     C_R   0.000000 0.206296 0.999999 0.037894
C23   C     C_R   0.000000 0.293474 0.999999 0.038812
C24   C     C_3   0.501516 0.999789 0.687715 0.032787
C25   C     C_R   0.500000 0.793474 0.999998 0.038879
C26   C     C_R   0.982952 0.271606 0.966985 -0.103828
C27   C     C_R   0.017048 0.271606 0.033013 -0.103829
C28   C     C_R   0.484447 0.771606 0.964415 -0.103803
C29   C     C_R   0.515554 0.771606 0.035581 -0.103803
C30   C     C_3   0.988458 0.543636 0.295704 -0.224281
C31   C     C_3   0.011623 0.543617 0.704211 -0.224303
C32   C     C_3   0.488399 0.043622 0.295765 -0.224313
C33   C     C_3   0.511643 0.043613 0.704191 -0.224322
C34   C     C_3   0.987595 0.542536 0.225183 -0.237643
C35   C     C_3   0.999686 0.498870 0.189502 0.027872
C36   C     C_3   0.012471 0.542522 0.774747 -0.237650
C37   C     C_3   0.487549 0.042526 0.225231 -0.237718
C38   C     C_3   0.512494 0.042516 0.774724 -0.237719
C39   C     C_3   0.042012 0.486976 0.245175 -0.256297
C40   C     C_3   0.957968 0.487053 0.754842 -0.256310
C41   C     C_3   0.542029 0.987033 0.245160 -0.256310
C42   C     C_3   0.457962 0.987073 0.754847 -0.256314
C43   C     C_1   0.792389 0.535368 0.602810 0.210128
C44   C     C_1   0.207614 0.535122 0.397381 0.210115
C45   C     C_1   0.292383 0.035129 0.602624 0.210109
C46   C     C_3   0.000313 0.498875 0.810499 0.027869
C47   C     C_1   0.707617 0.035057 0.397430 0.210101
C48   C     C_1   0.007379 0.707318 0.877724 0.197940
C49   C     C_1   0.992621 0.707318 0.122277 0.197942
C50   C     C_1   0.505618 0.207314 0.879268 0.197959
C51   C     C_1   0.494383 0.207314 0.120732 0.197959
C52   C     C_1   0.923831 0.476376 0.384491 0.182044
C53   C     C_1   0.076128 0.476231 0.615546 0.182089
C54   C     C_1   0.423865 0.976263 0.384465 0.182053
C55   C     C_1   0.576117 0.976197 0.615562 0.182070
C56   C     C_3   0.499688 0.998873 0.189500 0.027889
C57   C     C_3   0.500312 0.998876 0.810500 0.027889
C58   C     C_3   0.043049 0.487372 0.172736 -0.233705
C59   C     C_3   0.956933 0.487443 0.827279 -0.233685
C60   C     C_3   0.543063 0.987423 0.172724 -0.233678
C61   C     C_R   0.079603 0.499991 0.420486 0.562720
C62   C     C_3   0.456926 0.987467 0.827285 -0.233669
C63   C     C_3   0.967456 0.467039 0.246298 -0.228913
C64   C     C_3   0.032494 0.466994 0.753759 -0.228927
C65   C     C_3   0.467493 0.967007 0.246255 -0.228912
C66   C     C_3   0.532476 0.966978 0.753779 -0.228922
C67   C     C_R   0.728342 0.483208 0.820381 -0.106803
C68   C     C_R   0.271659 0.483342 0.179518 -0.106803
C69   C     C_R   0.228342 0.983348 0.820486 -0.106804
C70   C     C_R   0.771658 0.983386 0.179486 -0.106804
C71   C     C_R   0.706192 0.500160 0.792786 0.024850
C72   C     C_R   0.420397 0.999991 0.579514 0.562732
C73   C     C_R   0.293809 0.500167 0.207209 0.024848
C74   C     C_R   0.206190 0.000171 0.792795 0.024839
C75   C     C_R   0.793810 0.000172 0.207204 0.024838
C76   C     C_R   0.727673 0.517247 0.720931 -0.107781
C77   C     C_R   0.272328 0.517130 0.279159 -0.107781
C78   C     C_R   0.227670 0.017133 0.720845 -0.107793
C79   C     C_R   0.772330 0.017098 0.279181 -0.107791
C80   C     C_R   0.771213 0.517474 0.676574 0.007303
C81   C     C_R   0.228788 0.517356 0.323519 0.007297
C82   C     C_R   0.271210 0.017361 0.676484 0.007298
C83   C     C_R   0.579603 0.999991 0.420486 0.562720
C84   C     C_R   0.728790 0.017325 0.323543 0.007300
C85   C     C_R   0.793459 0.500391 0.704536 0.024964
C86   C     C_R   0.206542 0.500397 0.295463 0.024966
C87   C     C_R   0.293458 0.000403 0.704539 0.024964
C88   C     C_R   0.706542 0.000403 0.295461 0.024965
C89   C     C_R   0.999097 0.500011 0.380613 0.552141
C90   C     C_R   0.000908 0.500010 0.619382 0.552140
C91   C     C_R   0.499094 0.000010 0.380615 0.552144
C92   C     C_R   0.500909 0.000010 0.619381 0.552142
C93   C     C_R   0.771737 0.483329 0.776485 -0.120736
C94   C     C_3   0.966233 0.467730 0.319359 -0.111009
C95   C     C_R   0.228263 0.483462 0.223417 -0.120731
C96   C     C_R   0.271737 0.983469 0.776585 -0.120728
C97   C     C_R   0.728263 0.983506 0.223387 -0.120727
C98   C     C_1   0.661425 0.500046 0.838140 -0.050438
C99   C     C_1   0.338576 0.500050 0.161856 -0.050442
C100  C     C_1   0.161424 0.000052 0.838147 -0.050455
C101  C     C_1   0.838576 0.000052 0.161853 -0.050455
C102  C     C_1   0.838345 0.500143 0.660528 -0.037622
C103  C     C_1   0.161655 0.500147 0.339473 -0.037633
C104  C     C_1   0.338345 0.000151 0.660526 -0.037627
C105  C     C_3   0.033712 0.467672 0.680703 -0.110990
C106  C     C_1   0.661655 0.000151 0.339474 -0.037631
C107  C     C_1   0.875803 0.500030 0.623644 -0.000600
C108  C     C_1   0.124197 0.500032 0.376358 -0.000614
C109  C     C_1   0.375803 0.000033 0.623640 -0.000608
C110  C     C_1   0.624197 0.000033 0.376360 -0.000617
C111  C     C_1   0.623958 0.499989 0.875928 -0.016211
C112  C     C_1   0.376043 0.499991 0.124069 -0.016209
C113  C     C_1   0.123957 0.999992 0.875932 -0.016222
C114  C     C_1   0.876043 0.999992 0.124068 -0.016222
C115  C     C_1   0.500000 0.661515 0.999999 -0.054344
C116  C     C_3   0.466277 0.967685 0.319310 -0.110980
C117  C     C_1   1.000000 0.161515 0.999999 -0.054333
C118  C     C_R   1.000000 0.579507 0.000000 0.557745
C119  C     C_R   0.500000 0.079508 0.000000 0.557740
C120  C     C_R   0.999987 0.498973 0.120339 0.547655
C121  C     C_R   0.000013 0.498979 0.879661 0.547659
C122  C     C_R   0.499987 0.998977 0.120339 0.547652
C123  C     C_R   0.500012 0.998980 0.879661 0.547653
C124  C     C_1   0.000000 0.338252 0.999999 -0.058911
C125  C     C_1   0.500000 0.838252 0.999999 -0.058875
C126  C     C_R   1.000000 0.420353 1.000000 0.548772
C127  C     C_3   0.533697 0.967657 0.680720 -0.110968
C128  C     C_R   0.500000 0.920353 1.000000 0.548755
C129  C     C_1   0.000000 0.375727 1.000000 -0.028439
C130  C     C_1   0.500000 0.875727 0.999999 -0.028427
C131  C     C_R   0.500000 0.420684 0.000000 0.550487
C132  C     C_R   0.000000 0.920683 0.000000 0.550482
C133  C     C_R   0.579341 0.499962 0.920660 0.550586
C134  C     C_R   0.420659 0.499962 0.079339 0.550590
C135  C     C_R   0.079341 0.999962 0.920661 0.550572
C136  C     C_R   0.920659 0.999962 0.079339 0.550573
C137  C     C_R   0.500000 0.579404 1.000000 0.550683
C138  C     C_3   0.998488 0.499790 0.312282 0.032782
C139  C     C_R   0.000000 0.079404 1.000000 0.550648
C140  C     C_R   0.502734 0.272132 0.941289 -0.110590
C141  C     C_R   0.497267 0.272132 0.058711 -0.110590
C142  C     C_R   0.003593 0.772130 0.940539 -0.110594
C143  C     C_R   0.996407 0.772130 0.059462 -0.110593
C144  C     C_R   0.500000 0.293890 0.000000 0.009145
C145  C     C_R   0.000000 0.793888 0.000000 0.009136
C146  C     C_R   0.996384 0.728638 0.059872 -0.004538
C147  C     C_R   0.003616 0.728638 0.940129 -0.004536
C148  C     C_R   0.497249 0.228640 0.059115 -0.004502
Cu1   Cu    Cu3+1 0.000000 0.540990 0.500000 0.961430
Cu2   Cu    Cu3+1 0.500030 0.500020 0.062450 0.963158
Cu3   Cu    Cu3+1 0.999970 0.000020 0.937550 0.963201
Cu4   Cu    Cu3+1 0.000030 0.000020 0.062450 0.963202
Cu5   Cu    Cu3+1 0.500000 0.040990 0.500000 0.961421
Cu6   Cu    Cu3+1 0.000000 0.458960 0.500000 0.943009
Cu7   Cu    Cu3+1 0.500000 0.958960 0.500000 0.942995
Cu8   Cu    Cu3+1 0.958960 0.499950 0.041020 0.941762
Cu9   Cu    Cu3+1 0.041040 0.499950 0.958980 0.941768
Cu10  Cu    Cu3+1 0.458960 0.999950 0.041020 0.941801
Cu11  Cu    Cu3+1 0.541040 0.999950 0.958980 0.941804
Cu12  Cu    Cu3+1 0.499970 0.500020 0.937550 0.963157
H1    H     H_    0.012380 0.566326 0.287119 0.141280
H2    H     H_    0.949892 0.455475 0.745877 0.126335
H3    H     H_    0.550091 0.955451 0.254139 0.126341
H4    H     H_    0.449873 0.955497 0.745898 0.126314
H5    H     H_    0.052715 0.456309 0.145784 0.124938
H6    H     H_    0.947222 0.456392 0.854267 0.124981
H7    H     H_    0.552760 0.956367 0.145749 0.124973
H8    H     H_    0.447197 0.956422 0.854294 0.125002
H9    H     H_    0.788393 0.470102 0.798718 0.113634
H10   H     H_    0.211607 0.470332 0.201110 0.113623
H11   H     H_    0.288394 0.970341 0.798893 0.113636
H12   H     H_    0.987746 0.566352 0.712740 0.141332
H13   H     H_    0.711606 0.970406 0.201059 0.113634
H14   H     H_    0.712069 0.469905 0.875849 0.118862
H15   H     H_    0.287932 0.470137 0.123976 0.118863
H16   H     H_    0.212069 0.970145 0.876030 0.118870
H17   H     H_    0.787931 0.970211 0.123921 0.118871
H18   H     H_    0.710514 0.530379 0.699551 0.119935
H19   H     H_    0.289489 0.530164 0.300611 0.119941
H20   H     H_    0.210509 0.030166 0.699393 0.119939
H21   H     H_    0.789491 0.030103 0.300654 0.119941
H22   H     H_    0.504850 0.289071 0.895837 0.124941
H23   H     H_    0.512286 0.066345 0.287224 0.141438
H24   H     H_    0.495150 0.289071 0.104164 0.124941
H25   H     H_    0.006377 0.789068 0.894504 0.124961
H26   H     H_    0.993624 0.789068 0.105496 0.124963
H27   H     H_    0.030322 0.288119 0.058720 0.110972
H28   H     H_    0.969678 0.288119 0.941278 0.110973
H29   H     H_    0.527665 0.788119 0.063289 0.110863
H30   H     H_    0.472336 0.788119 0.936708 0.110863
H31   H     H_    0.958034 0.554820 0.343849 0.150865
H32   H     H_    0.042071 0.554742 0.656050 0.150805
H33   H     H_    0.457957 0.054760 0.343921 0.150739
H34   H     H_    0.487775 0.066357 0.712714 0.141462
H35   H     H_    0.542094 0.054725 0.656023 0.150714
H36   H     H_    0.527668 0.711654 0.063284 0.114820
H37   H     H_    0.472333 0.711654 0.936713 0.114819
H38   H     H_    0.030325 0.211654 0.058715 0.114778
H39   H     H_    0.969675 0.211654 0.941283 0.114777
H40   H     H_    0.955979 0.550853 0.240180 0.144765
H41   H     H_    0.044097 0.550795 0.759752 0.144778
H42   H     H_    0.455927 0.050813 0.240224 0.144588
H43   H     H_    0.544125 0.050772 0.759720 0.144606
H44   H     H_    0.009480 0.566150 0.184613 0.129393
H45   H     H_    0.976011 0.435374 0.221589 0.102105
H46   H     H_    0.990617 0.566168 0.815275 0.129392
H47   H     H_    0.509413 0.066162 0.184692 0.129624
H48   H     H_    0.490654 0.066175 0.815240 0.129619
H49   H     H_    0.065953 0.508658 0.239518 0.118142
H50   H     H_    0.934068 0.508782 0.760464 0.118197
H51   H     H_    0.565938 0.008752 0.239527 0.118222
H52   H     H_    0.434072 0.008811 0.760456 0.118245
H53   H     H_    0.066680 0.510238 0.133344 0.142752
H54   H     H_    0.933335 0.510341 0.866645 0.142739
H55   H     H_    0.566671 0.010310 0.133347 0.142812
H56   H     H_    0.023896 0.435344 0.778525 0.102089
H57   H     H_    0.433341 0.010379 0.866635 0.142802
H58   H     H_    0.974637 0.436214 0.327873 0.122683
H59   H     H_    0.025244 0.436169 0.672267 0.122694
H60   H     H_    0.474731 0.936179 0.327759 0.122652
H61   H     H_    0.525216 0.936158 0.672296 0.122658
H62   H     H_    0.936280 0.473910 0.257678 0.151428
H63   H     H_    0.063681 0.473825 0.742359 0.151419
H64   H     H_    0.436308 0.973851 0.257654 0.151413
H65   H     H_    0.563667 0.973791 0.742379 0.151402
H66   H     H_    0.476077 0.935352 0.221504 0.102011
H67   H     H_    0.523860 0.935332 0.778561 0.102000
H68   H     H_    0.050029 0.455380 0.254190 0.126393
N1    N     N_1   0.809365 0.549715 0.543702 -0.263935
N2    N     N_1   0.109303 0.482933 0.564476 -0.271006
N3    N     N_1   0.390693 0.982978 0.435532 -0.271032
N4    N     N_1   0.609296 0.982885 0.564491 -0.271023
N5    N     N_1   0.190639 0.549368 0.456566 -0.263938
N6    N     N_1   0.309356 0.049377 0.543441 -0.264014
N7    N     N_1   0.690644 0.049275 0.456636 -0.264033
N8    N     N_1   0.010391 0.690212 0.827759 -0.298385
N9    N     N_1   0.989608 0.690212 0.172241 -0.298367
N10   N     N_1   0.507912 0.190202 0.829937 -0.298659
N11   N     N_1   0.492088 0.190201 0.170063 -0.298652
N12   N     N_1   0.890667 0.483145 0.435540 -0.271061
O1    O     O_R   0.940150 0.534620 0.559830 -0.498943
O2    O     O_R   0.440170 0.499950 0.007050 -0.502548
O3    O     O_R   0.059830 0.999950 0.992950 -0.502556
O4    O     O_R   0.940170 0.999950 0.007050 -0.502556
O5    O     O_R   0.500010 0.559860 0.947320 -0.502090
O6    O     O_R   0.499990 0.559860 0.052680 -0.502089
O7    O     O_R   0.000010 0.059860 0.947320 -0.502064
O8    O     O_R   0.999990 0.059860 0.052680 -0.502064
O9    O     O_R   0.940110 0.465340 0.559870 -0.502717
O10   O     O_R   0.059890 0.465340 0.440130 -0.502673
O11   O     O_R   0.440110 0.965340 0.559870 -0.502689
O12   O     O_R   0.059850 0.534620 0.440170 -0.498997
O13   O     O_R   0.559890 0.965340 0.440130 -0.502672
O14   O     O_R   0.999990 0.534620 0.408860 -0.513546
O15   O     O_R   0.000010 0.534620 0.591140 -0.513569
O16   O     O_R   0.499990 0.034620 0.408860 -0.513552
O17   O     O_R   0.500010 0.034620 0.591140 -0.513561
O18   O     O_R   0.999950 0.465340 0.408890 -0.517833
O19   O     O_R   0.000050 0.465340 0.591110 -0.517810
O20   O     O_R   0.499950 0.965340 0.408890 -0.517824
O21   O     O_R   0.500050 0.965340 0.591110 -0.517816
O22   O     O_R   0.965330 0.559800 0.034660 -0.498934
O23   O     O_R   0.440150 0.034620 0.559830 -0.498977
O24   O     O_R   0.034670 0.559800 0.965340 -0.498940
O25   O     O_R   0.465330 0.059800 0.034660 -0.498949
O26   O     O_R   0.534670 0.059800 0.965340 -0.498952
O27   O     O_R   0.965350 0.499950 0.125800 -0.512922
O28   O     O_R   0.034650 0.499950 0.874200 -0.512918
O29   O     O_R   0.465350 0.999950 0.125800 -0.512962
O30   O     O_R   0.534650 0.999950 0.874200 -0.512960
O31   O     O_R   0.034620 0.500000 0.056540 -0.514933
O32   O     O_R   0.965380 0.500000 0.943460 -0.514935
O33   O     O_R   0.534620 1.000000 0.056540 -0.514891
O34   O     O_R   0.559850 0.034620 0.440170 -0.498999
O35   O     O_R   0.465380 1.000000 0.943460 -0.514892
O36   O     O_R   0.965350 0.440100 0.034640 -0.503892
O37   O     O_R   0.034650 0.440100 0.965360 -0.503887
O38   O     O_R   0.465350 0.940100 0.034640 -0.503860
O39   O     O_R   0.534650 0.940100 0.965360 -0.503858
O40   O     O_R   0.499940 0.440170 0.947210 -0.501455
O41   O     O_R   0.500060 0.440170 0.052790 -0.501456
O42   O     O_R   0.999940 0.940170 0.947210 -0.501450
O43   O     O_R   0.000060 0.940170 0.052790 -0.501450
O44   O     O_R   0.559820 0.500010 0.887440 -0.500760
O45   O     O_R   0.440180 0.500010 0.112560 -0.500763
O46   O     O_R   0.059820 0.000010 0.887440 -0.500758
O47   O     O_R   0.940180 0.000010 0.112560 -0.500758
O48   O     O_R   0.559830 0.499950 0.992950 -0.502544

loop_
_geom_bond_atom_site_label_1
_geom_bond_atom_site_label_2
_ccdc_geom_bond_type
Cu1   O1    S    
C22   C117  S    
C62   H8    S    
C90   O15   A    
C30   C138  S    
C86   C103  S    
C46   C59   S    
C143  C146  A    
C18   C21   A    
Cu11  O39   S    
C32   H23   S    
C132  O42   A    
C45   C82   S    
Cu12  O40   S    
C57   C66   S    
C4    C8    S    
C69   C96   A    
C139  O7    A    
C13   C41   S    
C92   O17   A    
C36   H46   S    
Cu4   O47   S    
C97   H13   S    
C57   C62   S    
C24   C42   S    
Cu11  O26   S    
C5    C9    S    
C104  C109  T    
Cu8   O27   S    
C63   C94   S    
C93   H9    S    
C77   H19   S    
C120  O31   A    
Cu2   Cu12  S    
C83   O13   A    
C35   C58   S    
C78   H20   S    
Cu8   Cu9   S    
C60   H55   S    
Cu10  O25   S    
C76   H18   S    
Cu3   O7    S    
C79   C84   A    
C38   H48   S    
C42   H4    S    
Cu10  O38   S    
C31   H12   S    
C90   O19   A    
C67   H14   S    
C82   C87   A    
Cu9   O31   S    
C48   C147  S    
C40   H50   S    
C94   H58   S    
C134  O45   A    
C17   C29   A    
C66   C127  S    
C39   H49   S    
C73   C99   S    
C34   C35   S    
C23   C26   A    
C135  O3    A    
C58   H5    S    
C61   C108  S    
C25   C125  S    
C134  O2    A    
C137  O6    A    
C91   O20   A    
C13   C32   S    
C141  C148  A    
C6    C15   T    
C37   C56   S    
C85   C93   A    
C125  C130  T    
C3    C50   S    
C143  C145  A    
Cu4   O8    S    
Cu7   O21   S    
C34   H44   S    
C61   O10   A    
C105  H59   S    
C96   H11   S    
C54   C116  S    
C66   H67   S    
C65   H66   S    
C24   C127  S    
C37   H42   S    
C46   C121  S    
C36   C46   S    
Cu5   O34   S    
Cu12  O5    S    
Cu2   O45   S    
C23   C27   A    
Cu5   Cu7   S    
C83   O34   A    
C19   C27   A    
C42   C62   S    
C128  O39   A    
C67   C71   A    
C92   O21   A    
Cu6   O18   S    
C70   C97   A    
C21   C115  S    
C53   N2    T    
C12   C115  T    
C14   C117  T    
Cu11  O30   S    
Cu3   O4    S    
C39   C138  S    
Cu5   O17   S    
C5    C148  A    
C13   C91   S    
C101  C114  T    
C37   H47   S    
C63   H62   S    
C35   C120  S    
Cu2   O48   S    
C48   N8    T    
Cu5   O23   S    
C139  O8    A    
C24   C92   S    
C121  O28   A    
C128  O38   A    
C122  O29   A    
C68   H15   S    
C123  O35   A    
C88   C106  S    
C47   N7    T    
C25   C29   A    
C71   C98   S    
C59   H54   S    
C60   H7    S    
C142  C145  A    
C136  O4    A    
C26   H28   S    
C68   C95   A    
C62   H57   S    
C140  C144  A    
C69   C74   A    
C19   C22   A    
C18   C28   A    
C45   N6    T    
C89   C138  S    
Cu4   O3    S    
C49   N9    T    
C11   C119  S    
C86   C95   A    
Cu3   O42   S    
Cu7   O11   S    
C111  C133  S    
C74   C100  S    
Cu6   O10   S    
C126  C129  S    
C68   C73   A    
C47   C84   S    
C4    C147  A    
C31   H32   S    
C85   C102  S    
C141  C144  A    
C140  H22   S    
C79   H21   S    
C64   H63   S    
C128  C130  S    
C2    C31   S    
C25   C28   A    
Cu2   O41   S    
C56   C122  S    
Cu1   Cu6   S    
C20   H39   S    
C40   H2    S    
C80   C85   A    
C10   C118  S    
C24   C33   S    
C53   C105  S    
C57   C123  S    
C38   C57   S    
C137  O5    A    
C78   C82   A    
C118  O22   A    
C77   C81   A    
Cu3   Cu4   S    
C133  O48   A    
C4    C146  A    
C87   C96   A    
Cu9   O24   S    
C18   H37   S    
C39   H68   S    
C83   C110  S    
C118  O24   A    
C102  C107  T    
C89   O14   A    
C135  O46   A    
C27   H27   S    
C32   C37   S    
C55   N4    T    
C52   C94   S    
Cu10  O29   S    
C121  O32   A    
C30   H31   S    
C131  O40   A    
C103  C108  T    
C59   H6    S    
C1    O1    A    
C1    C107  S    
Cu8   O22   S    
C123  O30   A    
C8    C10   T    
C7    C16   T    
C69   H16   S    
Cu5   O16   S    
C20   C22   A    
C33   H34   S    
C44   C81   S    
C38   H43   S    
C9    C11   T    
C34   H40   S    
C113  C135  S    
Cu10  Cu11  S    
C94   C138  S    
C143  H26   S    
C29   H29   S    
C122  O33   A    
C116  H60   S    
C36   H41   S    
C6    C144  S    
Cu3   O46   S    
C54   N3    T    
C131  O41   A    
C42   H52   S    
Cu4   O43   S    
C67   C93   A    
C106  C110  T    
Cu2   O6    S    
C142  H25   S    
C126  O36   A    
C72   C109  S    
C30   C34   S    
C72   O23   A    
C75   C101  S    
C98   C111  T    
C64   C105  S    
Cu12  O44   S    
C19   H38   S    
C142  C147  A    
C64   H56   S    
C49   C146  S    
C100  C113  T    
C88   C97   A    
C41   C60   S    
C112  C134  S    
C32   H33   S    
C3    C5    A    
C120  O27   A    
C55   C127  S    
C35   C63   S    
C76   C80   A    
C43   N1    T    
C70   H17   S    
C23   C124  S    
Cu8   O32   S    
Cu6   O9    S    
Cu1   O15   S    
C133  O44   A    
C95   H10   S    
C74   C78   A    
C2    C105  S    
C33   C38   S    
Cu9   O28   S    
C126  O37   A    
C81   C86   A    
C141  H24   S    
C2    C40   S    
C41   H3    S    
Cu1   O14   S    
Cu10  O35   S    
C44   N5    T    
Cu7   O20   S    
C119  O26   A    
C28   H30   S    
C71   C76   A    
C84   C88   A    
C20   C26   A    
C51   C148  S    
Cu1   O12   S    
C61   O12   A    
C99   C112  T    
C39   C58   S    
C66   H65   S    
C43   C80   S    
C124  C129  T    
Cu11  O33   S    
C1    O9    A    
C12   C137  S    
C72   O11   A    
C16   C132  S    
C91   O16   A    
C17   C21   A    
Cu8   O36   S    
C13   C116  S    
Cu7   O13   S    
C127  H61   S    
Cu9   O37   S    
C87   C104  S    
C41   H51   S    
C58   H53   S    
C56   C60   S    
C50   N10   T    
C132  O43   A    
C15   C131  S    
C14   C139  S    
C33   H35   S    
C73   C77   A    
C2    C90   S    
C52   N12   T    
C63   H45   S    
C46   C64   S    
C70   C75   A    
C40   C59   S    
C114  C136  S    
C31   C36   S    
C17   H36   S    
C51   N11   T    
C3    C140  A    
C30   H1    S    
Cu12  O2    S    
C89   O18   A    
C136  O47   A    
C75   C79   A    
C65   H64   S    
Cu6   O19   S    
C56   C65   S    
C65   C116  S    
C7    C145  S    
C119  O25   A    
