data_mof_unit_28695.cif
_audit_creation_date              2012-12-10T18:59:19-0500
_audit_creation_method            fapswitch 2.2
_symmetry_space_group_name_H-M    P1
_symmetry_Int_Tables_number       1
_space_group_crystal_system       triclinic
_cell_length_a                    9.837444
_cell_length_b                    10.647176
_cell_length_c                    16.615852
_cell_angle_alpha                 89.608793
_cell_angle_beta                  93.887404
_cell_angle_gamma                 91.168005
_cell_volume                      1735.97005729

loop_
_atom_site_label
_atom_site_type_symbol
_atom_type_description
_atom_site_fract_x
_atom_site_fract_y
_atom_site_fract_z
_atom_type_partial_charge
C1    C     C_R   0.498317 0.260490 0.499837 0.925211
C2    C     C_R   0.076540 0.427334 0.553602 -0.032625
C3    C     C_R   0.516766 0.492984 0.653821 0.937127
C4    C     C_R   0.483191 0.505875 0.346119 0.958595
C5    C     C_R   0.523988 0.471127 0.740563 -0.089032
C6    C     C_R   0.475797 0.523619 0.259053 -0.059062
C7    C     C_R   0.405051 0.435457 0.777612 -0.201519
C8    C     C_R   0.594273 0.558847 0.221406 -0.227553
C9    C     C_R   0.408232 0.414139 0.860454 -0.062372
C10   C     C_R   0.590949 0.575953 0.138171 -0.062450
C11   C     C_R   0.532708 0.434787 0.906533 0.259532
C12   C     C_R   0.501672 0.739566 0.500127 0.920713
C13   C     C_R   0.466763 0.551956 0.092500 0.259630
C14   C     C_R   0.652767 0.461743 0.868974 -0.131233
C15   C     C_R   0.347148 0.524825 0.130455 -0.138348
C16   C     C_R   0.648770 0.479687 0.786095 -0.207288
C17   C     C_R   0.351322 0.510740 0.213618 -0.169859
C18   C     C_R   0.480023 0.064091 0.572480 -0.086669
C19   C     C_R   0.519338 0.936029 0.426899 -0.082737
C20   C     C_2   0.717514 0.617623 0.100607 0.944271
C21   C     C_2   0.281130 0.372231 0.897346 0.946052
C22   C     C_2   0.464099 0.133547 0.648643 0.919549
C23   C     C_R   0.488053 0.933945 0.573343 -0.086644
C24   C     C_2   0.534361 0.866304 0.350745 0.927609
C25   C     C_2   0.477265 0.862274 0.649889 0.959535
C26   C     C_2   0.524935 0.138216 0.349558 0.956762
C27   C     C_R   0.511625 0.066322 0.425994 -0.085285
C28   C     C_R   0.506410 0.872233 0.500502 -0.178646
C29   C     C_R   0.493347 0.127920 0.499008 -0.180680
C30   C     C_R   0.067373 0.572688 0.446374 -0.045051
C31   C     C_R   0.932626 0.427314 0.553628 -0.043680
C32   C     C_R   0.923458 0.572666 0.446399 -0.033916
H1    H     H_    0.747953 0.476440 0.904694 0.179768
H2    H     H_    0.462579 0.832323 0.236226 0.352196
H3    H     H_    0.565223 0.742350 0.730844 0.346829
H4    H     H_    0.630759 0.169447 0.251325 0.358592
H5    H     H_    0.118270 0.630804 0.403517 0.145916
H6    H     H_    0.881728 0.369204 0.596488 0.146832
H7    H     H_    0.865243 0.630758 0.403564 0.171105
H8    H     H_    0.134752 0.369243 0.596437 0.171368
H9    H     H_    0.252183 0.507620 0.094984 0.180096
H10   H     H_    0.689332 0.574334 0.257136 0.223982
H11   H     H_    0.309678 0.423005 0.741715 0.224001
H12   H     H_    0.922538 0.637086 0.111522 0.353725
H13   H     H_    0.075932 0.354957 0.886138 0.353599
H14   H     H_    0.742049 0.504493 0.758171 0.190787
H15   H     H_    0.258421 0.485949 0.241949 0.185276
H16   H     H_    0.535412 0.168081 0.763191 0.353519
N1    N     N_2   0.535512 0.448470 0.990395 -0.136735
N2    N     N_2   0.463634 0.537565 0.008716 -0.134203
N3    N     N_R   0.857210 0.499970 0.500020 -0.092650
N4    N     N_R   0.142790 0.500030 0.499980 -0.092642
O1    O     O_R   0.614620 0.316750 0.500010 -0.630370
O2    O     O_R   0.844235 0.604870 0.143113 -0.803476
O3    O     O_2   0.286585 0.322004 0.963876 -0.597123
O4    O     O_R   0.154635 0.387628 0.855046 -0.800825
O5    O     O_2   0.368727 0.204284 0.653423 -0.631782
O6    O     O_R   0.557196 0.116155 0.714958 -0.770984
O7    O     O_2   0.628637 0.794315 0.345977 -0.631425
O8    O     O_R   0.441588 0.884736 0.284407 -0.773923
O9    O     O_2   0.379111 0.875999 0.690145 -0.581934
O10   O     O_R   0.581101 0.781262 0.676359 -0.785969
O11   O     O_2   0.440885 0.216998 0.328532 -0.625684
O12   O     O_R   0.385380 0.683250 0.499990 -0.630854
O13   O     O_R   0.632946 0.114793 0.301589 -0.763900
O14   O     O_R   0.385290 0.316780 0.500000 -0.568014
O15   O     O_R   0.614710 0.683220 0.500000 -0.562474
O16   O     O_R   0.627460 0.498830 0.616130 -0.613217
O17   O     O_R   0.372540 0.501170 0.383870 -0.619943
O18   O     O_R   0.398130 0.498850 0.616130 -0.610842
O19   O     O_R   0.601870 0.501150 0.383870 -0.615868
O20   O     O_2   0.711424 0.665385 0.033338 -0.598968
Zn1   Zn    Zn3+2 0.653130 0.499980 0.500000 1.013341
Zn2   Zn    Zn3+2 0.346870 0.500020 0.500000 1.012937

loop_
_geom_bond_atom_site_label_1
_geom_bond_atom_site_label_2
_ccdc_geom_bond_type
O18   Zn2   S    
C21   O4    S    
C30   C32   A    
C26   O11   D    
C5    C7    A    
C32   N3    A    
C22   O6    S    
C11   N1    S    
C10   C20   S    
H12   O2    S    
C27   C29   A    
C18   C22   S    
C19   C27   A    
C3    O16   A    
H13   O4    S    
C31   H6    S    
C24   O8    S    
C3    O18   A    
C22   O5    D    
C13   C15   A    
C19   C24   S    
C21   O3    D    
O17   Zn2   S    
C18   C29   A    
C25   O9    D    
C23   C28   A    
H2    O8    S    
C19   C28   A    
C9    C11   A    
C9    C21   S    
C26   C27   S    
C2    N4    A    
C14   H1    S    
C24   O7    D    
O15   Zn1   S    
C6    C8    A    
O12   Zn2   S    
C4    C6    S    
C4    O17   A    
C11   C14   A    
C12   C28   S    
C1    O14   A    
H3    O10   S    
N4    Zn2   S    
C25   O10   S    
C23   C25   S    
C12   O12   A    
C12   O15   A    
C14   C16   A    
C8    C10   A    
C1    C29   S    
C8    H10   S    
C18   C23   A    
O14   Zn2   S    
C2    H8    S    
O19   Zn1   S    
C13   N2    S    
C15   H9    S    
C20   O2    S    
N1    N2    D    
C32   H7    S    
C16   H14   S    
C7    H11   S    
C7    C9    A    
C6    C17   A    
C30   N4    A    
H4    O13   S    
C20   O20   D    
C5    C16   A    
C1    O1    A    
N3    Zn1   S    
O16   Zn1   S    
C15   C17   A    
C26   O13   S    
C10   C13   A    
C4    O19   A    
O1    Zn1   S    
C17   H15   S    
C30   H5    S    
C31   N3    A    
C2    C31   A    
C3    C5    S    
H16   O6    S    
