data_mof_unit_21685.cif
_audit_creation_date              2012-12-10T17:48:49-0500
_audit_creation_method            fapswitch 2.2
_symmetry_space_group_name_H-M    P1
_symmetry_Int_Tables_number       1
_space_group_crystal_system       triclinic
_cell_length_a                    10.85955
_cell_length_b                    14.754341
_cell_length_c                    15.035542
_cell_angle_alpha                 64.14095
_cell_angle_beta                  106.702797
_cell_angle_gamma                 101.943156
_cell_volume                      2067.06729532

loop_
_atom_site_label
_atom_site_type_symbol
_atom_type_description
_atom_site_fract_x
_atom_site_fract_y
_atom_site_fract_z
_atom_type_partial_charge
C1    C     C_R   0.478496 0.120096 0.312105 0.832351
C2    C     C_3   0.878515 0.995750 0.502924 -0.035563
C3    C     C_3   0.971876 0.005483 0.601653 0.010545
C4    C     C_3   0.922270 0.094557 0.416958 -0.507648
C5    C     C_R   0.473035 0.189202 0.204139 -0.149015
C6    C     C_R   0.523363 0.814274 0.795813 -0.043764
C7    C     C_R   0.465006 0.225268 0.028278 0.187663
C8    C     C_R   0.466470 0.154707 0.128582 0.231539
C9    C     C_R   0.477845 0.293282 0.177724 -0.252723
C10   C     C_R   0.493909 0.365780 0.082223 0.085344
C11   C     C_R   0.478722 0.330452 0.004915 0.050209
C12   C     C_R   0.261214 0.998556 0.502873 0.845240
C13   C     C_R   0.514543 0.472552 0.059010 0.014695
C14   C     C_R   0.507040 0.540407 0.956115 0.004773
C15   C     C_R   0.481094 0.502933 0.880712 -0.165470
C16   C     C_R   0.472271 0.400640 0.904781 -0.153564
C17   C     C_R   0.545762 0.516039 0.132496 0.135882
C18   C     C_R   0.529211 0.619657 0.100412 0.211788
C19   C     C_R   0.509338 0.683602 0.996618 0.057740
C20   C     C_R   0.519552 0.645662 0.928489 -0.024509
C21   C     C_R   0.493268 0.787296 0.959653 -0.153967
C22   C     C_R   0.489810 0.849903 0.857549 -0.289994
C23   C     C_R   0.521959 0.880177 0.687954 0.867560
C24   C     C_R   0.558578 0.715032 0.838984 0.249189
C25   C     C_R   0.744179 0.305937 0.633680 0.140257
C26   C     C_R   0.695122 0.211716 0.629833 0.372279
C27   C     C_R   0.508250 0.281178 0.507721 0.018364
C28   C     C_R   0.544058 0.375694 0.515323 -0.072615
C29   C     C_R   0.673606 0.390575 0.568464 -0.014156
C30   C     C_R   0.460520 0.456583 0.471605 0.073133
C31   C     C_R   0.514041 0.549297 0.482023 0.033805
C32   C     C_R   0.648202 0.566669 0.510708 -0.214581
C33   C     C_R   0.727922 0.489962 0.552639 0.359713
C34   C     C_R   0.740118 0.998554 0.501196 0.846666
C35   C     C_R   0.326906 0.450771 0.421505 0.240162
C36   C     C_R   0.255682 0.534200 0.383690 -0.201621
C37   C     C_R   0.310004 0.624025 0.395473 -0.024996
C38   C     C_R   0.435583 0.628171 0.453387 -0.082787
C39   C     C_R   0.243240 0.711163 0.348935 0.143500
C40   C     C_R   0.302586 0.798558 0.365425 0.419698
C41   C     C_R   0.475489 0.708026 0.487151 0.307462
C42   C     C_3   0.044463 0.900037 0.491746 0.024313
C43   C     C_3   0.897797 0.900979 0.482510 0.447979
C44   C     C_3   0.113104 0.991538 0.609961 0.064748
C45   C     C_3   0.064213 0.091566 0.416664 -0.486365
C46   C     C_3   0.124125 0.995837 0.506488 -0.075734
Cu1   Cu    Cu3+1 0.465900 0.918260 0.475680 1.043435
Cu2   Cu    Cu3+1 0.534100 0.081740 0.524320 0.991745
H1    H     H_    0.915773 0.162901 0.428467 0.207914
H2    H     H_    0.971368 0.084393 0.592815 0.182581
H3    H     H_    0.456048 0.377533 0.842964 0.170661
H4    H     H_    0.467139 0.927088 0.828401 0.162835
H5    H     H_    0.463047 0.316563 0.231986 0.208272
H6    H     H_    0.055790 0.905791 0.418268 0.193830
H7    H     H_    0.465411 0.553268 0.801346 0.204676
H8    H     H_    0.481507 0.820177 0.008103 0.174224
H9    H     H_    0.156711 0.527627 0.343044 0.167673
H10   H     H_    0.424040 0.266309 0.456671 0.205441
H11   H     H_    0.692938 0.641784 0.498943 0.172772
H12   H     H_    0.137899 0.915857 0.669341 0.182778
H13   H     H_    0.121922 0.161427 0.421293 0.204907
H14   H     H_    0.067598 0.092112 0.343168 0.192538
H15   H     H_    0.857337 0.108159 0.341304 0.179206
N1    N     N_R   0.585360 0.204570 0.560800 -0.217740
N2    N     N_R   0.414550 0.795430 0.439160 -0.229108
O1    O     O_R   0.455060 0.022100 0.338110 -0.521005
O2    O     O_R   0.512640 0.160150 0.379180 -0.587180
O3    O     O_R   0.288900 0.930980 0.479450 -0.531899
O4    O     O_R   0.346480 0.069030 0.520520 -0.585375
O5    O     O_R   0.487360 0.839850 0.620820 -0.510547
O6    O     O_R   0.544940 0.977900 0.661890 -0.562429
O7    O     O_R   0.653520 0.930970 0.479480 -0.572970
O8    O     O_R   0.711100 0.069020 0.520550 -0.553587
Br1   Br    Br    0.119200 0.770136 0.584500 -0.458959
N3    N     N_2   0.203123 0.068327 0.637954 -0.410173
H16   H     H_    0.190569 0.142367 0.587950 0.264924
C47   C     C_3   0.233887 0.053892 0.743258 -0.629306
H17   H     H_    0.324243 0.101429 0.758447 0.217661
H18   H     H_    0.249045 0.973702 0.794459 0.235679
H19   H     H_    0.155114 0.077311 0.759770 0.259726
N4    N     N_2   0.674594 0.699783 0.823149 -0.423422
H20   H     H_    0.674797 0.629856 0.823799 0.290336
C48   C     C_3   0.789500 0.718806 0.893267 -0.642872
H21   H     H_    0.876925 0.713811 0.872094 0.252486
H22   H     H_    0.790130 0.661354 0.971763 0.220455
H23   H     H_    0.793687 0.795172 0.892060 0.266040
N5    N     N_2   0.546861 0.663141 0.171735 -0.428143
H24   H     H_    0.620459 0.638710 0.235184 0.302634
C49   C     C_3   0.428685 0.667761 0.194535 -0.705652
H25   H     H_    0.386764 0.590182 0.235167 0.254038
H26   H     H_    0.357264 0.706304 0.124068 0.227600
H27   H     H_    0.449550 0.711371 0.242287 0.227535
N6    N     N_2   0.448158 0.188754 0.951557 -0.448877
H28   H     H_    0.370648 0.212858 0.891105 0.259347
C50   C     C_3   0.564501 0.185385 0.924659 -0.684607
H29   H     H_    0.569761 0.245284 0.848291 0.233119
H30   H     H_    0.562116 0.110689 0.922773 0.224386
H31   H     H_    0.653023 0.196055 0.980231 0.244718
N7    N     N_2   0.453809 0.049153 0.151765 -0.378841
H32   H     H_    0.390866 0.027817 0.096745 0.281410
C51   C     C_3   0.574690 0.004413 0.188496 -0.610647
H33   H     H_    0.626823 0.031233 0.126654 0.214189
H34   H     H_    0.555088 0.920839 0.216900 0.226648
H35   H     H_    0.636591 0.024181 0.251589 0.237932
Br2   Br    Br    0.641734 0.447545 0.270147 -0.587549
Br3   Br    Br    0.909520 0.533370 0.563794 -0.404345
Br4   Br    Br    0.568911 0.669094 0.623750 -0.587203
Br5   Br    Br    0.212677 0.918392 0.284218 -0.510474
Br6   Br    Br    0.891743 0.310873 0.741048 -0.489272
N8    N     N_2   0.758898 0.123627 0.696516 -0.351942
H36   H     H_    0.857447 0.134146 0.703275 0.284611
C52   C     C_3   0.723577 0.073080 0.793929 -0.580752
H37   H     H_    0.774225 0.112823 0.844146 0.230329
H38   H     H_    0.751231 0.994433 0.831234 0.251431
H39   H     H_    0.617898 0.070560 0.784685 0.208230
N9    N     N_2   0.831370 0.915638 0.376822 -0.463322
H40   H     H_    0.867162 0.977835 0.321428 0.245252
C53   C     C_3   0.805282 0.829675 0.348596 -0.661633
H41   H     H_    0.803249 0.855896 0.266771 0.230069
H42   H     H_    0.708562 0.790839 0.359664 0.217902
H43   H     H_    0.880326 0.775796 0.392923 0.286823
N10   N     N_2   0.261728 0.364874 0.402745 -0.471495
H44   H     H_    0.175486 0.340148 0.425752 0.260346
C54   C     C_3   0.247227 0.376247 0.299620 -0.737996
H45   H     H_    0.210456 0.302700 0.293656 0.231688
H46   H     H_    0.341819 0.400907 0.277659 0.255226
H47   H     H_    0.177970 0.432761 0.246091 0.236808
N11   N     N_2   0.117135 0.713274 0.285067 -0.390572
H48   H     H_    0.051103 0.655085 0.316718 0.280524
C55   C     C_3   0.113473 0.732832 0.181330 -0.640430
H49   H     H_    0.144190 0.667518 0.177723 0.205794
H50   H     H_    0.177441 0.801945 0.147971 0.250222
H51   H     H_    0.013292 0.744903 0.135452 0.239957
N12   N     N_2   0.844201 0.803248 0.549550 -0.386232
H52   H     H_    0.750234 0.782875 0.521535 0.299393
C56   C     C_3   0.875127 0.763562 0.658773 -0.504892
H53   H     H_    0.869443 0.679777 0.689469 0.267357
H54   H     H_    0.802123 0.783516 0.683479 0.277282
H55   H     H_    0.973097 0.790445 0.690028 0.253478
Br7   Br    Br    0.920417 0.939226 0.730857 -0.665146

loop_
_geom_bond_atom_site_label_1
_geom_bond_atom_site_label_2
_ccdc_geom_bond_type
C12   O4    A    
N6    H28   S    
C44   N3    S    
C50   H29   S    
C2    C4    S    
C19   C20   A    
C16   H3    S    
Cu2   O4    S    
C24   N4    S    
N11   H48   S    
C52   H38   S    
N4    H20   S    
C50   H31   S    
C7    C8    A    
C45   C46   S    
C7    C11   A    
C12   O3    A    
C4    H15   S    
C51   H33   S    
C30   C35   A    
C48   H21   S    
C1    C5    S    
C54   H46   S    
C28   C29   A    
C19   C21   A    
C8    N7    S    
C17   Br2   S    
C30   C31   A    
Cu2   N1    S    
C15   C16   A    
C6    C22   A    
C29   C33   A    
C45   H14   S    
N9    H40   S    
C18   C19   A    
C42   C46   S    
C26   N1    A    
C53   H41   S    
N8    H36   S    
Cu1   Cu2   S    
C49   H26   S    
C9    C10   A    
C26   N8    S    
Cu1   O1    S    
C25   Br6   S    
C40   Br5   S    
C2    C34   S    
C51   H34   S    
C21   C22   A    
C23   O5    A    
C56   H55   S    
C52   H37   S    
N4    C48   S    
C3    H2    S    
C44   C46   S    
C1    O1    A    
N8    C52   S    
C4    C45   S    
C47   H18   S    
C25   C29   A    
C7    N6    S    
C3    C44   S    
C42   Br1   S    
C14   C20   A    
C38   C41   A    
C12   C46   S    
C36   H9    S    
C10   C11   A    
C39   C40   A    
N12   C56   S    
C25   C26   A    
C47   H17   S    
C27   H10   S    
C53   H43   S    
C15   H7    S    
C43   N12   S    
C55   H50   S    
N3    H16   S    
Cu1   O5    S    
C5    C9    A    
C37   C38   A    
C23   O6    A    
C43   N9    S    
C21   H8    S    
C11   C16   A    
C31   C32   A    
C2    C43   S    
C6    C24   A    
C17   C18   A    
C49   H27   S    
N3    C47   S    
C54   H47   S    
C56   H54   S    
C48   H22   S    
C51   H35   S    
C40   N2    A    
N5    C49   S    
C55   H51   S    
C9    H5    S    
C42   C43   S    
Cu2   O6    S    
N10   C54   S    
C34   O7    A    
Cu1   O3    S    
C22   H4    S    
C47   H19   S    
C36   C37   A    
C39   N11   S    
C41   Br4   S    
N7    C51   S    
Cu2   O8    S    
C35   N10   S    
C33   Br3   S    
C56   H53   S    
C10   C13   A    
N11   C55   S    
C5    C8    A    
C41   N2    A    
C50   H30   S    
N12   H52   S    
C3    Br7   S    
C18   N5    S    
C31   C38   A    
C13   C17   A    
C4    H1    S    
C32   C33   A    
C28   C30   A    
C2    C3    S    
C49   H25   S    
C37   C39   A    
N7    H32   S    
C42   H6    S    
C44   H12   S    
C6    C23   S    
C45   H13   S    
C1    O2    A    
N9    C53   S    
C55   H49   S    
Cu2   O2    S    
C20   C24   A    
C53   H42   S    
Cu1   O7    S    
C27   N1    A    
C34   O8    A    
C48   H23   S    
N5    H24   S    
N6    C50   S    
C27   C28   A    
C14   C15   A    
C35   C36   A    
C32   H11   S    
N10   H44   S    
C13   C14   A    
Cu1   N2    S    
C52   H39   S    
C54   H45   S    
