data_mof_unit_27390.cif
_audit_creation_date              2013-03-05T16:41:04-0500
_audit_creation_method            fapswitch 2.2
_symmetry_space_group_name_H-M    P1
_symmetry_Int_Tables_number       1
_space_group_crystal_system       triclinic
_cell_length_a                    18.634317
_cell_length_b                    18.500431
_cell_length_c                    19.018357
_cell_angle_alpha                 109.63546
_cell_angle_beta                  109.927209
_cell_angle_gamma                 108.54926
_cell_volume                      5065.25061344

loop_
_atom_site_label
_atom_site_type_symbol
_atom_site_description
_atom_site_fract_x
_atom_site_fract_y
_atom_site_fract_z
_atom_type_partial_charge
O1    O     O_R   0.408360 0.551710 0.460090 -0.641019
O2    O     O_R   0.408400 0.448280 0.356670 -0.595247
C1    C     C_R   0.381845 0.503564 0.380911 0.890098
O3    O     O_R   0.591600 0.643340 0.551710 -0.644543
O4    O     O_R   0.591630 0.539900 0.448290 -0.541221
C2    C     C_R   0.620455 0.621311 0.500936 0.977140
Zn1   Zn    Zn3+2 0.499980 0.569060 0.569060 1.032176
Zn2   Zn    Zn3+2 0.500020 0.430940 0.430940 1.128216
O5    O     O_R   0.591600 0.551720 0.643330 -0.635424
O6    O     O_R   0.591640 0.448290 0.539910 -0.578712
O7    O     O_R   0.408370 0.460100 0.551710 -0.615768
O8    O     O_R   0.408400 0.356660 0.448290 -0.627874
C3    C     C_R   0.619934 0.499181 0.619321 0.936276
C4    C     C_R   0.376917 0.379724 0.496939 0.871074
H1    H     H_    0.806238 0.915191 0.900246 0.226962
C5    C     C_R   0.712078 0.855154 0.765881 0.281846
C6    C     C_R   0.696759 0.815545 0.681140 -0.216400
C7    C     C_R   0.758836 0.797802 0.664142 0.050595
C8    C     C_R   0.838973 0.824579 0.734141 -0.211075
H2    H     H_    0.888832 0.814933 0.721925 0.209274
C9    C     C_R   0.857548 0.869122 0.819553 0.257818
C10   C     C_R   0.792593 0.881411 0.834623 -0.273092
C11   C     C_R   0.813635 0.829943 0.572823 -0.229091
C12   C     C_R   0.812468 0.811502 0.495589 -0.064643
C13   C     C_R   0.745772 0.733833 0.418137 0.011828
C14   C     C_R   0.679053 0.673708 0.419602 0.335917
C15   C     C_R   0.683157 0.690275 0.499555 -0.197424
C16   C     C_R   0.749951 0.770598 0.576938 0.031906
C17   C     C_R   0.721069 0.747617 0.285058 0.335647
C18   C     C_R   0.735031 0.733678 0.214880 -0.158043
H3    H     H_    0.714910 0.761437 0.174931 0.211876
C19   C     C_R   0.773276 0.682451 0.194251 -0.174105
H4    H     H_    0.783398 0.672606 0.140160 0.253093
C20   C     C_R   0.797245 0.643155 0.242241 -0.212236
C21   C     C_R   0.786774 0.657833 0.314452 0.311014
C22   C     C_R   0.750223 0.712242 0.337582 -0.121953
H5    H     H_    0.460167 0.901972 0.601677 0.241705
C23   C     C_R   0.391727 0.762779 0.550694 0.327946
C24   C     C_R   0.355988 0.679830 0.480174 -0.208093
C25   C     C_R   0.364099 0.670591 0.407384 -0.088901
C26   C     C_R   0.407364 0.747450 0.404612 0.201435
C27   C     C_R   0.441936 0.832097 0.475214 0.141176
C28   C     C_R   0.433795 0.837984 0.547391 -0.287247
C29   C     C_R   0.243917 0.575811 0.258079 -0.100618
H6    H     H_    0.236973 0.633348 0.264187 0.159913
C30   C     C_R   0.184486 0.495615 0.182695 -0.056613
C31   C     C_R   0.183550 0.416999 0.175650 0.043111
C32   C     C_R   0.250595 0.423441 0.242641 -0.212156
C33   C     C_R   0.313650 0.504706 0.317046 -0.061750
C34   C     C_R   0.308745 0.582395 0.327141 0.115391
C35   C     C_R   0.073635 0.260806 0.117128 -0.104773
H7    H     H_    0.090153 0.274615 0.182274 0.171047
C36   C     C_R   0.011713 0.175469 0.048612 -0.072333
C37   C     C_R   0.990295 0.155547 0.964129 -0.065449
C38   C     C_R   0.030391 0.221102 0.948115 -0.132824
C39   C     C_R   0.091433 0.306916 0.016434 -0.139407
C40   C     C_R   0.114145 0.327639 0.101710 0.117140
H8    H     H_    0.178685 0.594621 0.534080 0.177580
C41   C     C_R   0.232756 0.535943 0.601341 -0.118652
H9    H     H_    0.246359 0.583329 0.662958 0.164655
C42   C     C_R   0.252502 0.468192 0.595248 -0.073764
H10   H     H_    0.279946 0.462791 0.652183 0.127352
C43   C     C_R   0.233900 0.405800 0.515415 0.120365
C44   C     C_R   0.196212 0.412558 0.441777 -0.195558
C45   C     C_R   0.175367 0.480351 0.447360 0.335863
C46   C     C_R   0.194242 0.542016 0.527940 -0.151715
C47   C     C_R   0.181426 0.262227 0.510414 0.268862
C48   C     C_R   0.186635 0.185357 0.499656 -0.188046
C49   C     C_R   0.251951 0.171979 0.485588 -0.046085
C50   C     C_R   0.311919 0.236233 0.482633 -0.218080
H11   H     H_    0.363388 0.227037 0.473383 0.183208
C51   C     C_R   0.308196 0.313130 0.494171 -0.115000
C52   C     C_R   0.242145 0.326565 0.506857 -0.097934
C53   C     C_R   0.304887 0.084136 0.542217 -0.119696
C54   C     C_R   0.323383 0.014697 0.529402 -0.142760
H12   H     H_    0.359095 0.009442 0.584100 0.159714
C55   C     C_R   0.295522 0.951775 0.445939 -0.071584
C56   C     C_R   0.249285 0.958286 0.375214 -0.110182
H13   H     H_    0.227941 0.909680 0.310675 0.160425
C57   C     C_R   0.232453 0.028721 0.387980 -0.110157
H14   H     H_    0.200417 0.035461 0.333093 0.191256
C58   C     C_R   0.259373 0.091648 0.471501 0.107955
H15   H     H_    0.367327 0.415262 0.743048 0.138084
C59   C     C_R   0.493688 0.515896 0.782498 -0.109604
H16   H     H_    0.482443 0.569535 0.811057 0.150902
C60   C     C_R   0.573137 0.533585 0.784009 -0.006027
C61   C     C_R   0.587651 0.464176 0.746256 0.104694
C62   C     C_R   0.522178 0.377036 0.707735 -0.159180
H17   H     H_    0.532316 0.322772 0.678191 0.163146
C63   C     C_R   0.443061 0.359684 0.706892 -0.122925
H18   H     H_    0.392669 0.292559 0.677219 0.141310
C64   C     C_R   0.428729 0.428982 0.744036 -0.116960
C65   C     C_R   0.735238 0.480887 0.808385 -0.156962
H19   H     H_    0.724786 0.470747 0.857785 0.215974
C66   C     C_R   0.813157 0.494012 0.808162 -0.103578
C67   C     C_R   0.826004 0.502836 0.741892 -0.063104
C68   C     C_R   0.762675 0.507249 0.680525 0.270630
C69   C     C_R   0.686029 0.497531 0.683808 -0.200599
C70   C     C_R   0.671062 0.482333 0.746404 -0.059106
C71   C     C_R   0.974043 0.589103 0.767193 -0.088162
H20   H     H_    0.971796 0.648400 0.798495 0.153517
C72   C     C_R   0.046528 0.595867 0.757746 -0.105261
H21   H     H_    0.099931 0.659936 0.782543 0.171619
C73   C     C_R   0.049795 0.520169 0.715549 -0.199859
H22   H     H_    0.105912 0.525540 0.707880 0.158952
C74   C     C_R   0.980908 0.437435 0.683247 -0.156813
H23   H     H_    0.985053 0.379552 0.650959 0.202507
C75   C     C_R   0.907230 0.429087 0.692238 0.353175
C76   C     C_R   0.904189 0.506457 0.735345 0.032716
O9    O     O_R   0.051730 0.908360 0.460060 -0.639300
O10   O     O_R   0.948280 0.908380 0.356650 -0.572682
C77   C     C_R   0.002017 0.880368 0.380475 0.900210
O11   O     O_R   0.960110 0.908350 0.551690 -0.604296
O12   O     O_R   0.856660 0.908370 0.448270 -0.623487
C78   C     C_R   0.879804 0.877477 0.497178 0.862768
Zn3   Zn    Zn3+2 0.069070 0.999960 0.569030 0.994305
Zn4   Zn    Zn3+2 0.930930 0.999990 0.430930 1.126641
O13   O     O_R   0.051720 0.091580 0.643310 -0.630232
O14   O     O_R   0.948270 0.091600 0.539890 -0.605226
O15   O     O_R   0.143340 0.091590 0.551680 -0.646350
O16   O     O_R   0.039890 0.091610 0.448270 -0.544808
C79   C     C_R   0.997275 0.118126 0.619117 0.909653
C80   C     C_R   0.120305 0.117969 0.498204 0.969218
O17   O     O_R   0.051730 0.460050 0.908360 -0.628932
O18   O     O_R   0.948290 0.356630 0.908390 -0.616638
C81   C     C_R   0.001281 0.379730 0.880928 0.863369
O19   O     O_R   0.143340 0.551690 0.091580 -0.598285
O20   O     O_R   0.039900 0.448270 0.091610 -0.592615
C82   C     C_R   0.119621 0.496581 0.116803 0.844258
Zn5   Zn    Zn3+2 0.069070 0.569030 0.999960 1.014207
Zn6   Zn    Zn3+2 0.930930 0.430930 0.000000 1.076327
O21   O     O_R   0.051710 0.643320 0.091560 -0.634163
O22   O     O_R   0.948270 0.539900 0.091590 -0.579081
O23   O     O_R   0.960100 0.551680 0.908340 -0.644985
O24   O     O_R   0.856660 0.448270 0.908370 -0.587862
C83   C     C_R   0.999516 0.620225 0.118729 0.929971
C84   C     C_R   0.879801 0.497763 0.877758 0.920507
H24   H     H_    0.146786 0.730691 0.617075 0.155323
C85   C     C_R   0.170836 0.810955 0.559098 -0.122183
H25   H     H_    0.232937 0.863127 0.615686 0.171637
C86   C     C_R   0.139662 0.817826 0.484894 -0.100762
H26   H     H_    0.178457 0.874936 0.484703 0.150484
C87   C     C_R   0.058577 0.751424 0.411326 0.114520
C88   C     C_R   0.012123 0.675295 0.411925 -0.070074
H27   H     H_    0.952923 0.620498 0.354085 0.173212
C89   C     C_R   0.043282 0.668253 0.486063 -0.016294
H28   H     H_    0.006706 0.609441 0.485840 0.181893
C90   C     C_R   0.122398 0.736345 0.559848 -0.118635
C91   C     C_R   0.022271 0.688143 0.261162 -0.263344
H29   H     H_    0.037038 0.638254 0.269342 0.187930
C92   C     C_R   0.000349 0.687295 0.183655 -0.076284
C93   C     C_R   0.985234 0.752301 0.170544 -0.060946
C94   C     C_R   0.988705 0.818075 0.236958 0.249758
C95   C     C_R   0.008610 0.817839 0.315985 -0.206361
C96   C     C_R   0.029431 0.754105 0.329321 -0.040735
C97   C     C_R   0.048366 0.806102 0.090820 -0.210368
H30   H     H_    0.111467 0.842100 0.149175 0.176204
C98   C     C_R   0.042560 0.806936 0.015554 0.394961
C99   C     C_R   0.960085 0.759919 0.940760 -0.193587
C100  C     C_R   0.885181 0.712274 0.940787 -0.268646
H31   H     H_    0.822356 0.676471 0.882190 0.181545
C101  C     C_R   0.891388 0.707460 0.014425 0.393456
C102  C     C_R   0.973783 0.755687 0.090607 -0.018523
C103  C     C_R   0.278818 0.552751 0.944452 -0.150676
H32   H     H_    0.298754 0.614973 0.945480 0.154329
C104  C     C_R   0.195089 0.481856 0.881790 -0.076861
H33   H     H_    0.151085 0.489718 0.834384 0.141915
C105  C     C_R   0.168115 0.401402 0.880958 0.117299
C106  C     C_R   0.228064 0.391346 0.940402 -0.217445
H34   H     H_    0.209799 0.328633 0.938374 0.153793
C107  C     C_R   0.311677 0.462394 0.003192 -0.093509
C108  C     C_R   0.336883 0.543217 0.005525 -0.047665
C109  C     C_R   0.076039 0.259067 0.747717 -0.168822
C110  C     C_R   0.995980 0.184644 0.683282 -0.073977
C111  C     C_R   0.917812 0.173768 0.683251 -0.004046
C112  C     C_R   0.921832 0.238790 0.749980 -0.163527
C113  C     C_R   0.001880 0.314190 0.814282 -0.128772
C114  C     C_R   0.080270 0.325232 0.813305 -0.026607
C115  C     C_R   0.788161 0.076092 0.533641 -0.042122
H35   H     H_    0.815575 0.121843 0.514409 0.194996
C116  C     C_R   0.708296 0.999136 0.472789 -0.030038
H36   H     H_    0.674531 0.985685 0.407195 0.199992
C117  C     C_R   0.671861 0.939770 0.496772 0.019082
C118  C     C_R   0.714367 0.957868 0.581718 -0.121479
C119  C     C_R   0.794844 0.033992 0.642531 -0.182423
C120  C     C_R   0.832748 0.093142 0.618536 0.073685
H37   H     H_    0.825430 0.602206 0.223865 0.198432
N1    N     N_R   0.809839 0.614088 0.361109 0.210120
O25   O     O_R   0.794288 0.533860 0.319512 -0.333759
O26   O     O_R   0.849851 0.654786 0.445001 -0.384289
N2    N     N_R   0.383942 0.770714 0.625201 0.240254
O27   O     O_R   0.391751 0.842943 0.678206 -0.363557
O28   O     O_R   0.376071 0.708476 0.644344 -0.395551
H38   H     H_    0.318140 0.622110 0.480509 0.196143
N3    N     N_R   0.414388 0.738376 0.329631 0.229588
O29   O     O_R   0.451612 0.694446 0.304805 -0.303908
O30   O     O_R   0.365797 0.754044 0.275576 -0.337381
N4    N     N_R   0.485452 0.912695 0.475929 0.200082
O31   O     O_R   0.534453 0.987173 0.548309 -0.373029
O32   O     O_R   0.472985 0.914186 0.405008 -0.315021
H39   H     H_    0.252890 0.364010 0.237190 0.157693
N5    N     N_R   0.647899 0.872659 0.782456 0.227865
O33   O     O_R   0.657942 0.901423 0.859570 -0.333576
O34   O     O_R   0.579699 0.861807 0.720947 -0.364059
H40   H     H_    0.980886 0.124613 0.061124 0.185471
H41   H     H_    0.942971 0.089278 0.911142 0.146493
H42   H     H_    0.014524 0.204968 0.882719 0.142138
H43   H     H_    0.121793 0.357011 0.003250 0.109897
H44   H     H_    0.180671 0.363431 0.379988 0.156716
N6    N     N_R   0.133658 0.485603 0.371566 0.200887
O35   O     O_R   0.099344 0.419601 0.295085 -0.407085
O36   O     O_R   0.126662 0.555092 0.378204 -0.432742
H45   H     H_    0.637115 0.800314 0.628424 0.183468
N7    N     N_R   0.115120 0.275353 0.526202 0.204271
O37   O     O_R   0.059212 0.286625 0.473777 -0.343851
O38   O     O_R   0.110981 0.276561 0.593455 -0.453350
H46   H     H_    0.327932 0.133099 0.607213 0.135093
H47   H     H_    0.309149 0.897632 0.436062 0.158343
H48   H     H_    0.622787 0.601125 0.813370 0.170276
N8    N     N_R   0.777118 0.524312 0.616745 0.210433
O39   O     O_R   0.791139 0.472124 0.564085 -0.312775
O40   O     O_R   0.776779 0.592599 0.611638 -0.410259
N9    N     N_R   0.835428 0.342396 0.653674 0.202986
O41   O     O_R   0.822257 0.277156 0.587123 -0.376227
O42   O     O_R   0.785895 0.326463 0.686976 -0.402126
N10   N     N_R   0.943867 0.906978 0.890609 0.198696
O43   O     O_R   0.959460 0.941376 0.969734 -0.377683
O44   O     O_R   0.009092 0.913913 0.877184 -0.351323
N11   N     N_R   0.974070 0.885766 0.224507 0.222933
O45   O     O_R   0.902548 0.865027 0.159176 -0.338228
O46   O     O_R   0.032749 0.968172 0.277522 -0.408317
N12   N     N_R   0.120128 0.854034 0.014787 0.231002
O47   O     O_R   0.194942 0.906554 0.086260 -0.352869
O48   O     O_R   0.117459 0.841851 0.942248 -0.347826
H49   H     H_    0.953326 0.760031 0.882064 0.197561
H50   H     H_    0.864658 0.892276 0.630629 0.155645
N13   N     N_R   0.814176 0.652599 0.010364 0.171000
O49   O     O_R   0.742073 0.654262 0.974089 -0.405562
O50   O     O_R   0.811642 0.590777 0.029185 -0.450697
H51   H     H_    0.401662 0.598149 0.054082 0.178450
H52   H     H_    0.357069 0.454658 0.049747 0.178859
H53   H     H_    0.135619 0.265643 0.746634 0.176802
H54   H     H_    0.862168 0.230850 0.751374 0.206209
N14   N     N_R   0.605144 0.598359 0.339806 0.220144
O51   O     O_R   0.615715 0.540604 0.288719 -0.328135
O52   O     O_R   0.526301 0.584832 0.320379 -0.354350
H55   H     H_    0.610088 0.880197 0.449915 0.204375
H56   H     H_    0.684704 0.912942 0.600286 0.147872
H57   H     H_    0.827658 0.046746 0.708061 0.141572
N15   N     N_R   0.677404 0.797381 0.301855 0.211816
O53   O     O_R   0.681494 0.856148 0.278068 -0.390542
O54   O     O_R   0.624511 0.776648 0.330674 -0.365995

loop_
_geom_bond_atom_site_label_1
_geom_bond_atom_site_label_2
_geom_bond_distance
_ccdc_geom_bond_type
C35   C36   1.398331 A    
C61   C62   1.403487 A    
C56   H13   1.082253 S    
C65   H19   1.084299 S    
C118  H56   1.076608 S    
C26   C27   1.423247 A    
C66   C67   1.411228 A    
C71   H20   1.080245 S    
C54   H12   1.082453 S    
O20   C82   1.271817 A    
C30   C82   1.424070 S    
N8    O40   1.301022 A    
O12   C78   1.272200 A    
C1    C33   1.439722 S    
C91   H29   1.086605 S    
C115  C120  1.404709 A    
C55   C56   1.396776 A    
N14   O51   1.300434 A    
Zn1   O7    2.016463 S    
C9    N10   1.438575 S    
C17   C22   1.420204 A    
C14   C15   1.415820 A    
C17   C18   1.401280 A    
N5    O34   1.300110 A    
C97   H30   1.083206 S    
C8    C9    1.404702 A    
C59   C60   1.398636 A    
C7    C8    1.406630 A    
Zn6   O24   2.017254 S    
C49   C50   1.381118 A    
Zn4   O14   2.026281 S    
N6    O35   1.300442 A    
O13   C79   1.277843 A    
C18   H3    1.082637 S    
O7    C4    1.275947 A    
C6    H45   1.082194 S    
C55   H47   1.082129 S    
C74   H23   1.082953 S    
N15   O54   1.299212 A    
C87   C88   1.405317 A    
C118  C119  1.396150 A    
C81   C113  1.436041 S    
N1    O26   1.301157 A    
C20   C21   1.401286 A    
C106  H34   1.083124 S    
C3    C69   1.428799 S    
C42   C43   1.402339 A    
Zn4   O16   2.020541 S    
C110  C111  1.405369 A    
N8    O39   1.300950 A    
C97   C98   1.404023 A    
O5    C3    1.274599 A    
C49   C58   1.479189 S    
O1    Zn1   2.026133 S    
C48   C49   1.408327 A    
C87   C96   1.490481 S    
C109  H53   1.085894 S    
H8    C46   1.082143 S    
H1    C10   1.082217 S    
C119  C120  1.402916 A    
O10   C77   1.286580 A    
C97   C102  1.403702 A    
H24   C90   1.082403 S    
C5    C6    1.405513 A    
C37   H41   1.082730 S    
C6    C7    1.405521 A    
O22   C83   1.277625 A    
C36   H40   1.082406 S    
C92   C93   1.398945 A    
C50   H11   1.085570 S    
C47   C52   1.396763 A    
C75   C76   1.420834 A    
O24   C84   1.281195 A    
C65   C70   1.378758 A    
C89   C90   1.396318 A    
O15   C80   1.275164 A    
O21   C83   1.273593 A    
O11   Zn3   2.020452 S    
O18   C81   1.289788 A    
C41   H9    1.082475 S    
C65   C66   1.395632 A    
C77   C95   1.448163 S    
C9    C10   1.402353 A    
C107  H52   1.082378 S    
C104  C105  1.403951 A    
C106  C107  1.398268 A    
C94   N11   1.439190 S    
C2    C15   1.445219 S    
Zn5   O23   2.014957 S    
C4    C51   1.437783 S    
O23   C84   1.280418 A    
O3    Zn1   2.026859 S    
C5    N5    1.438519 S    
C48   C80   1.433857 S    
C73   C74   1.395864 A    
C73   H22   1.082690 S    
C29   C30   1.387772 A    
C68   C69   1.407514 A    
C61   C70   1.480830 S    
C116  C117  1.395922 A    
C23   C24   1.398190 A    
C24   H38   1.079906 S    
C85   C90   1.396256 A    
C41   C42   1.394551 A    
C66   C84   1.435951 S    
N5    O33   1.301570 A    
C89   H28   1.082365 S    
C72   H21   1.082391 S    
C93   C102  1.487292 S    
C31   C32   1.384368 A    
C105  C106  1.404761 A    
C71   C76   1.404607 A    
C27   N4    1.445918 S    
C7    C16   1.493362 S    
C12   C13   1.404456 A    
N9    O41   1.300792 A    
C57   C58   1.404475 A    
Zn3   O13   2.005987 S    
C53   C54   1.398945 A    
C98   N12   1.438856 S    
C24   C25   1.403039 A    
C75   N9    1.440686 S    
N7    O37   1.301094 A    
C57   H14   1.082408 S    
N3    O29   1.299457 A    
C43   C52   1.482870 S    
C13   C14   1.395835 A    
C116  H36   1.082002 S    
C32   H39   1.085275 S    
C47   C48   1.406953 A    
O11   C78   1.281049 A    
N1    O25   1.301437 A    
O1    C1    1.271416 A    
C21   C22   1.418953 A    
C100  C101  1.400935 A    
H5    C28   1.082326 S    
Zn5   O21   2.021471 S    
C117  C118  1.394600 A    
O19   C82   1.285082 A    
C30   C31   1.408882 A    
N11   O45   1.301061 A    
H15   C64   1.082263 S    
C103  H32   1.082300 S    
N7    O38   1.300603 A    
C31   C40   1.490207 S    
C86   C87   1.404479 A    
O18   Zn6   2.021683 S    
C63   C64   1.397042 A    
C99   C100  1.393992 A    
C39   H43   1.077565 S    
Zn2   O8    2.026862 S    
C67   C68   1.395664 A    
C38   C39   1.399926 A    
N12   O48   1.301409 A    
N2    O28   1.300211 A    
C95   C96   1.424815 A    
C68   N8    1.438492 S    
O17   Zn5   2.011342 S    
C25   C34   1.495962 S    
C117  H55   1.080451 S    
C11   C16   1.382711 A    
C59   H16   1.082272 S    
C72   C73   1.393274 A    
C54   C55   1.398623 A    
C107  C108  1.397408 A    
C45   N6    1.438693 S    
N4    O31   1.301999 A    
C113  C114  1.416693 A    
C112  H54   1.084986 S    
C35   C40   1.409009 A    
C11   H50   1.086429 S    
C108  H51   1.082420 S    
C88   C89   1.398449 A    
C112  C113  1.397355 A    
C71   C72   1.394759 A    
O8    C4    1.283049 A    
N10   O43   1.301759 A    
N10   O44   1.301236 A    
N13   O50   1.300300 A    
C98   C99   1.403453 A    
C20   H37   1.082686 S    
C33   C34   1.421645 A    
C44   H44   1.083340 S    
C103  C108  1.397619 A    
O3    C2    1.271434 A    
C39   C40   1.402620 A    
O20   Zn6   2.014953 S    
O9    Zn3   2.026326 S    
C83   C92   1.417584 S    
C29   H6    1.085408 S    
O17   C81   1.272752 A    
C101  C102  1.412759 A    
C53   C58   1.403736 A    
O14   C79   1.274783 A    
C29   C34   1.384415 A    
N2    O27   1.301524 A    
Zn1   O5    2.005499 S    
C37   C38   1.395964 A    
C25   C26   1.422894 A    
C5    C10   1.403078 A    
C13   C22   1.486583 S    
C60   C61   1.404031 A    
C99   H49   1.080683 S    
Zn2   O6    2.026137 S    
O2    Zn2   2.005498 S    
C62   C63   1.398631 A    
C51   C52   1.411263 A    
Zn6   O22   2.011128 S    
O6    C3    1.277133 A    
O4    Zn2   2.016460 S    
N4    O32   1.299800 A    
C85   H25   1.082266 S    
N9    O42   1.300322 A    
C36   C37   1.395722 A    
C17   N15   1.437985 S    
C115  H35   1.082356 S    
C38   H42   1.080295 S    
C67   C76   1.486533 S    
N6    O36   1.301704 A    
O10   Zn4   2.005862 S    
C88   H27   1.080064 S    
C44   C45   1.408452 A    
C8    H2    1.083420 S    
C91   C92   1.381976 A    
O2    C1    1.289988 A    
N15   O53   1.301483 A    
O19   Zn5   2.017125 S    
C35   H7    1.082746 S    
N11   O46   1.300495 A    
C111  C112  1.383857 A    
C79   C110  1.426128 S    
C86   H26   1.075806 S    
C19   H4    1.074794 S    
C111  C120  1.477954 S    
C18   C19   1.389395 A    
C21   N1    1.439117 S    
C85   C86   1.397839 A    
C63   H18   1.080854 S    
O4    C2    1.290213 A    
C104  H33   1.080034 S    
C74   C75   1.407448 A    
C109  C114  1.380558 A    
C32   C33   1.398653 A    
N13   O49   1.300333 A    
C53   H46   1.082169 S    
C103  C104  1.398176 A    
N12   O47   1.301574 A    
N14   O52   1.300598 A    
C14   N14   1.440519 S    
C56   C57   1.398103 A    
C60   H48   1.082810 S    
C45   C46   1.405724 A    
C91   C96   1.379389 A    
C42   H10   1.082474 S    
C100  H31   1.082785 S    
O9    C77   1.276508 A    
O16   C80   1.280201 A    
O12   Zn4   2.022733 S    
C11   C12   1.382442 A    
C119  H57   1.083461 S    
C43   C44   1.404734 A    
Zn3   O15   2.022986 S    
C23   C28   1.397369 A    
C62   H17   1.083130 S    
C12   C78   1.428314 S    
C26   N3    1.434968 S    
C69   C70   1.405509 A    
C27   C28   1.403967 A    
C15   C16   1.424121 A    
C23   N2    1.436791 S    
C47   N7    1.438934 S    
C50   C51   1.392906 A    
C93   C94   1.393394 A    
C59   C64   1.397641 A    
N3    O30   1.301351 A    
C94   C95   1.421959 A    
C101  N13   1.431312 S    
C109  C110  1.391424 A    
C105  C114  1.482894 S    
C19   C20   1.391297 A    
C41   C46   1.396495 A    
C115  C116  1.397032 A    
