data_mof_unit_21808.cif
_audit_creation_date              2012-12-11T14:36:01-0500
_audit_creation_method            fapswitch 2.2
_symmetry_space_group_name_H-M    P1
_symmetry_Int_Tables_number       1
_space_group_crystal_system       triclinic
_cell_length_a                    13.47644
_cell_length_b                    13.469849
_cell_length_c                    27.503855
_cell_angle_alpha                 90.733439
_cell_angle_beta                  89.988716
_cell_angle_gamma                 60.207845
_cell_volume                      4332.31377259

loop_
_atom_site_label
_atom_site_type_symbol
_atom_type_description
_atom_site_fract_x
_atom_site_fract_y
_atom_site_fract_z
_atom_type_partial_charge
C1    C     C_R   0.620089 0.101424 0.570239 0.546353
C2    C     C_1   0.630498 0.732356 0.616391 -0.017389
C3    C     C_3   0.749907 0.560359 0.767354 -0.112799
C4    C     C_3   0.678964 0.653885 0.805566 0.059418
C5    C     C_3   0.639913 0.596715 0.737359 -0.103786
C6    C     C_3   0.662046 0.683503 0.710679 0.043919
C7    C     C_3   0.570251 0.689876 0.776026 0.033092
C8    C     C_3   0.590739 0.777445 0.748664 -0.093255
C9    C     C_1   0.689136 0.632574 0.857887 -0.067467
C10   C     C_1   0.648434 0.705101 0.658396 -0.060256
C11   C     C_3   0.059550 0.205219 0.736938 -0.103552
C12   C     C_R   0.599468 0.779601 0.568768 0.542493
C13   C     C_3   0.111571 0.102435 0.771928 -0.101031
C14   C     C_1   0.096365 0.201775 0.901650 -0.022177
C15   C     C_1   0.228630 0.138723 0.617445 -0.018232
C16   C     C_3   0.092980 0.273507 0.772593 -0.099188
C17   C     C_3   0.145497 0.170536 0.806776 0.055271
C18   C     C_3   0.210392 0.225209 0.746817 -0.097862
C19   C     C_3   0.176682 0.157003 0.711926 0.053521
C20   C     C_3   0.262518 0.122571 0.781717 -0.106335
C21   C     C_3   0.229227 0.054038 0.746059 -0.104299
C22   C     C_1   0.123514 0.183178 0.859324 -0.064553
C23   C     C_R   0.277479 0.121962 0.569661 0.544409
C24   C     C_1   0.199928 0.148505 0.659535 -0.060203
C25   C     C_3   0.576860 0.278176 0.742901 -0.102661
C26   C     C_3   0.554644 0.207508 0.781079 -0.102759
C27   C     C_1   0.691738 0.207779 0.902905 -0.015939
C28   C     C_1   0.635117 0.133835 0.618382 -0.017373
C29   C     C_3   0.685309 0.257473 0.770801 -0.102365
C30   C     C_3   0.662890 0.186551 0.808123 0.052543
C31   C     C_3   0.758830 0.147089 0.740309 -0.101074
C32   C     C_3   0.650671 0.168004 0.713209 0.053406
C33   C     C_3   0.736581 0.076487 0.778361 -0.099942
C34   C     C_R   0.621439 0.098066 0.430611 0.546088
C35   C     C_3   0.628232 0.097133 0.750551 -0.100279
C36   C     C_1   0.674761 0.196976 0.860647 -0.060478
C37   C     C_1   0.643492 0.152935 0.660678 -0.059698
C38   C     C_R   0.751843 0.668133 0.364217 -0.017572
C39   C     C_R   0.762600 0.655035 0.312742 0.017920
C40   C     C_R   0.774034 0.641919 0.210017 0.006828
C41   C     C_R   0.868721 0.626005 0.236993 -0.140421
C42   C     C_R   0.863497 0.631958 0.287716 -0.140895
C43   C     C_R   0.781442 0.627074 0.159530 -0.138747
C44   C     C_R   0.688646 0.633547 0.133523 -0.005905
C45   C     C_R   0.603801 0.772276 0.431313 0.536898
C46   C     C_R   0.556685 0.701939 0.358034 -0.141170
C47   C     C_R   0.566867 0.687297 0.308342 0.007412
C48   C     C_R   0.667349 0.669777 0.285122 0.052328
C49   C     C_R   0.474029 0.697861 0.281446 -0.132861
C50   C     C_R   0.478038 0.696477 0.231105 -0.135948
C51   C     C_R   0.576754 0.679974 0.207288 0.015452
C52   C     C_R   0.672539 0.664910 0.234145 0.065981
C53   C     C_R   0.584043 0.669157 0.157072 -0.135420
C54   C     C_R   0.642198 0.706621 0.385286 -0.001254
C55   C     C_R   0.230615 0.050244 0.355319 -0.130686
C56   C     C_R   0.279495 0.120027 0.430544 0.541384
C57   C     C_R   0.212634 0.060378 0.305251 0.019434
C58   C     C_R   0.179245 0.079183 0.203710 0.037340
C59   C     C_R   0.205742 0.977108 0.227829 -0.125373
C60   C     C_R   0.219271 0.969203 0.278012 -0.125855
C61   C     C_R   0.152822 0.094264 0.153362 -0.014729
C62   C     C_R   0.116572 0.203897 0.133087 0.002403
C63   C     C_R   0.204618 0.241733 0.358934 -0.139975
C64   C     C_R   0.190812 0.252312 0.308813 0.006752
C65   C     C_R   0.192977 0.161120 0.281802 0.029990
C66   C     C_R   0.176212 0.351059 0.284773 0.228100
C67   C     C_3   0.771833 0.647547 0.739813 -0.104550
C68   C     C_R   0.155397 0.360738 0.235208 -0.068792
C69   C     C_R   0.154297 0.272170 0.208678 -0.042061
C70   C     C_R   0.175615 0.170626 0.231329 0.035588
C71   C     C_R   0.127036 0.287031 0.160026 -0.142527
C72   C     C_R   0.229493 0.139780 0.382036 -0.013025
C73   C     C_R   0.575733 0.235455 0.362937 -0.140024
C74   C     C_R   0.578946 0.254129 0.313149 0.015462
C75   C     C_R   0.589770 0.289301 0.213392 -0.003104
C76   C     C_R   0.526793 0.382601 0.245058 -0.111222
C77   C     C_R   0.520316 0.365017 0.294575 -0.119944
C78   C     C_3   0.700844 0.740814 0.778732 -0.112541
C79   C     C_R   0.605720 0.307091 0.164965 -0.185632
C80   C     C_R   0.673800 0.213793 0.134147 0.034361
C81   C     C_R   0.702477 0.031605 0.349203 -0.125277
C82   C     C_R   0.702923 0.048251 0.299614 0.008759
C83   C     C_R   0.641560 0.159726 0.281281 0.066409
C84   C     C_R   0.763361 0.954579 0.268205 -0.135450
C85   C     C_R   0.764697 0.970815 0.218504 -0.129994
C86   C     C_R   0.705825 0.081707 0.199284 0.010579
C87   C     C_R   0.644537 0.176797 0.231185 0.028275
C88   C     C_R   0.713880 0.101148 0.149588 0.219487
C89   C     C_1   0.698023 0.607058 0.900088 -0.023752
C90   C     C_R   0.637624 0.124195 0.380939 0.000905
C91   C     C_R   0.049309 0.236205 0.949723 0.543212
C92   C     C_R   0.711809 0.562793 0.948171 0.545821
C93   C     C_R   0.722347 0.225409 0.950881 0.551298
C94   C     C_R   0.051022 0.243306 0.087653 0.538719
C95   C     C_R   0.708165 0.574941 0.086514 0.545195
C96   C     C_R   0.717639 0.234001 0.088977 0.586061
Cr1   Cr    Cr6+3 0.417550 0.169090 0.500530 1.016722
Cr2   Cr    Cr6+3 0.669180 0.913420 0.499920 1.011239
Cr3   Cr    Cr6+3 0.413260 0.917540 0.499520 1.019208
Cr4   Cr    Cr6+3 0.909170 0.177380 0.020380 1.012380
Cr5   Cr    Cr6+3 0.912710 0.429210 0.018220 1.019227
Cr6   Cr    Cr6+3 0.657170 0.432570 0.019030 1.016772
H1    H     H_    0.725637 0.800096 0.796086 0.101427
H2    H     H_    0.345767 0.089488 0.800457 0.092516
H3    H     H_    0.250961 0.275988 0.735948 0.104616
H4    H     H_    0.037188 0.364079 0.784110 0.102689
H5    H     H_    0.470917 0.231888 0.798290 0.101497
H6    H     H_    0.511598 0.361191 0.727752 0.100317
H7    H     H_    0.604774 0.030783 0.741670 0.101653
H8    H     H_    0.801906 0.993431 0.793463 0.101673
H9    H     H_    0.842626 0.122631 0.723145 0.101060
H10   H     H_    0.708758 0.323817 0.779712 0.102105
H11   H     H_    0.862415 0.600282 0.141311 0.123732
H12   H     H_    0.855221 0.629678 0.724262 0.107320
H13   H     H_    0.947289 0.608215 0.218822 0.110104
H14   H     H_    0.938692 0.620204 0.306631 0.153963
H15   H     H_    0.511656 0.676018 0.136983 0.123283
H16   H     H_    0.405152 0.705383 0.210837 0.095457
H17   H     H_    0.397669 0.708799 0.299432 0.096537
H18   H     H_    0.475615 0.722071 0.374591 0.133386
H19   H     H_    0.251937 0.970481 0.372864 0.123294
H20   H     H_    0.214691 0.902569 0.208883 0.102430
H21   H     H_    0.524853 0.866822 0.740455 0.093739
H22   H     H_    0.235105 0.891317 0.295605 0.100914
H23   H     H_    0.105068 0.368714 0.144176 0.131467
H24   H     H_    0.141410 0.437775 0.217232 0.123375
H25   H     H_    0.202654 0.310563 0.380136 0.141420
H26   H     H_    0.572264 0.393846 0.152310 0.134664
H27   H     H_    0.524357 0.306542 0.387465 0.111430
H28   H     H_    0.484054 0.469256 0.231621 0.116174
H29   H     H_    0.471648 0.438217 0.318458 0.110705
H30   H     H_    0.816475 0.896068 0.196001 0.120533
H31   H     H_    0.810955 0.868626 0.282200 0.118858
H32   H     H_    0.747994 0.944877 0.362694 0.135150
H33   H     H_    0.614704 0.537624 0.720115 0.097694
H34   H     H_    0.815427 0.470844 0.775486 0.098718
H35   H     H_    0.070615 0.052057 0.782821 0.099491
H36   H     H_    0.976228 0.239304 0.718152 0.098953
H37   H     H_    0.285157 0.963554 0.734442 0.104360
O1    O     O_R   0.301710 0.195650 0.554160 -0.509622
O2    O     O_R   0.658900 0.818120 0.449760 -0.511020
O3    O     O_R   0.503220 0.801620 0.445520 -0.523469
O4    O     O_R   0.319370 0.022040 0.450020 -0.499077
O5    O     O_3   0.499990 0.000010 0.499990 -0.240397
O6    O     O_R   0.818720 0.150820 0.967160 -0.505967
O7    O     O_R   0.006410 0.181720 0.970200 -0.502898
O8    O     O_R   0.027890 0.334070 0.964920 -0.505562
O9    O     O_R   0.809600 0.521790 0.967960 -0.493051
O10   O     O_R   0.635520 0.542770 0.964420 -0.510465
O11   O     O_R   0.665950 0.325030 0.970100 -0.494808
O12   O     O_R   0.522390 0.158990 0.550460 -0.495072
O13   O     O_R   0.816620 0.158530 0.074540 -0.473653
O14   O     O_R   0.004460 0.188870 0.069750 -0.511622
O15   O     O_R   0.025800 0.341780 0.072300 -0.522406
O16   O     O_R   0.807650 0.528950 0.067500 -0.501594
O17   O     O_R   0.633420 0.550490 0.071810 -0.523769
O18   O     O_R   0.664000 0.332180 0.069640 -0.516825
O19   O     O_3   0.826350 0.346390 0.019210 -0.245154
O20   O     O_R   0.694390 0.003530 0.554040 -0.506008
O21   O     O_R   0.657700 0.819660 0.549320 -0.498246
O22   O     O_R   0.501930 0.803280 0.552920 -0.508320
O23   O     O_R   0.318170 0.023580 0.549580 -0.494016
O24   O     O_R   0.303010 0.193990 0.446760 -0.528122
O25   O     O_R   0.523600 0.157450 0.450900 -0.498140
O26   O     O_R   0.695690 0.001860 0.446640 -0.521225
C97   C     C_3   0.856073 0.632139 0.396415 -0.254117
C98   C     C_3   0.929095 0.501224 0.398089 -0.305098
C99   C     C_3   0.016896 0.463761 0.438890 -0.443904
H38   H     H_    0.080383 0.491429 0.431259 0.161568
H39   H     H_    0.974307 0.500802 0.474381 0.149092
H40   H     H_    0.061666 0.369300 0.441953 0.157066
H41   H     H_    0.872961 0.464007 0.404852 0.167523
H42   H     H_    0.974035 0.466543 0.362828 0.194171
H43   H     H_    0.907284 0.671278 0.384279 0.134815
H44   H     H_    0.831578 0.661230 0.434383 0.172521
C100  C     C_3   0.166440 0.994720 0.121536 -0.251762
C101  C     C_3   0.065447 0.972628 0.127511 -0.263733
C102  C     C_3   0.062476 0.897972 0.085980 -0.409643
H45   H     H_    0.048137 0.942657 0.050820 0.167746
H46   H     H_    0.144287 0.815481 0.084102 0.124761
H47   H     H_    0.991733 0.879752 0.092167 0.185285
H48   H     H_    0.071318 0.929137 0.162186 0.140392
H49   H     H_    0.983630 0.054642 0.128774 0.224255
H50   H     H_    0.176868 0.010440 0.082839 0.154910
H51   H     H_    0.248013 0.916018 0.129957 0.119995
O27   O     O_3   0.181179 0.439765 0.308041 -0.738066
H52   H     H_    0.244226 0.406683 0.331814 0.319350
O28   O     O_3   0.765237 0.012870 0.115831 -0.710211
H53   H     H_    0.747219 0.952475 0.124570 0.314012
C103  C     C_3   0.454558 0.712332 0.795543 -0.259451
C104  C     C_3   0.403249 0.812153 0.832310 -0.293780
C105  C     C_3   0.283908 0.839588 0.848498 -0.445350
H54   H     H_    0.226361 0.861823 0.816688 0.147642
H55   H     H_    0.287868 0.764916 0.867018 0.155569
H56   H     H_    0.247986 0.913609 0.874272 0.152397
H57   H     H_    0.458559 0.790558 0.864838 0.172829
H58   H     H_    0.397763 0.889317 0.815739 0.157322
H59   H     H_    0.395694 0.732051 0.764294 0.135123
H60   H     H_    0.465962 0.633444 0.813034 0.145825

loop_
_geom_bond_atom_site_label_1
_geom_bond_atom_site_label_2
_ccdc_geom_bond_type
Cr4   O14   S    
C66   C68   A    
C79   H26   S    
C55   H19   S    
Cr5   O9    S    
C40   C41   A    
C103  C104  S    
C68   H24   S    
C92   O9    A    
C41   C42   A    
Cr3   O3    S    
C83   C87   A    
C74   C83   A    
C43   C44   A    
C2    C12   S    
Cr6   O19   S    
C91   O8    A    
C102  H45   S    
C7    C8    S    
C47   C49   A    
C49   H17   S    
C85   C86   A    
Cr4   O13   S    
C61   C100  S    
C56   O24   A    
C11   C19   S    
C97   H44   S    
C20   C21   S    
C5    H33   S    
Cr5   O15   S    
Cr3   O4    S    
C19   C21   S    
C67   H12   S    
C73   C90   A    
C18   C19   S    
C34   O25   A    
C85   H30   S    
C77   H29   S    
C5    C6    S    
C53   H15   S    
Cr5   O16   S    
C101  H48   S    
C96   O13   A    
C17   C20   S    
C100  H50   S    
C3    H34   S    
C73   C74   A    
C69   C71   A    
C104  H57   S    
C29   H10   S    
C12   O22   A    
Cr3   O22   S    
C56   O4    A    
C76   H28   S    
C44   C53   A    
C40   C43   A    
Cr5   O8    S    
C47   C48   A    
Cr4   O7    S    
C68   C69   A    
Cr1   O24   S    
C74   C77   A    
C1    C28   S    
C31   C33   S    
C7    C103  S    
C93   O6    A    
C80   C96   S    
C34   O26   A    
Cr1   O1    S    
C95   O16   A    
C55   C72   A    
C35   H7    S    
C16   H4    S    
C98   H42   S    
C23   O23   A    
C58   C61   A    
C99   H39   S    
C96   O18   A    
O27   H52   S    
C59   C60   A    
C8    C78   S    
C93   O11   A    
C61   C62   A    
C67   C78   S    
C41   H13   S    
C4    C7    S    
Cr6   O18   S    
C103  H60   S    
C81   C82   A    
C39   C42   A    
C99   H40   S    
C25   C29   S    
C13   H35   S    
C73   H27   S    
C84   H31   S    
C97   H43   S    
C86   C88   A    
C46   H18   S    
C104  C105  S    
C102  H47   S    
C32   C35   S    
C88   O28   S    
C23   O1    A    
C100  H51   S    
C84   C85   A    
C76   C77   A    
C9    C89   T    
C98   C99   S    
C5    C7    S    
C86   C87   A    
C16   C17   S    
C57   C60   A    
C6    C8    S    
C56   C72   S    
C25   C26   S    
C40   C52   A    
C12   O21   A    
C51   C52   A    
O28   H53   S    
C51   C53   A    
C105  H55   S    
C75   C76   A    
C105  H56   S    
Cr1   O5    S    
C4    C78   S    
C29   C30   S    
Cr3   O23   S    
C11   C16   S    
Cr3   O5    S    
C31   C32   S    
C38   C54   A    
C1    O20   A    
Cr4   O6    S    
C94   O15   A    
Cr1   O25   S    
C57   C65   A    
C46   C54   A    
C50   C51   A    
Cr1   O12   S    
C13   C21   S    
C16   C18   S    
C62   C94   S    
C32   C37   S    
C95   O17   A    
C89   C92   S    
C45   O2    A    
C81   C90   A    
C42   H14   S    
C99   H38   S    
Cr6   O11   S    
Cr5   O19   S    
C101  C102  S    
C82   C84   A    
C55   C57   A    
Cr2   O2    S    
C45   O3    A    
C49   C50   A    
C27   C93   S    
C60   H22   S    
C21   H37   S    
C3    C4    S    
C2    C10   T    
Cr6   O17   S    
C6    C67   S    
C34   C90   S    
C103  H59   S    
C75   C87   A    
C38   C97   S    
C46   C47   A    
C15   C24   T    
C30   C33   S    
Cr2   O5    S    
C78   H1    S    
C50   H16   S    
C11   H36   S    
C58   C70   A    
C104  H58   S    
Cr2   O21   S    
C63   C64   A    
C3    C5    S    
C26   H5    S    
C45   C54   S    
C102  H46   S    
C8    H21   S    
C26   C30   S    
C98   H41   S    
C20   H2    S    
C30   C36   S    
C27   C36   T    
C17   C22   S    
C13   C17   S    
C105  H54   S    
C14   C22   T    
C100  C101  S    
C19   C24   S    
C58   C59   A    
C18   H3    S    
C80   C88   A    
C66   O27   S    
C101  H49   S    
C43   H11   S    
C11   C13   S    
C38   C39   A    
C97   C98   S    
C3    C67   S    
C28   C37   T    
C59   H20   S    
C94   O14   A    
C64   C65   A    
C15   C23   S    
C63   C72   A    
C33   C35   S    
C62   C71   A    
C1    O12   A    
C18   C20   S    
C69   C70   A    
C14   C91   S    
Cr2   O26   S    
C6    C10   S    
Cr6   O10   S    
C79   C80   A    
Cr4   O19   S    
C26   C35   S    
C48   C52   A    
Cr2   O20   S    
C29   C31   S    
C82   C83   A    
C92   O10   A    
C44   C95   S    
C31   H9    S    
C71   H23   S    
C33   H8    S    
C4    C9    S    
C75   C79   A    
C91   O7    A    
C63   H25   S    
C65   C70   A    
C25   H6    S    
C64   C66   A    
C39   C48   A    
C25   C32   S    
C81   H32   S    
