data_mof_unit_58187.cif
_audit_creation_date              2013-03-05T16:01:50-0500
_audit_creation_method            fapswitch 2.2
_symmetry_space_group_name_H-M    P1
_symmetry_Int_Tables_number       1
_space_group_crystal_system       triclinic
_cell_length_a                    20.243265
_cell_length_b                    7.334504
_cell_length_c                    13.39132
_cell_angle_alpha                 89.87301
_cell_angle_beta                  103.104376
_cell_angle_gamma                 89.408577
_cell_volume                      1936.36546355

loop_
_atom_site_label
_atom_site_type_symbol
_atom_site_description
_atom_site_fract_x
_atom_site_fract_y
_atom_site_fract_z
_atom_type_partial_charge
O1    O     O_R   0.449520 0.506760 0.599710 -0.583518
O2    O     O_R   0.550480 0.006760 0.400290 -0.581804
O3    O     O_R   0.587930 0.180200 0.595790 -0.584806
O4    O     O_R   0.412070 0.680200 0.404210 -0.572842
C1    C     C_R   0.614591 0.343342 0.616348 0.906928
C2    C     C_R   0.385365 0.844920 0.384035 0.908102
O5    O     O_R   0.452350 0.177380 0.611700 -0.584696
O6    O     O_R   0.547650 0.677380 0.388300 -0.583353
O7    O     O_R   0.413930 0.001760 0.416320 -0.583746
O8    O     O_R   0.586070 0.501760 0.583680 -0.576205
C3    C     C_R   0.436423 0.345716 0.637850 0.924335
C4    C     C_R   0.563757 0.844904 0.362338 0.923186
O9    O     O_3   0.487550 0.337460 0.435880 -0.273884
O10   O     O_3   0.512450 0.837460 0.564120 -0.276657
V1    V     V_3+5 0.502310 0.064670 0.511900 1.223189
V2    V     V_3+5 0.497690 0.564670 0.488100 1.231509
C5    C     C_R   0.606996 0.822089 0.103772 0.415703
C6    C     C_R   0.394222 0.382298 0.896832 0.418475
H1    H     H_    0.515989 0.810044 0.159658 0.152955
H2    H     H_    0.485356 0.375141 0.840255 0.159212
C7    C     C_R   0.602739 0.849395 0.282511 -0.145746
C8    C     C_R   0.397548 0.354571 0.717697 -0.148979
C9    C     C_R   0.929006 0.867514 0.318729 -0.181643
C10   C     C_R   0.071237 0.355057 0.681687 -0.186127
C11   C     C_R   0.892587 0.863804 0.394862 -0.087864
C12   C     C_R   0.107710 0.354197 0.605633 -0.086999
C13   C     C_R   0.822002 0.858244 0.369256 -0.177448
C14   C     C_R   0.178318 0.358079 0.631257 -0.177177
C15   C     C_R   0.785444 0.857359 0.265344 0.106353
C16   C     C_R   0.214945 0.361914 0.735207 0.104755
C17   C     C_R   0.823288 0.859127 0.188178 0.120181
C18   C     C_R   0.177033 0.365251 0.812166 0.126566
C19   C     C_R   0.712932 0.852843 0.235994 0.055741
C20   C     C_R   0.287538 0.362837 0.764733 0.054446
C21   C     C_R   0.679225 0.835941 0.129743 -0.224008
C22   C     C_R   0.321635 0.375782 0.871274 -0.222014
C23   C     C_R   0.719056 0.837525 0.054601 0.309157
C24   C     C_R   0.281528 0.380228 0.946417 0.306573
C25   C     C_R   0.789032 0.857539 0.084917 -0.186514
C26   C     C_R   0.211202 0.369894 0.915379 -0.180368
C27   C     C_R   0.672947 0.864164 0.309979 -0.208398
C28   C     C_R   0.327197 0.350785 0.690384 -0.205960
C29   C     C_R   0.570395 0.825755 0.180416 -0.190729
C30   C     C_R   0.430564 0.369777 0.819922 -0.196373
C31   C     C_R   0.895271 0.863581 0.215576 -0.047475
C32   C     C_R   0.104988 0.361200 0.784746 -0.045937
H3    H     H_    0.694598 0.883568 0.390355 0.112384
H4    H     H_    0.305314 0.336715 0.609750 0.110582
H5    H     H_    0.983774 0.873060 0.340462 0.094817
H6    H     H_    0.016409 0.352091 0.659969 0.094988
H7    H     H_    0.798084 0.851648 0.433158 0.123631
H8    H     H_    0.202071 0.359983 0.567131 0.123717
H9    H     H_    0.919294 0.864642 0.474674 0.122193
H10   H     H_    0.081028 0.351285 0.525832 0.123356
H11   H     H_    0.817249 0.863293 0.025292 0.167913
H12   H     H_    0.182738 0.366143 0.974754 0.165630
H13   H     H_    0.098612 0.758306 0.466171 0.119492
H14   H     H_    0.898421 0.476866 0.531925 0.120132
C33   C     C_R   0.241709 0.898145 0.030864 0.327094
C34   C     C_R   0.759977 0.311900 0.969487 0.341304
C35   C     C_R   0.301495 0.913866 0.995804 -0.221374
C36   C     C_R   0.701132 0.278162 0.004548 -0.202976
C37   C     C_R   0.364161 0.908450 0.063226 0.022183
C38   C     C_R   0.638807 0.265180 0.936982 -0.003390
C39   C     C_R   0.368552 0.890615 0.167573 0.002717
C40   C     C_R   0.633605 0.284603 0.832595 0.003047
C41   C     C_R   0.309826 0.876073 0.207345 0.122304
C42   C     C_R   0.691252 0.319941 0.792779 0.142548
C43   C     C_R   0.244248 0.878579 0.138558 0.009234
C44   C     C_R   0.756696 0.331269 0.861468 0.012050
C45   C     C_R   0.316690 0.853627 0.314296 -0.252259
C46   C     C_R   0.683313 0.348927 0.686025 -0.261045
C47   C     C_R   0.258379 0.829843 0.354116 0.124441
C48   C     C_R   0.740717 0.384766 0.645835 0.126290
C49   C     C_R   0.192824 0.830142 0.287163 0.126198
C50   C     C_R   0.806412 0.390579 0.712183 0.125726
C51   C     C_R   0.185143 0.856351 0.179811 -0.267217
C52   C     C_R   0.815006 0.362308 0.819581 -0.285775
C53   C     C_R   0.264171 0.804935 0.460681 -0.185708
C54   C     C_R   0.734037 0.412220 0.539243 -0.182421
C55   C     C_R   0.206946 0.779844 0.500276 -0.105673
C56   C     C_R   0.790497 0.445011 0.499013 -0.108904
C57   C     C_R   0.142927 0.778736 0.435092 -0.110705
C58   C     C_R   0.854659 0.451201 0.563521 -0.110824
C59   C     C_R   0.135674 0.803719 0.329919 -0.163498
C60   C     C_R   0.862808 0.424100 0.668677 -0.163344
H15   H     H_    0.299383 0.925180 0.914451 0.160777
H16   H     H_    0.703364 0.268227 0.085984 0.158644
H17   H     H_    0.409742 0.921320 0.034433 0.180594
H18   H     H_    0.593897 0.245717 0.966227 0.198236
H19   H     H_    0.418789 0.889666 0.216949 0.068342
H20   H     H_    0.583412 0.274915 0.783647 0.075048
H21   H     H_    0.312914 0.804539 0.514567 0.118924
H22   H     H_    0.685239 0.407729 0.485678 0.122349
H23   H     H_    0.212352 0.760690 0.581944 0.141626
H24   H     H_    0.784398 0.465462 0.417310 0.142367
H25   H     H_    0.084784 0.801075 0.282590 0.078452
H26   H     H_    0.913861 0.429880 0.715236 0.080719
O11   O     O_R   0.913760 0.203480 0.916370 -0.590440
O12   O     O_R   0.086240 0.703480 0.083630 -0.552989
O13   O     O_R   0.047590 0.535230 0.888250 -0.544208
O14   O     O_R   0.952410 0.035230 0.111750 -0.556939
C61   C     C_R   0.063902 0.368312 0.862287 0.884124
C62   C     C_R   0.936171 0.868957 0.137789 0.880718
O15   O     O_R   0.912020 0.532880 0.904260 -0.566477
O16   O     O_R   0.087980 0.032880 0.095740 -0.600695
O17   O     O_R   0.949590 0.708460 0.099750 -0.542478
O18   O     O_R   0.050410 0.208460 0.900250 -0.560434
C63   C     C_R   0.885110 0.365982 0.885544 0.981034
C64   C     C_R   0.115094 0.864748 0.113607 0.969852
O19   O     O_3   0.012370 0.375360 0.064120 -0.280350
O20   O     O_3   0.987630 0.875360 0.935880 -0.282638
V3    V     V_3+5 0.997700 0.648160 0.988110 1.272364
V4    V     V_3+5 0.002300 0.148160 0.011890 1.247114
N1    N     N_R   0.180785 0.878903 0.953809 0.212776
O21   O     O_R   0.166974 0.994335 0.878231 -0.440295
O22   O     O_R   0.156240 0.717063 0.937601 -0.411241
N2    N     N_R   0.819886 0.346751 0.046496 0.212460
O23   O     O_R   0.835245 0.242531 0.127148 -0.433381
O24   O     O_R   0.842618 0.511361 0.054597 -0.422547
N3    N     N_R   0.691000 0.816790 0.946677 0.251380
O25   O     O_R   0.712244 0.920735 0.881951 -0.429545
O26   O     O_R   0.664652 0.662010 0.913311 -0.379879
N4    N     N_R   0.309034 0.396829 0.055031 0.254658
O27   O     O_R   0.277737 0.499621 0.108805 -0.409243
O28   O     O_R   0.351142 0.275151 0.103922 -0.385505
N5    N     N_R   0.568973 0.798409 0.000990 0.256881
O29   O     O_R   0.540285 0.939086 0.948915 -0.408843
O30   O     O_R   0.547290 0.636722 0.971576 -0.351821
N6    N     N_R   0.433118 0.404569 0.999330 0.273508
O31   O     O_R   0.430305 0.558067 0.046446 -0.383784
O32   O     O_R   0.480890 0.287311 0.037505 -0.374169

loop_
_geom_bond_atom_site_label_1
_geom_bond_atom_site_label_2
_geom_bond_distance
_ccdc_geom_bond_type
C40   C42   1.414574 A    
C37   C39   1.385718 A    
O12   C64   1.345892 A    
C9    C31   1.395758 A    
C13   C15   1.420287 A    
O13   V3    2.023445 S    
C43   C51   1.437599 A    
O1    C3    1.338483 A    
C38   H18   1.078951 S    
O2    C4    1.340837 A    
O11   V4    1.989068 S    
C5    C29   1.395578 A    
C52   C63   1.492445 S    
O5    C3    1.340105 A    
C48   C50   1.423145 A    
O16   V4    2.016535 S    
C50   C52   1.423424 A    
O15   V3    2.033567 S    
C21   C23   1.425081 A    
C11   H9    1.082916 S    
C53   H21   1.082310 S    
C1    C46   1.490088 S    
C6    C30   1.397502 A    
C55   H23   1.082827 S    
C9    H5    1.081764 S    
C44   C52   1.437012 A    
N1    O21   1.297036 A    
O11   C63   1.342503 A    
C15   C19   1.431672 A    
C34   C36   1.399944 A    
O18   V4    2.011297 S    
C35   C37   1.380390 A    
C33   N1    1.425788 S    
N2    O23   1.298703 A    
O17   V3    2.008333 S    
C36   C38   1.380138 A    
C35   H15   1.083502 S    
H2    C30   1.081633 S    
C7    C29   1.387603 A    
C49   C59   1.417153 A    
C25   H11   1.082931 S    
C13   H7    1.075753 S    
C39   C41   1.413427 A    
C20   C28   1.415992 A    
H13   C57   1.082691 S    
C34   N2    1.428298 S    
C61   O18   1.332132 A    
C16   C18   1.417777 A    
C20   C22   1.440973 A    
O6    C4    1.339658 A    
O5    V1    2.023083 S    
O6    V2    2.029185 S    
C48   C54   1.416672 A    
C47   C49   1.423140 A    
C2    O7    1.321802 A    
C12   H10   1.082950 S    
O20   V3    1.797445 S    
C55   C57   1.388809 A    
H1    C29   1.080494 S    
C10   H6    1.082169 S    
C2    C45   1.489315 S    
C23   C25   1.391684 A    
C8    C30   1.385807 A    
C33   C35   1.399558 A    
C56   H24   1.082797 S    
C16   C20   1.432690 A    
C46   C48   1.413638 A    
C53   C55   1.392641 A    
C5    N5    1.428454 S    
C40   H20   1.080186 S    
C26   H12   1.083018 S    
C36   H16   1.083444 S    
C4    C7    1.466103 S    
C41   C43   1.433906 A    
C38   C40   1.384740 A    
O4    V2    2.016594 S    
N6    O32   1.301125 A    
N5    O30   1.299455 A    
O14   V4    2.029544 S    
C31   C62   1.470959 S    
H14   C58   1.082740 S    
C34   C44   1.439564 A    
C42   C46   1.417212 A    
C37   H17   1.082556 S    
C27   H3    1.076523 S    
O1    V2    2.007909 S    
C28   H4    1.075807 S    
O14   C62   1.332393 A    
O2    V1    2.005052 S    
C49   C51   1.422866 A    
N3    O25   1.300115 A    
C33   C43   1.438182 A    
C7    C27   1.390405 A    
O4    C2    1.320487 A    
C57   C59   1.394016 A    
C56   C58   1.388500 A    
C23   N3    1.436996 S    
C6    N6    1.429770 S    
C54   H22   1.082069 S    
N5    O29   1.299603 A    
C50   C60   1.417744 A    
O3    V1    2.033649 S    
N4    O28   1.296282 A    
O16   C64   1.343273 A    
C39   H19   1.079989 S    
N1    O22   1.291285 A    
C18   C32   1.421551 A    
O12   V3    1.997752 S    
C10   C12   1.386862 A    
C58   C60   1.393704 A    
O3    C1    1.321463 A    
C11   C13   1.392834 A    
C47   C53   1.416368 A    
C32   C61   1.470931 S    
C3    C8    1.465475 S    
C12   C14   1.392846 A    
O13   C61   1.332046 A    
C19   C27   1.416441 A    
C22   C24   1.429278 A    
N6    O31   1.298825 A    
O7    V1    2.008313 S    
C10   C32   1.395295 A    
C1    O8    1.320658 A    
C15   C17   1.419157 A    
O8    V2    1.998499 S    
C24   C26   1.392586 A    
C14   H8    1.075235 S    
C8    C28   1.388290 A    
O15   C63   1.345822 A    
C14   C16   1.421576 A    
C19   C21   1.437958 A    
C54   C56   1.392372 A    
C17   C25   1.399496 A    
O19   V4    1.804208 S    
C41   C45   1.416296 A    
C18   C26   1.398975 A    
C51   C64   1.492803 S    
C60   H26   1.080495 S    
N2    O24   1.292514 A    
N3    O26   1.295988 A    
C59   H25   1.080624 S    
C9    C11   1.387381 A    
C42   C44   1.434623 A    
C17   C31   1.420429 A    
O9    V2    1.804278 S    
C45   C47   1.413298 A    
O10   V1    1.797488 S    
C5    C21   1.428915 A    
C6    C22   1.432485 A    
C62   O17   1.333340 A    
C24   N4    1.440602 S    
N4    O27   1.299151 A    
