data_mof_unit_27578.cif
_audit_creation_date              2012-12-10T19:24:09-0500
_audit_creation_method            fapswitch 2.2
_symmetry_space_group_name_H-M    P1
_symmetry_Int_Tables_number       1
_space_group_crystal_system       triclinic
_cell_length_a                    10.658875
_cell_length_b                    10.620522
_cell_length_c                    9.738176
_cell_angle_alpha                 90.41634
_cell_angle_beta                  90.189878
_cell_angle_gamma                 91.287934
_cell_volume                      1102.07468448

loop_
_atom_site_label
_atom_site_type_symbol
_atom_type_description
_atom_site_fract_x
_atom_site_fract_y
_atom_site_fract_z
_atom_type_partial_charge
C1    C     C_R   0.509606 0.258265 0.499618 0.890169
C2    C     C_3   0.587075 0.574815 0.049508 -0.058391
C3    C     C_R   0.257150 0.495875 0.499819 0.896413
C4    C     C_R   0.741537 0.509703 0.500264 0.952717
C5    C     C_3   0.034367 0.453056 0.617556 0.146625
C6    C     C_3   0.961423 0.558586 0.384004 0.153099
C7    C     C_3   0.947044 0.390937 0.509678 0.108193
C8    C     C_3   0.049411 0.620468 0.491571 0.153295
C9    C     C_3   0.875266 0.513612 0.500955 -0.190919
C10   C     C_3   0.121742 0.496664 0.499457 -0.203718
C11   C     C_3   0.962451 0.576689 0.609587 -0.030480
C12   C     C_R   0.501903 0.742409 0.500467 0.933774
C13   C     C_3   0.032201 0.434515 0.390871 -0.069555
C14   C     C_3   0.568499 0.041387 0.614055 0.217294
C15   C     C_3   0.458034 0.958233 0.385344 0.251012
C16   C     C_3   0.628720 0.957810 0.505215 0.191817
C17   C     C_3   0.398102 0.041490 0.493568 0.149135
C18   C     C_3   0.507931 0.877030 0.501356 -0.110829
C19   C     C_3   0.517296 0.123611 0.498573 -0.140234
C20   C     C_3   0.960263 0.164705 0.559075 -0.793894
C21   C     C_3   0.145961 0.804370 0.604687 -0.841028
C22   C     C_3   0.979936 0.362576 0.842172 -0.769035
C23   C     C_3   0.446753 0.960414 0.612104 -0.317304
C24   C     C_3   0.004146 0.676776 0.171327 -0.805623
C25   C     C_2   0.923186 0.652394 0.732399 0.394688
C26   C     C_2   0.055049 0.359057 0.263256 0.362795
C27   C     C_3   0.805747 0.869548 0.384314 -0.751442
C28   C     C_3   0.241489 0.157415 0.365367 -0.721223
C29   C     C_3   0.657642 0.002685 0.841527 -0.786967
C30   C     C_3   0.447471 0.932244 0.134353 -0.809087
C31   C     C_3   0.579678 0.040691 0.387018 -0.302889
C32   C     C_3   0.519435 0.388436 0.047755 -0.080164
C33   C     C_3   0.480731 0.611584 0.952162 -0.086248
C34   C     C_3   0.606379 0.463263 0.951343 -0.061412
C35   C     C_3   0.393768 0.536884 0.048576 -0.039131
C36   C     C_3   0.412993 0.425250 0.950511 -0.046759
H1    H     H_    0.394238 0.927145 0.703652 0.158105
H2    H     H_    0.920217 0.118950 0.651326 0.236190
H3    H     H_    0.056491 0.196180 0.585938 0.274640
H4    H     H_    0.964075 0.095656 0.473306 0.237379
H5    H     H_    0.182455 0.742020 0.406367 0.232394
H6    H     H_    0.196585 0.739592 0.673600 0.237774
H7    H     H_    0.061878 0.842460 0.655414 0.253394
H8    H     H_    0.207471 0.885383 0.582643 0.262214
H9    H     H_    0.150774 0.443655 0.789368 0.239936
H10   H     H_    0.017609 0.294217 0.916557 0.251055
H11   H     H_    0.896520 0.318786 0.791067 0.262862
H12   H     H_    0.633155 0.077490 0.297712 0.153870
H13   H     H_    0.950853 0.447418 0.900031 0.224152
H14   H     H_    0.856542 0.550482 0.203957 0.234229
H15   H     H_    0.957898 0.703955 0.073948 0.231327
H16   H     H_    0.083371 0.614909 0.146624 0.271352
H17   H     H_    0.039830 0.764400 0.221509 0.247370
H18   H     H_    0.989940 0.670985 0.814723 0.043055
H19   H     H_    0.989942 0.283342 0.234661 0.054812
H20   H     H_    0.811889 0.948642 0.580275 0.238831
H21   H     H_    0.896067 0.824232 0.403310 0.282479
H22   H     H_    0.824260 0.955137 0.322086 0.213157
H23   H     H_    0.695750 0.432261 0.905256 0.132705
H24   H     H_    0.742662 0.803019 0.326932 0.262807
H25   H     H_    0.248191 0.132666 0.577642 0.223460
H26   H     H_    0.143165 0.134255 0.336583 0.229220
H27   H     H_    0.301507 0.133454 0.276724 0.256910
H28   H     H_    0.253354 0.259228 0.386097 0.263327
H29   H     H_    0.702345 0.154727 0.715102 0.228358
H30   H     H_    0.689548 0.053645 0.935738 0.225177
H31   H     H_    0.733242 0.939764 0.807253 0.265814
H32   H     H_    0.572908 0.945162 0.867293 0.253237
H33   H     H_    0.297043 0.905556 0.270795 0.230252
H34   H     H_    0.305038 0.569454 0.094510 0.156873
H35   H     H_    0.391969 0.882951 0.052808 0.225944
H36   H     H_    0.545414 0.898812 0.130015 0.252033
H37   H     H_    0.446363 0.035158 0.115010 0.237325
H38   H     H_    0.535736 0.294474 0.092914 0.126084
H39   H     H_    0.464660 0.705259 0.906364 0.126360
H40   H     H_    0.340464 0.361534 0.903854 0.135321
H41   H     H_    0.659611 0.638493 0.096295 0.128135
H42   H     H_    0.817621 0.249641 0.446241 0.205787
N1    N     N_3   0.499910 0.500030 0.863290 -0.081735
N2    N     N_2   0.393574 0.904142 0.266718 -0.288711
N3    N     N_3   0.500090 0.499970 0.136710 -0.080978
N4    N     N_2   0.883607 0.269444 0.521453 -0.318442
N5    N     N_2   0.111099 0.742373 0.477522 -0.307774
N6    N     N_2   0.076603 0.395485 0.743831 -0.302094
N7    N     N_2   0.913749 0.612714 0.258180 -0.298067
N8    N     N_2   0.750907 0.902634 0.514378 -0.282229
N9    N     N_2   0.272966 0.088825 0.487477 -0.341653
N10   N     N_2   0.629279 0.092750 0.735958 -0.295225
O1    O     O_R   0.500010 0.313960 0.616610 -0.617706
O2    O     O_2   0.142796 0.385295 0.187897 -0.597325
O3    O     O_R   0.499990 0.686040 0.383390 -0.616332
O4    O     O_R   0.500060 0.313950 0.383350 -0.627001
O5    O     O_R   0.499940 0.686050 0.616650 -0.608915
O6    O     O_R   0.313930 0.499970 0.616610 -0.647863
O7    O     O_R   0.686070 0.500030 0.383390 -0.663357
O8    O     O_R   0.313980 0.499960 0.383350 -0.583324
O9    O     O_R   0.686020 0.500040 0.616650 -0.578251
O10   O     O_2   0.817943 0.694527 0.740199 -0.573207
Zn1   Zn    Zn3+2 0.499970 0.500010 0.655740 0.966690
Zn2   Zn    Zn3+2 0.500030 0.499990 0.344260 0.953100

loop_
_geom_bond_atom_site_label_1
_geom_bond_atom_site_label_2
_ccdc_geom_bond_type
C24   H16   S    
C15   C18   S    
C20   N4    S    
C8    N5    S    
C29   H32   S    
C5    N6    S    
C12   O3    A    
C35   C36   S    
C19   C31   S    
C26   H19   S    
C6    C9    S    
C30   H35   S    
C35   N3    S    
C16   C31   S    
C32   N3    S    
C17   C23   S    
C6    N7    S    
O1    Zn1   S    
C32   C36   S    
N1    Zn1   S    
C5    C11   S    
C27   H24   S    
C32   H38   S    
C20   H4    S    
C11   C25   S    
H5    N5    S    
C15   C17   S    
C29   N10   S    
C36   H40   S    
H14   N7    S    
C17   C19   S    
C21   H7    S    
C33   H39   S    
C21   N5    S    
C35   H34   S    
C21   H8    S    
C3    O8    A    
O3    Zn2   S    
H25   N9    S    
C24   N7    S    
O5    Zn1   S    
C30   N2    S    
C2    C34   S    
C24   H15   S    
C22   H11   S    
C29   H31   S    
C4    O9    A    
C16   N8    S    
O9    Zn1   S    
C1    C19   S    
C18   C23   S    
C25   H18   S    
C27   H21   S    
C5    C7    S    
C30   H37   S    
O7    Zn2   S    
C33   N1    S    
C6    C8    S    
C24   H17   S    
C23   H1    S    
C10   C13   S    
C21   H6    S    
C22   N6    S    
C14   C23   S    
C27   N8    S    
C34   N1    S    
C4    O7    A    
C20   H2    S    
H42   N4    S    
H20   N8    S    
C15   N2    S    
C28   N9    S    
C9    C11   S    
C22   H13   S    
C28   H28   S    
C2    C33   S    
C16   C18   S    
C22   H10   S    
C1    O4    A    
C31   H12   S    
C34   H23   S    
C14   C16   S    
C13   C26   S    
H9    N6    S    
O4    Zn2   S    
H29   N10   S    
C7    C9    S    
C1    O1    A    
C17   N9    S    
C14   C19   S    
C2    N3    S    
C36   N1    S    
C30   H36   S    
C15   C31   S    
N3    Zn2   S    
C26   O2    D    
C20   H3    S    
C14   N10   S    
C5    C10   S    
C3    C10   S    
C6    C13   S    
O6    Zn1   S    
C27   H22   S    
C8    C11   S    
O8    Zn2   S    
C33   C35   S    
C3    O6    A    
C12   O5    A    
C29   H30   S    
C28   H27   S    
C25   O10   D    
C7    C13   S    
C7    N4    S    
C8    C10   S    
C12   C18   S    
C2    H41   S    
H33   N2    S    
C4    C9    S    
C32   C34   S    
C28   H26   S    
