data_mof_unit_43703.cif
_audit_creation_date              2012-12-11T15:18:35-0500
_audit_creation_method            fapswitch 2.2
_symmetry_space_group_name_H-M    P1
_symmetry_Int_Tables_number       1
_space_group_crystal_system       triclinic
_cell_length_a                    6.943936
_cell_length_b                    19.909187
_cell_length_c                    23.737001
_cell_angle_alpha                 93.590556
_cell_angle_beta                  91.197425
_cell_angle_gamma                 88.895609
_cell_volume                      3273.90822035

loop_
_atom_site_label
_atom_site_type_symbol
_atom_type_description
_atom_site_fract_x
_atom_site_fract_y
_atom_site_fract_z
_atom_type_partial_charge
O1    O     O_R   0.620100 0.812200 0.810870 -0.539943
O2    O     O_R   0.379900 0.187800 0.189130 -0.531291
O3    O     O_R   0.296960 0.671650 0.794750 -0.541840
O4    O     O_R   0.703040 0.328350 0.205250 -0.539117
O5    O     O_R   0.120160 0.687800 0.689130 -0.542670
O6    O     O_R   0.879840 0.312200 0.310870 -0.540735
C1    C     C_R   0.468713 0.646992 0.804611 0.688960
C2    C     C_R   0.531668 0.353328 0.195761 0.694694
O7    O     O_R   0.290810 0.810670 0.817290 -0.533286
O8    O     O_R   0.709190 0.189330 0.182710 -0.544372
O9    O     O_R   0.113980 0.827820 0.711840 -0.516969
O10   O     O_R   0.886020 0.172180 0.288160 -0.543977
C3    C     C_R   0.459394 0.831991 0.834086 0.724187
C4    C     C_R   0.539740 0.168481 0.165567 0.699681
O11   O     O_R   0.626290 0.672180 0.788160 -0.537106
O12   O     O_R   0.373710 0.327820 0.211840 -0.536297
O13   O     O_3   0.451520 0.755460 0.715370 -0.370247
O14   O     O_3   0.548480 0.244540 0.284630 -0.371536
V1    V     V_3+5 0.179200 0.748980 0.756420 1.445506
V2    V     V_3+5 0.820800 0.251020 0.243580 1.413341
O15   O     O_R   0.783880 0.828350 0.705250 -0.545542
O16   O     O_R   0.216120 0.171650 0.294750 -0.534248
C5    C     C_R   0.951485 0.852762 0.694881 0.753358
C6    C     C_R   0.049020 0.147502 0.305426 0.744075
O17   O     O_R   0.790030 0.689320 0.682700 -0.546263
O18   O     O_R   0.209970 0.310680 0.317300 -0.545866
C7    C     C_R   0.958782 0.668246 0.665649 0.696954
C8    C     C_R   0.041218 0.331743 0.334358 0.701348
V3    V     V_3+5 0.678400 0.751010 0.743570 1.418812
V4    V     V_3+5 0.321600 0.248990 0.256430 1.425746
O19   O     O_3   0.955950 0.744540 0.784620 -0.368860
O20   O     O_3   0.044050 0.255460 0.215380 -0.364981
C9    C     C_R   0.182088 0.425815 0.396467 -0.223918
C10   C     C_R   0.817927 0.574154 0.603552 -0.224189
C11   C     C_R   0.031325 0.380670 0.384026 -0.081476
C12   C     C_R   0.968684 0.619303 0.615990 -0.080362
C13   C     C_R   0.868534 0.383409 0.418558 -0.223536
C14   C     C_R   0.131496 0.616550 0.581465 -0.223320
C15   C     C_R   0.856153 0.430186 0.465191 0.089428
C16   C     C_R   0.143885 0.569767 0.534837 0.089160
C17   C     C_R   0.006484 0.475994 0.476844 0.052561
C18   C     C_R   0.993552 0.523960 0.523184 0.052478
C19   C     C_R   0.169555 0.473996 0.442177 0.090979
C20   C     C_R   0.830476 0.525962 0.557849 0.090918
C21   C     C_R   0.695920 0.432043 0.500380 -0.192388
C22   C     C_R   0.304124 0.567907 0.499650 -0.192075
C23   C     C_R   0.683383 0.479416 0.546347 -0.184590
C24   C     C_R   0.316656 0.520538 0.453682 -0.184238
H1    H     H_    0.307286 0.424404 0.369838 0.121066
H2    H     H_    0.692718 0.575572 0.630177 0.121108
H3    H     H_    0.752099 0.348613 0.409453 0.126656
H4    H     H_    0.247937 0.651342 0.590569 0.126481
H5    H     H_    0.579441 0.397103 0.492140 0.133123
H6    H     H_    0.420608 0.602845 0.507891 0.133244
H7    H     H_    0.557735 0.479932 0.572700 0.134516
H8    H     H_    0.442303 0.520022 0.427329 0.134767
C25   C     C_R   0.962594 0.915909 0.665406 -0.125262
C26   C     C_R   0.042063 0.085985 0.337139 -0.133600
C27   C     C_R   0.060961 0.032137 0.666215 -0.253694
C28   C     C_R   0.015850 0.964928 0.337434 -0.229434
C29   C     C_R   0.037280 0.973324 0.694910 0.409555
C30   C     C_R   0.036788 0.022685 0.307681 0.405593
C31   C     C_R   0.926770 0.916122 0.606831 -0.296196
C32   C     C_R   0.027462 0.090629 0.396439 -0.290552
C33   C     C_R   0.968876 0.973248 0.576264 0.094394
C34   C     C_R   0.007113 0.032141 0.427409 0.093505
C35   C     C_R   0.025047 0.032684 0.607787 0.088514
C36   C     C_R   0.994286 0.969310 0.396172 0.077577
C37   C     C_R   0.966901 0.972638 0.515646 0.070524
C38   C     C_R   0.001889 0.033372 0.488037 0.070790
C39   C     C_R   0.041011 0.092383 0.522031 -0.188319
C40   C     C_R   0.944679 0.912362 0.481841 -0.185288
C41   C     C_R   0.055842 0.091539 0.580485 -0.180749
C42   C     C_R   0.962014 0.910724 0.423604 -0.179471
H9    H     H_    0.096064 0.137373 0.604582 0.122365
H10   H     H_    0.950307 0.862716 0.399676 0.122517
H11   H     H_    0.027872 0.140521 0.416919 0.113739
H12   H     H_    0.873705 0.870197 0.586135 0.117158
H13   H     H_    0.119988 0.076306 0.688753 0.116794
H14   H     H_    0.017741 0.916143 0.314578 0.121501
H15   H     H_    0.071847 0.139524 0.504491 0.122509
H16   H     H_    0.923119 0.864556 0.499408 0.121237
C43   C     C_R   0.493334 0.585872 0.836202 -0.046327
C44   C     C_R   0.510369 0.415384 0.165214 -0.047377
C45   C     C_R   0.653418 0.477466 0.842057 -0.165487
C46   C     C_R   0.370289 0.527289 0.161607 -0.163350
C47   C     C_R   0.593241 0.530884 0.810677 -0.162606
C48   C     C_R   0.416293 0.471131 0.191558 -0.164259
C49   C     C_R   0.450599 0.586422 0.893891 -0.219507
C50   C     C_R   0.560392 0.416538 0.108223 -0.216056
C51   C     C_R   0.513811 0.532791 0.927336 0.086393
C52   C     C_R   0.511851 0.472996 0.076270 0.084527
C53   C     C_R   0.618055 0.478445 0.900012 0.143426
C54   C     C_R   0.413563 0.528245 0.104222 0.138172
C55   C     C_R   0.482172 0.531780 0.986899 0.057789
C56   C     C_R   0.551012 0.475626 0.017334 0.061248
C57   C     C_R   0.658378 0.424288 0.988000 -0.189881
C58   C     C_R   0.385615 0.585158 0.017152 -0.192139
C59   C     C_R   0.691545 0.426043 0.930753 -0.217827
C60   C     C_R   0.354500 0.583595 0.074615 -0.200370
H17   H     H_    0.777430 0.385886 0.910306 0.127714
H18   H     H_    0.279477 0.625842 0.095947 0.127888
H19   H     H_    0.626297 0.371287 0.089499 0.096495
H20   H     H_    0.376790 0.630643 0.911625 0.099687
H21   H     H_    0.374727 0.470553 0.235281 0.106983
H22   H     H_    0.630289 0.530382 0.766517 0.106611
H23   H     H_    0.733069 0.436000 0.821195 0.116147
H24   H     H_    0.295341 0.569453 0.183036 0.114580
H25   H     H_    0.722619 0.382283 0.008359 0.119927
H26   H     H_    0.332153 0.629422 0.997709 0.126408
C61   C     C_R   0.396852 0.066242 0.115884 -0.182447
C62   C     C_R   0.589915 0.937480 0.881826 -0.193859
C63   C     C_R   0.524781 0.120123 0.115650 -0.096027
C64   C     C_R   0.468556 0.882037 0.882888 -0.087001
C65   C     C_R   0.631239 0.128819 0.067045 -0.207945
C66   C     C_R   0.353584 0.875330 0.930139 -0.208793
C67   C     C_R   0.612320 0.083775 0.019010 0.011976
C68   C     C_R   0.361481 0.922853 0.976724 0.032615
C69   C     C_R   0.491417 0.027578 0.020946 -0.012270
C70   C     C_R   0.480945 0.979350 0.974642 -0.008201
C71   C     C_R   0.382101 0.019285 0.069338 0.064428
C72   C     C_R   0.593704 0.986843 0.926781 0.058301
C73   C     C_R   0.710381 0.093832 0.968733 0.416795
C74   C     C_R   0.255610 0.914302 0.025788 0.372174
C75   C     C_R   0.705723 0.044263 0.924108 -0.283963
C76   C     C_R   0.265956 0.962653 0.071415 -0.263635
H27   H     H_    0.313363 0.059654 0.153191 0.144788
H28   H     H_    0.676426 0.943251 0.845023 0.107218
H29   H     H_    0.726216 0.171321 0.066544 0.146688
H30   H     H_    0.261632 0.832053 0.930901 0.146703
H31   H     H_    0.785716 0.051788 0.886552 0.128191
H32   H     H_    0.188907 0.954343 0.109475 0.145576
O21   O     O_3   0.811229 0.152133 0.962470 -0.574613
C77   C     C_3   0.681284 0.203550 0.945973 0.070631
H33   H     H_    0.732869 0.252253 0.965535 0.131596
H34   H     H_    0.531761 0.198076 0.961437 0.116246
C78   C     C_3   0.678494 0.207689 0.881624 -0.327036
H35   H     H_    0.820161 0.225510 0.868251 0.190695
H36   H     H_    0.653737 0.157266 0.860416 0.192374
C79   C     C_3   0.519500 0.255496 0.862181 -0.836420
H37   H     H_    0.375724 0.236361 0.872020 0.236523
H38   H     H_    0.527068 0.259547 0.815850 0.229867
H39   H     H_    0.535806 0.306256 0.883370 0.237760
O22   O     O_3   0.171203 0.853368 0.033433 -0.574842
C80   C     C_3   0.971556 0.858491 0.022354 0.065939
H40   H     H_    0.943269 0.868597 0.977229 0.127346
H41   H     H_    0.903907 0.899330 0.049884 0.125250
C81   C     C_3   0.882310 0.791430 0.034602 -0.301232
H42   H     H_    0.956144 0.749839 0.009545 0.199862
H43   H     H_    0.903421 0.782717 0.080154 0.198957
C82   C     C_3   0.667885 0.790212 0.019938 -0.799073
H44   H     H_    0.591376 0.831722 0.044109 0.250807
H45   H     H_    0.607484 0.741574 0.030974 0.233152
H46   H     H_    0.645166 0.795256 0.973968 0.231619
O23   O     O_3   0.065835 0.016830 0.250048 -0.588388
C83   C     C_3   0.886961 0.011709 0.220434 0.067972
H47   H     H_    0.897426 0.041441 0.182545 0.147080
H48   H     H_    0.762070 0.033615 0.244725 0.108708
C84   C     C_3   0.848748 0.938171 0.200998 -0.330700
H49   H     H_    0.979281 0.915166 0.180888 0.206298
H50   H     H_    0.814272 0.909263 0.237818 0.187274
C85   C     C_3   0.680096 0.932533 0.159011 -0.815643
H51   H     H_    0.546623 0.953449 0.178862 0.244272
H52   H     H_    0.657077 0.878814 0.145635 0.234962
H53   H     H_    0.711008 0.960147 0.121135 0.232522
O24   O     O_3   0.116871 0.966411 0.748452 -0.573247
C86   C     C_3   0.054781 0.017227 0.788589 0.056772
H54   H     H_    0.987141 0.991174 0.822870 0.139321
H55   H     H_    0.944167 0.053134 0.772629 0.087245
C87   C     C_3   0.230174 0.055379 0.813083 -0.311381
H56   H     H_    0.351818 0.019382 0.819035 0.218546
H57   H     H_    0.275867 0.092289 0.783028 0.176073
C88   C     C_3   0.187666 0.092085 0.869955 -0.789210
H58   H     H_    0.070168 0.129990 0.865168 0.237791
H59   H     H_    0.318772 0.117997 0.886618 0.230853
H60   H     H_    0.146091 0.055731 0.901006 0.243732

loop_
_geom_bond_atom_site_label_1
_geom_bond_atom_site_label_2
_ccdc_geom_bond_type
C26   C30   A    
C1    C43   S    
C31   C33   A    
C58   H26   S    
C61   C71   A    
C41   H9    S    
C17   C18   A    
C43   C47   A    
C55   C56   A    
C79   H39   S    
C24   H8    S    
O4    C2    A    
V1    O19   S    
C77   C78   S    
C62   C64   A    
C80   H40   S    
C55   C58   A    
C86   H55   S    
C34   C38   A    
C88   H58   S    
C16   C22   A    
C78   H36   S    
O9    V1    S    
C44   C50   A    
C73   O21   S    
C23   H7    S    
C83   H47   S    
C11   C13   A    
C81   H43   S    
O3    C1    A    
C67   C69   A    
V2    O20   S    
C13   H3    S    
C46   C48   A    
C73   C75   A    
C14   H4    S    
C87   H56   S    
C36   C42   A    
C52   C56   A    
O13   V3    S    
C30   O23   S    
C28   C30   A    
C29   O24   S    
C32   H11   S    
C82   H46   S    
O7    C3    A    
C46   C54   A    
C27   C35   A    
O5    C7    A    
C45   C53   A    
O7    V1    S    
O6    C8    A    
C8    C11   S    
O8    V2    S    
C33   C35   A    
C82   H44   S    
C84   H50   S    
O3    V1    S    
C38   C39   A    
C35   C41   A    
C76   H32   S    
C49   C51   A    
C19   C24   A    
C53   C59   A    
C10   C12   A    
C3    C64   S    
C20   C23   A    
C15   C21   A    
C69   C71   A    
C16   C18   A    
C21   H5    S    
C2    O12   A    
C26   C32   A    
C17   C19   A    
C22   H6    S    
C18   C20   A    
O1    V3    S    
C80   H41   S    
C70   C72   A    
O11   V3    S    
C86   C87   S    
C85   H52   S    
C21   C23   A    
O17   V3    S    
C43   C49   A    
C78   C79   S    
C22   C24   A    
C10   H2    S    
C27   C29   A    
C34   C36   A    
C45   C47   A    
C9    C19   A    
C81   C82   S    
C10   C20   A    
C81   H42   S    
C40   C42   A    
C57   C59   A    
C27   H13   S    
C86   H54   S    
C39   C41   A    
O13   V1    S    
C77   H34   S    
C1    O11   A    
C65   C67   A    
O15   V3    S    
C32   C34   A    
C37   C40   A    
C62   C72   A    
V4    O20   S    
C51   C53   A    
C85   H53   S    
C57   H25   S    
C75   H31   S    
C50   C52   A    
C84   H49   S    
C54   C60   A    
C56   C57   A    
O10   V2    S    
C60   H18   S    
C84   C85   S    
C61   C63   A    
C68   C74   A    
C79   H37   S    
C88   H59   S    
C42   H10   S    
O14   V4    S    
C6    C26   S    
C59   H17   S    
O18   V4    S    
C58   C60   A    
O15   C5    A    
C49   H20   S    
C61   H27   S    
O24   C86   S    
O16   C6    A    
O1    C3    A    
O12   V4    S    
C12   C14   A    
C80   C81   S    
C74   C76   A    
C85   H51   S    
C65   H29   S    
C88   H60   S    
C5    C25   S    
C28   H14   S    
O16   V4    S    
C2    C44   S    
C83   C84   S    
C46   H24   S    
C44   C48   A    
C25   C31   A    
C79   H38   S    
O22   C80   S    
C64   C66   A    
C69   C70   A    
C25   C29   A    
C77   H33   S    
O5    V1    S    
C7    C12   S    
O17   C7    A    
C4    C63   S    
O6    V2    S    
C78   H35   S    
O10   C6    A    
O18   C8    A    
O2    V4    S    
C72   C75   A    
C83   H48   S    
C67   C73   A    
C71   C76   A    
C13   C15   A    
C15   C17   A    
C14   C16   A    
C48   H21   S    
C52   C54   A    
O21   C77   S    
C47   H22   S    
C87   H57   S    
C33   C37   A    
O9    C5    A    
C9    C11   A    
C66   C68   A    
O14   V2    S    
C82   H45   S    
C37   C38   A    
O2    C4    A    
C68   C70   A    
C50   H19   S    
C62   H28   S    
C51   C55   A    
O4    V2    S    
C66   H30   S    
C28   C36   A    
V3    O19   S    
O23   C83   S    
C74   O22   S    
C63   C65   A    
C45   H23   S    
C9    H1    S    
C31   H12   S    
C40   H16   S    
O8    C4    A    
C39   H15   S    
C87   C88   S    
