data_mof_unit_31444.cif
_audit_creation_date              2013-03-05T15:42:07-0500
_audit_creation_method            fapswitch 2.2
_symmetry_space_group_name_H-M    P1
_symmetry_Int_Tables_number       1
_space_group_crystal_system       triclinic
_cell_length_a                    22.133331
_cell_length_b                    7.222765
_cell_length_c                    14.874981
_cell_angle_alpha                 90.031904
_cell_angle_beta                  107.430874
_cell_angle_gamma                 90.380978
_cell_volume                      2268.714741

loop_
_atom_site_label
_atom_site_type_symbol
_atom_site_description
_atom_site_fract_x
_atom_site_fract_y
_atom_site_fract_z
_atom_type_partial_charge
O1    O     O_R   0.584770 0.505770 0.002090 -0.529056
O2    O     O_R   0.415230 0.005770 0.997910 -0.519079
O3    O     O_R   0.467060 0.173340 0.861950 -0.532478
O4    O     O_R   0.532940 0.673340 0.138050 -0.546502
C1    C     C_R   0.454643 0.344485 0.825602 0.815133
C2    C     C_R   0.544841 0.845492 0.174595 0.788233
O5    O     O_R   0.587510 0.175890 0.993210 -0.569046
O6    O     O_R   0.412490 0.675890 0.006790 -0.575198
O7    O     O_R   0.536540 0.008150 0.130100 -0.564227
O8    O     O_R   0.463460 0.508150 0.869900 -0.557365
C3    C     C_R   0.613122 0.345426 0.998209 0.776762
C4    C     C_R   0.386815 0.844099 0.999977 0.750209
O9    O     O_3   0.483140 0.340040 0.044760 -0.277531
O10   O     O_3   0.516860 0.840040 0.955240 -0.264717
V1    V     V_3+5 0.503130 0.064190 0.991700 1.244141
V2    V     V_3+5 0.496870 0.564190 0.008300 1.230135
C5    C     C_2   0.215496 0.736656 0.001702 0.418498
C6    C     C_2   0.792360 0.244422 0.030336 0.326371
C7    C     C_2   0.182180 0.888547 0.011489 -0.154233
C8    C     C_2   0.819079 0.378742 0.990667 -0.082095
H1    H     H_    0.208216 0.015843 0.036934 0.120865
H2    H     H_    0.789854 0.473527 0.940190 0.129203
C9    C     C_2   0.286308 0.746295 0.030865 -0.238220
C10   C     C_2   0.721634 0.221926 0.005811 -0.217908
C11   C     C_2   0.316955 0.851842 0.981827 0.143232
C12   C     C_2   0.681949 0.365077 0.005982 0.192227
C13   C     C_R   0.925820 0.878335 0.722423 -0.193411
C14   C     C_R   0.073818 0.379795 0.277030 -0.202280
C15   C     C_R   0.570545 0.866185 0.277911 -0.152490
C16   C     C_R   0.428186 0.359404 0.722504 -0.160767
C17   C     C_R   0.927649 0.740294 0.573857 0.402737
C18   C     C_R   0.069141 0.232649 0.422139 0.387930
C19   C     C_R   0.955585 0.770268 0.670413 -0.124397
C20   C     C_R   0.038989 0.300022 0.331545 -0.126275
C21   C     C_R   0.865703 0.953121 0.678320 0.298276
C22   C     C_R   0.139426 0.407364 0.315685 0.269202
C23   C     C_R   0.831867 0.896419 0.584617 -0.024463
C24   C     C_R   0.169707 0.358827 0.411265 -0.034398
C25   C     C_R   0.865800 0.807274 0.529986 -0.024758
C26   C     C_R   0.135786 0.251006 0.459521 -0.074469
C27   C     C_R   0.765238 0.921131 0.543839 0.004355
C28   C     C_R   0.233904 0.405247 0.458450 0.042568
C29   C     C_R   0.736193 0.892644 0.445493 0.055875
C30   C     C_R   0.268171 0.307478 0.540832 0.013184
C31   C     C_R   0.776724 0.858215 0.388870 -0.063267
C32   C     C_R   0.236619 0.158497 0.571331 -0.050487
C33   C     C_R   0.838761 0.799326 0.431892 -0.024372
C34   C     C_R   0.170206 0.146696 0.537451 0.024855
C35   C     C_R   0.726332 0.959910 0.600335 -0.034745
C36   C     C_R   0.262820 0.556624 0.428444 -0.037315
C37   C     C_R   0.663015 0.004697 0.562431 0.363936
C38   C     C_R   0.326889 0.594947 0.466689 0.347507
C39   C     C_R   0.632989 0.980298 0.464556 -0.102754
C40   C     C_R   0.363719 0.486008 0.541913 -0.073112
C41   C     C_R   0.668386 0.901102 0.408784 -0.002029
C42   C     C_R   0.332432 0.361499 0.587168 -0.007928
C43   C     C_R   0.568828 0.029649 0.421124 0.401306
C44   C     C_R   0.430517 0.505143 0.575864 0.420090
C45   C     C_R   0.537463 0.972307 0.327512 -0.158444
C46   C     C_R   0.463489 0.441763 0.667866 -0.177264
C47   C     C_R   0.634682 0.827835 0.319691 0.008141
C48   C     C_R   0.364337 0.313584 0.681149 -0.069211
H3    H     H_    0.867742 0.762578 0.387526 0.145703
H4    H     H_    0.146145 0.040211 0.565142 0.179491
H5    H     H_    0.658398 0.746130 0.279712 0.079366
H6    H     H_    0.338603 0.253947 0.725623 0.110726
H7    H     H_    0.001438 0.710566 0.705260 0.159124
H8    H     H_    0.988441 0.279791 0.300926 0.175501
H9    H     H_    0.743767 0.951142 0.675960 0.168331
H10   H     H_    0.235014 0.652894 0.377192 0.141409
O11   O     O_R   0.036450 0.233070 0.130130 -0.559412
O12   O     O_R   0.963550 0.733070 0.869870 -0.563974
O13   O     O_R   0.912470 0.560570 0.006790 -0.544397
O14   O     O_R   0.087530 0.060570 0.993210 -0.540137
C49   C     C_R   0.887413 0.390842 0.001781 0.859544
C50   C     C_R   0.113060 0.892315 0.998936 0.860762
O15   O     O_R   0.032920 0.562940 0.138050 -0.534887
O16   O     O_R   0.967080 0.062940 0.861950 -0.519668
O17   O     O_R   0.084790 0.730500 0.002090 -0.515064
O18   O     O_R   0.915210 0.230500 0.997910 -0.514454
C51   C     C_R   0.044273 0.393930 0.174856 0.899358
C52   C     C_R   0.955047 0.893605 0.825002 0.890894
O19   O     O_3   0.016820 0.396170 0.955260 -0.264835
O20   O     O_3   0.983180 0.896170 0.044740 -0.271432
V3    V     V_3+5 0.996880 0.672090 0.008300 1.304613
V4    V     V_3+5 0.003120 0.172090 0.991700 1.321763
N1    N     N_R   0.184759 0.569233 0.957357 0.132633
O21   O     O_R   0.212645 0.410610 0.980102 -0.274397
O22   O     O_R   0.137224 0.578964 0.880683 -0.306407
N2    N     N_R   0.832073 0.118807 0.097196 0.081489
O23   O     O_R   0.827156 0.940991 0.082806 -0.324788
O24   O     O_R   0.875235 0.182954 0.170791 -0.359727
N3    N     N_R   0.842863 0.100239 0.724497 0.075142
O25   O     O_R   0.825375 0.256045 0.680863 -0.332406
O26   O     O_R   0.836268 0.076071 0.807778 -0.363648
N4    N     N_R   0.176429 0.444700 0.253012 0.078902
O27   O     O_R   0.165635 0.590670 0.199499 -0.349490
O28   O     O_R   0.219789 0.328375 0.247350 -0.277925
C53   C     C_2   0.760796 0.906239 0.287471 0.519663
H11   H     H_    0.784795 0.837283 0.243213 0.103976
O29   O     O_2   0.724128 0.031317 0.253894 -0.573935
C54   C     C_2   0.271414 0.998566 0.625529 0.539704
H12   H     H_    0.321528 0.981070 0.635140 0.037001
O30   O     O_2   0.243936 0.878873 0.656482 -0.500754
N5    N     N_R   0.538718 0.158070 0.467148 0.131955
O31   O     O_R   0.486379 0.114350 0.485026 -0.218765
O32   O     O_R   0.564303 0.320234 0.491537 -0.274165
N6    N     N_R   0.463912 0.577315 0.514080 0.149225
O33   O     O_R   0.496551 0.729560 0.535654 -0.234332
O34   O     O_R   0.450435 0.514963 0.428163 -0.247379
C55   C     C_2   0.321762 0.643176 0.117037 0.640639
H13   H     H_    0.372680 0.657065 0.146375 -0.015875
O35   O     O_2   0.293907 0.543890 0.158114 -0.422808
C56   C     C_2   0.696062 0.035028 0.982541 0.645272
H14   H     H_    0.705020 0.931436 0.037246 0.110658
O36   O     O_2   0.663226 0.999259 0.902474 -0.465149
N7    N     N_R   0.281519 0.965725 0.904299 0.098202
O37   O     O_R   0.302537 0.129183 0.891267 -0.314655
O38   O     O_R   0.231943 0.899541 0.840954 -0.277544
N8    N     N_R   0.706401 0.549202 0.015899 0.060466
O39   O     O_R   0.697239 0.648905 0.940467 -0.328171
O40   O     O_R   0.744747 0.606083 0.095783 -0.381704
C57   C     C_2   0.470702 0.025845 0.278738 0.730719
H15   H     H_    0.441076 0.936906 0.224119 -0.103699
O41   O     O_2   0.448878 0.172003 0.295575 -0.461345
C58   C     C_2   0.533837 0.457187 0.709047 0.742337
H16   H     H_    0.556644 0.412862 0.780794 -0.056312
O42   O     O_2   0.567841 0.514675 0.664041 -0.418650
N9    N     N_R   0.629851 0.059675 0.627396 0.127950
O43   O     O_R   0.654182 0.188213 0.689222 -0.273435
O44   O     O_R   0.586231 0.952207 0.641243 -0.242566
N10   N     N_R   0.351138 0.761834 0.437455 0.112433
O45   O     O_R   0.376649 0.888533 0.499685 -0.326196
O46   O     O_R   0.335975 0.803764 0.348428 -0.290675
N11   N     N_R   0.961242 0.632382 0.523215 0.110414
O47   O     O_R   0.022578 0.646179 0.544474 -0.292073
O48   O     O_R   0.932384 0.499672 0.467164 -0.318932
N12   N     N_R   0.031623 0.144590 0.474226 0.116562
O49   O     O_R   0.979759 0.056430 0.429925 -0.322155
O50   O     O_R   0.043789 0.175381 0.564140 -0.292284

loop_
_geom_bond_atom_site_label_1
_geom_bond_atom_site_label_2
_geom_bond_distance
_ccdc_geom_bond_type
C43   N5    1.433185 S    
N1    O21   1.301067 A    
C10   C56   1.460955 S    
N3    O25   1.301383 A    
O13   C49   1.334940 A    
C55   H13   1.083684 S    
O1    C3    1.330289 A    
C50   O17   1.329520 A    
O2    C4    1.327362 A    
C2    O7    1.335274 A    
O12   V3    2.018299 S    
C37   N9    1.434828 S    
N11   O47   1.301501 A    
C9    C11   1.365119 D    
C13   C19   1.397620 A    
O5    C3    1.338555 A    
N5    O32   1.300691 A    
C19   H7    1.084203 S    
C58   H16   1.084471 S    
O14   C50   1.335610 A    
C6    C10   1.504801 S    
C7    C50   1.485085 S    
C7    H1    1.087456 S    
C10   C12   1.361611 D    
C24   C28   1.421223 A    
N7    O38   1.301345 A    
C33   H3    1.083112 S    
C34   H4    1.082202 S    
C44   C46   1.421897 A    
N6    O33   1.297766 A    
C26   C34   1.404025 A    
C31   C33   1.399077 A    
C30   C42   1.433625 A    
O18   V4    2.022618 S    
C15   C45   1.413686 A    
C30   C32   1.425397 A    
N10   O45   1.300839 A    
C35   C37   1.385411 A    
N4    O28   1.301192 A    
C36   C38   1.386530 A    
C17   C19   1.399233 A    
C49   O18   1.324267 A    
C44   N6    1.437047 S    
O16   V4    2.012562 S    
C21   N3    1.439042 S    
O15   V3    2.017555 S    
O6    V2    2.033299 S    
C35   H9    1.076419 S    
C27   C29   1.424834 A    
C28   C30   1.423679 A    
C27   C35   1.400963 A    
C38   C40   1.413763 A    
C56   H14   1.080419 S    
C15   C47   1.398205 A    
C39   C41   1.422696 A    
C45   C57   1.491640 S    
C43   C45   1.417337 A    
C40   C42   1.418834 A    
C48   H6    1.081852 S    
C6    N2    1.439711 S    
C57   H15   1.085057 S    
O20   V3    1.763307 S    
C17   N11   1.438880 S    
C31   C53   1.484327 S    
C20   H8    1.083038 S    
C39   C43   1.420732 A    
O5    V1    2.023406 S    
C3    C12   1.498586 S    
C13   C21   1.406989 A    
C8    C49   1.473407 S    
C16   C46   1.414130 A    
C37   C39   1.418040 A    
C38   N10   1.435941 S    
O4    V2    2.012634 S    
C18   N12   1.439930 S    
O11   V4    2.015658 S    
C32   C54   1.489406 S    
O16   C52   1.332705 A    
N2    O24   1.301037 A    
C53   H11   1.084561 S    
O15   C51   1.332455 A    
O6    C4    1.335701 A    
N4    O27   1.301002 A    
C2    C15   1.477372 S    
C55   O35   1.219845 D    
O1    V2    2.022416 S    
C5    C9    1.496872 S    
O14   V4    2.033383 S    
C54   O30   1.220837 D    
O2    V1    2.017035 S    
C29   C31   1.425277 A    
O13   V3    2.023509 S    
N12   O50   1.301502 A    
C28   C36   1.402368 A    
N10   O46   1.301375 A    
C29   C41   1.436858 A    
C53   O29   1.221347 D    
C8    H2    1.079981 S    
C16   C48   1.399205 A    
C42   C48   1.408938 A    
O4    C2    1.349104 A    
O17   V3    2.017234 S    
O3    V1    2.017627 S    
N8    O39   1.298164 A    
N8    O40   1.300652 A    
C25   C33   1.402441 A    
N9    O43   1.301308 A    
C40   C44   1.417686 A    
N11   O48   1.301475 A    
C58   O42   1.218617 D    
C21   C23   1.428727 A    
C14   C51   1.467508 S    
C5    N1    1.442065 S    
C13   C52   1.471865 S    
C12   N8    1.423256 S    
O3    C1    1.346160 A    
C11   N7    1.445475 S    
C56   O36   1.221468 D    
N6    O34   1.301658 A    
C9    C55   1.489894 S    
N5    O31   1.300863 A    
C4    C11   1.489269 S    
C46   C58   1.496079 S    
C36   H10   1.081030 S    
C1    O8    1.337420 A    
C23   C25   1.417919 A    
O8    V2    2.007965 S    
N7    O37   1.301857 A    
C24   C26   1.414610 A    
N2    O23   1.300395 A    
C41   C47   1.412271 A    
C22   C24   1.423477 A    
C5    C7    1.357718 D    
C17   C25   1.416978 A    
C6    C8    1.356906 D    
C18   C26   1.417232 A    
C23   C27   1.429103 A    
C54   H12   1.083329 S    
C57   O41   1.220423 D    
N12   O49   1.301556 A    
C14   C20   1.397483 A    
C32   C34   1.405844 A    
C47   H5    1.080834 S    
O19   V4    1.760156 S    
C14   C22   1.405243 A    
N3    O26   1.301792 A    
C1    C16   1.472885 S    
O9    V2    1.760899 S    
N1    O22   1.301861 A    
O10   V1    1.764056 S    
O11   C51   1.322855 A    
O12   C52   1.324319 A    
O7    V1    2.010410 S    
C18   C20   1.401568 A    
C22   N4    1.437841 S    
N9    O44   1.298596 A    
