data_mof_unit_28709.cif
_audit_creation_date              2012-12-10T16:41:55-0500
_audit_creation_method            fapswitch 2.2
_symmetry_space_group_name_H-M    P1
_symmetry_Int_Tables_number       1
_space_group_crystal_system       triclinic
_cell_length_a                    10.882939
_cell_length_b                    8.691858
_cell_length_c                    7.522678
_cell_angle_alpha                 103.344665
_cell_angle_beta                  94.744058
_cell_angle_gamma                 93.453538
_cell_volume                      687.693891598

loop_
_atom_site_label
_atom_site_type_symbol
_atom_type_description
_atom_site_fract_x
_atom_site_fract_y
_atom_site_fract_z
_atom_type_partial_charge
C1    C     C_R   0.495359 0.199770 0.453078 0.881689
C2    C     C_2   0.506426 0.968696 0.572971 -0.345190
C3    C     C_R   0.265400 0.497739 0.500770 0.858937
C4    C     C_R   0.503806 0.800216 0.547040 0.839626
C5    C     C_R   0.734474 0.503414 0.499462 0.818478
C6    C     C_2   0.923298 0.481869 0.348286 -0.154759
C7    C     C_2   0.867202 0.514310 0.502463 -0.303249
C8    C     C_2   0.058053 0.489222 0.351413 -0.156671
C9    C     C_2   0.132715 0.490031 0.503005 -0.290062
C10   C     C_2   0.491000 0.031315 0.427692 -0.353321
Cu1   Cu    Cu3+1 0.513740 0.517380 0.684380 1.017873
Cu2   Cu    Cu3+1 0.486260 0.482620 0.315620 1.060561
H1    H     H_    0.869605 0.450914 0.214857 0.191112
H2    H     H_    0.918088 0.552489 0.637000 0.150278
H3    H     H_    0.096010 0.491043 0.222736 0.189673
H4    H     H_    0.098093 0.481050 0.631304 0.161349
H5    H     H_    0.474776 0.958491 0.288441 0.176306
H6    H     H_    0.521860 0.041481 0.712551 0.196067
N1    N     N_2   0.465540 0.456420 0.038510 0.081436
N2    N     N_2   0.534460 0.543580 0.961490 0.099723
O1    O     O_R   0.508930 0.286130 0.619780 -0.554362
O2    O     O_R   0.485720 0.256780 0.308360 -0.574880
O3    O     O_R   0.333540 0.514670 0.655670 -0.559333
O4    O     O_R   0.310330 0.485320 0.344250 -0.568268
O5    O     O_R   0.514280 0.743220 0.691640 -0.635633
O6    O     O_R   0.491070 0.713870 0.380220 -0.557291
O7    O     O_R   0.689670 0.514680 0.655750 -0.604551
O8    O     O_R   0.666460 0.485330 0.344330 -0.530070
Br1   Br    Br    0.335177 0.313765 0.904982 -0.422305
O9    O     O_3   0.636205 0.614581 0.070674 -0.469351
C11   C     C_3   0.663367 0.763911 0.035039 0.194977
H7    H     H_    0.579300 0.830651 0.033674 0.139974
H8    H     H_    0.705063 0.751732 0.903682 0.165952
C12   C     C_3   0.757933 0.859763 0.186462 -0.863709
H9    H     H_    0.844802 0.798969 0.187974 0.253133
H10   H     H_    0.778690 0.979564 0.162393 0.212172
H11   H     H_    0.721318 0.872740 0.322102 0.253690

loop_
_geom_bond_atom_site_label_1
_geom_bond_atom_site_label_2
_ccdc_geom_bond_type
C2    C4    S    
Cu1   Cu2   S    
C11   H8    S    
C1    O1    A    
C6    C7    D    
C3    C9    S    
C2    H6    S    
C12   H11   S    
Cu2   O4    S    
C4    O6    A    
N1    N2    D    
Cu1   O7    S    
C4    O5    A    
C11   C12   S    
C1    O2    A    
N1    Br1   S    
N2    O9    S    
C6    H1    S    
C3    O4    A    
Cu2   O8    S    
Cu2   N1    S    
Cu1   O3    S    
C9    H4    S    
C8    H3    S    
C12   H10   S    
O9    C11   S    
Cu1   N2    S    
Cu1   O5    S    
C10   H5    S    
C5    O8    A    
Cu2   O2    S    
C12   H9    S    
C5    C7    S    
C6    C8    S    
C5    O7    A    
C3    O3    A    
Cu1   O1    S    
C7    H2    S    
C1    C10   S    
C11   H7    S    
Cu2   O6    S    
C8    C9    D    
C2    C10   D    
