data_mof_unit_26230.cif
_audit_creation_date              2012-12-10T18:03:36-0500
_audit_creation_method            fapswitch 2.2
_symmetry_space_group_name_H-M    P1
_symmetry_Int_Tables_number       1
_space_group_crystal_system       triclinic
_cell_length_a                    10.824468
_cell_length_b                    9.599573
_cell_length_c                    19.421636
_cell_angle_alpha                 90.479815
_cell_angle_beta                  93.168158
_cell_angle_gamma                 89.838967
_cell_volume                      2014.94681909

loop_
_atom_site_label
_atom_site_type_symbol
_atom_type_description
_atom_site_fract_x
_atom_site_fract_y
_atom_site_fract_z
_atom_type_partial_charge
C1    C     C_R   0.871107 0.502815 0.496752 -0.026749
C2    C     C_R   0.737471 0.500405 0.498745 0.780779
C3    C     C_R   0.502192 0.499441 0.367804 0.749705
C4    C     C_R   0.498177 0.500048 0.632071 0.776823
C5    C     C_R   0.061384 0.382731 0.477837 -0.199380
C6    C     C_R   0.937214 0.622203 0.518534 -0.187334
C7    C     C_R   0.933678 0.385507 0.473781 -0.184524
C8    C     C_R   0.065364 0.622150 0.518901 -0.172288
C9    C     C_R   0.540100 0.382107 0.744196 -0.172730
C10   C     C_R   0.498897 0.623217 0.255364 -0.201329
C11   C     C_R   0.520506 0.372067 0.256346 -0.187439
C12   C     C_R   0.128056 0.501477 0.499339 -0.013216
C13   C     C_R   0.442382 0.609907 0.742937 -0.226706
C14   C     C_R   0.538137 0.379845 0.815756 -0.179435
C15   C     C_R   0.497951 0.621700 0.183727 -0.163915
C16   C     C_R   0.521761 0.370699 0.184659 -0.183312
C17   C     C_R   0.442757 0.608867 0.814663 -0.160859
C18   C     C_R   0.491109 0.494044 0.851318 0.108550
C19   C     C_R   0.508829 0.495395 0.147548 0.113278
C20   C     C_R   0.428657 0.073414 0.451362 0.358443
C21   C     C_R   0.574963 0.925977 0.546686 0.350032
C22   C     C_R   0.576911 0.075564 0.545493 0.366467
C23   C     C_R   0.553441 0.603559 0.963897 -0.178731
C24   C     C_R   0.419141 0.924516 0.456251 0.374226
C25   C     C_R   0.493986 0.498122 0.707360 -0.039305
C26   C     C_R   0.507073 0.498187 0.292279 -0.033541
C27   C     C_3   0.275822 0.174338 0.378977 0.122808
C28   C     C_3   0.234689 0.176268 0.302533 -0.875973
C29   C     C_3   0.611872 0.870191 0.662023 0.154467
C30   C     C_3   0.708147 0.943361 0.709858 -0.861260
C31   C     C_3   0.779935 0.128373 0.573828 0.112012
C32   C     C_3   0.864212 0.224306 0.618059 -0.797931
C33   C     C_3   0.295882 0.831240 0.364582 0.121518
C34   C     C_R   0.446323 0.385061 0.033754 -0.178387
C35   C     C_3   0.159400 0.830919 0.340336 -0.853885
C36   C     C_R   0.559804 0.602766 0.035666 -0.178590
C37   C     C_R   0.442118 0.384678 0.961947 -0.178170
C38   C     C_R   0.505521 0.493995 0.071385 0.100387
C39   C     C_R   0.494919 0.494388 0.926791 0.094744
C40   C     C_R   0.262238 0.500321 0.500113 0.754476
Cu1   Cu    Cu3+1 0.500000 0.640660 0.500000 0.991469
Cu2   Cu    Cu3+1 0.500000 0.359340 0.500000 0.993516
H1    H     H_    0.106904 0.287711 0.463783 0.120440
H2    H     H_    0.486683 0.719517 0.156742 0.121272
H3    H     H_    0.533477 0.272028 0.158388 0.126765
H4    H     H_    0.404583 0.696934 0.841594 0.128064
H5    H     H_    0.596047 0.688042 0.937243 0.129077
H6    H     H_    0.401584 0.301218 0.059684 0.126245
H7    H     H_    0.608339 0.686611 0.063089 0.125851
H8    H     H_    0.396053 0.300024 0.933742 0.130393
H9    H     H_    0.267333 0.283316 0.395427 0.182794
H10   H     H_    0.212419 0.108481 0.407805 0.139553
H11   H     H_    0.134237 0.200223 0.296747 0.209306
H12   H     H_    0.890185 0.714771 0.535902 0.167900
H13   H     H_    0.285494 0.258212 0.275837 0.253549
H14   H     H_    0.251686 0.075320 0.276854 0.252436
H15   H     H_    0.605145 0.765009 0.683636 0.179409
H16   H     H_    0.519602 0.921278 0.665619 0.104694
H17   H     H_    0.696918 0.057721 0.707230 0.265532
H18   H     H_    0.694727 0.913518 0.764091 0.200848
H19   H     H_    0.803203 0.912627 0.697047 0.253214
H20   H     H_    0.791528 0.148942 0.518529 0.129855
H21   H     H_    0.811754 0.020333 0.583844 0.171593
H22   H     H_    0.960098 0.217878 0.600706 0.209646
H23   H     H_    0.884255 0.295758 0.452916 0.134382
H24   H     H_    0.831335 0.333604 0.614332 0.257905
H25   H     H_    0.865442 0.192850 0.672915 0.228511
H26   H     H_    0.326253 0.723976 0.355310 0.175189
H27   H     H_    0.349782 0.901482 0.332591 0.145293
H28   H     H_    0.114322 0.931757 0.351065 0.249740
H29   H     H_    0.150257 0.809805 0.283980 0.206043
H30   H     H_    0.110046 0.747945 0.367337 0.257103
H31   H     H_    0.115225 0.715121 0.535789 0.166962
H32   H     H_    0.579405 0.294089 0.717776 0.172694
H33   H     H_    0.492283 0.722563 0.281546 0.130402
H34   H     H_    0.529877 0.274235 0.283512 0.188646
H35   H     H_    0.402265 0.698120 0.715333 0.130810
H36   H     H_    0.575913 0.290565 0.843516 0.129237
N1    N     N_R   0.500000 0.852070 0.500000 -0.264096
N2    N     N_R   0.500000 0.147930 0.500000 -0.264874
O1    O     O_R   0.319640 0.618740 0.500000 -0.532232
O2    O     O_3   0.651806 0.854194 0.593828 -0.572908
O3    O     O_3   0.655630 0.149707 0.590736 -0.547877
O4    O     O_3   0.307263 0.861782 0.435886 -0.567657
O5    O     O_R   0.680360 0.381260 0.500000 -0.560928
O6    O     O_R   0.680360 0.618740 0.500000 -0.548427
O7    O     O_R   0.319640 0.381260 0.500000 -0.608049
O8    O     O_R   0.500020 0.618830 0.400190 -0.600356
O9    O     O_R   0.499980 0.381170 0.599810 -0.533633
O10   O     O_R   0.499980 0.618830 0.599810 -0.573080
O11   O     O_R   0.500020 0.381170 0.400190 -0.536677
O12   O     O_3   0.400871 0.133178 0.387426 -0.579269

loop_
_geom_bond_atom_site_label_1
_geom_bond_atom_site_label_2
_ccdc_geom_bond_type
Cu2   N2    S    
C34   C37   A    
Cu1   Cu2   S    
C14   C18   A    
C9    C14   A    
C4    C25   S    
C28   H14   S    
C9    C25   A    
C15   C19   A    
Cu1   O6    S    
C20   O12   S    
C40   O7    A    
C15   H2    S    
Cu2   O11   S    
C11   H34   S    
C31   O3    S    
C2    O5    A    
C3    O11   A    
C1    C2    S    
C11   C16   A    
C20   C24   A    
C35   H28   S    
C30   H18   S    
C33   H27   S    
C10   C26   A    
Cu1   O10   S    
C5    H1    S    
C35   H29   S    
C1    C7    A    
C21   C22   A    
C31   H20   S    
C13   C25   A    
C6    H12   S    
C28   H13   S    
C27   H9    S    
C4    O10   A    
C13   H35   S    
C23   H5    S    
C20   N2    A    
C1    C6    A    
C31   H21   S    
C17   H4    S    
C32   H22   S    
C5    C12   A    
C5    C7    A    
C6    C8    A    
C11   C26   A    
C12   C40   S    
C18   C39   S    
C29   C30   S    
C19   C38   S    
C7    H23   S    
C10   H33   S    
C24   N1    A    
C31   C32   S    
C8    C12   A    
Cu1   O1    S    
C30   H17   S    
C21   N1    A    
C17   C18   A    
C27   O12   S    
Cu2   O5    S    
C21   O2    S    
C32   H25   S    
C29   H15   S    
C35   H30   S    
C34   H6    S    
C9    H32   S    
C27   H10   S    
C32   H24   S    
C4    O9    A    
Cu1   O8    S    
C3    O8    A    
C34   C38   A    
C40   O1    A    
C3    C26   S    
C16   H3    S    
Cu1   N1    S    
C28   H11   S    
C13   C17   A    
C10   C15   A    
Cu2   O9    S    
C22   O3    S    
C36   C38   A    
C24   O4    S    
C22   N2    A    
C29   O2    S    
C37   C39   A    
C37   H8    S    
C16   C19   A    
C23   C39   A    
C8    H31   S    
C33   C35   S    
C2    O6    A    
C14   H36   S    
C33   O4    S    
C29   H16   S    
C23   C36   A    
C30   H19   S    
C27   C28   S    
Cu2   O7    S    
C36   H7    S    
C33   H26   S    
