data_mof_unit_58511.cif
_audit_creation_date              2012-12-11T17:37:45-0500
_audit_creation_method            fapswitch 2.2
_symmetry_space_group_name_H-M    P1
_symmetry_Int_Tables_number       1
_space_group_crystal_system       triclinic
_cell_length_a                    12.978133
_cell_length_b                    13.033742
_cell_length_c                    15.334362
_cell_angle_alpha                 116.046172
_cell_angle_beta                  64.288714
_cell_angle_gamma                 96.750515
_cell_volume                      2091.15584252

loop_
_atom_site_label
_atom_site_type_symbol
_atom_type_description
_atom_site_fract_x
_atom_site_fract_y
_atom_site_fract_z
_atom_type_partial_charge
C1    C     C_R   0.022141 0.834002 0.030907 -0.127843
C2    C     C_R   0.319661 0.537731 0.780778 -0.169108
C3    C     C_R   0.245830 0.476855 0.104477 -0.176989
C4    C     C_R   0.700455 0.408208 0.209830 -0.156651
C5    C     C_R   0.986400 0.300946 0.697291 -0.062806
C6    C     C_R   0.338958 0.535457 0.070353 0.169524
C7    C     C_R   0.930389 0.205799 0.697885 0.079237
C8    C     C_R   0.325095 0.472268 0.679277 0.060093
C9    C     C_R   0.079462 0.145156 0.976424 0.043792
C10   C     C_R   0.310773 0.743093 0.352647 -0.107530
C11   C     C_R   0.199373 0.791123 0.394009 -0.092091
C12   C     C_R   0.703438 0.440905 0.306898 0.059297
C13   C     C_R   0.181552 0.884808 0.378666 0.190039
C14   C     C_R   0.275678 0.926332 0.317021 -0.100901
C15   C     C_R   0.386925 0.877485 0.275008 -0.097356
C16   C     C_R   0.739648 0.577859 0.947124 -0.159521
C17   C     C_R   0.404568 0.787855 0.295118 -0.057885
C18   C     C_R   0.050542 0.047013 0.539217 0.429584
C19   C     C_R   0.942290 0.109743 0.602413 -0.097351
C20   C     C_R   0.849629 0.079170 0.574395 -0.015426
C21   C     C_R   0.868415 0.982845 0.479418 -0.232012
C22   C     C_R   0.976477 0.921825 0.415679 -0.003691
C23   C     C_R   0.638237 0.559736 0.019848 0.153074
C24   C     C_R   0.068428 0.952535 0.443829 -0.141152
C25   C     C_R   0.634955 0.085661 0.669667 -0.174672
C26   C     C_R   0.526120 0.146086 0.734333 -0.092340
C27   C     C_R   0.514680 0.265155 0.772786 -0.078029
C28   C     C_R   0.963966 0.717402 0.315184 -0.147898
C29   C     C_R   0.612020 0.323953 0.746253 -0.127594
C30   C     C_R   0.720824 0.263803 0.681279 -0.120207
C31   C     C_R   0.733778 0.144016 0.642930 0.152040
C32   C     C_R   0.918669 0.266256 0.363379 -0.107408
C33   C     C_R   0.811925 0.293040 0.372721 -0.132880
C34   C     C_R   0.991096 0.824059 0.320465 0.098917
C35   C     C_R   0.738347 0.386195 0.464151 0.126877
C36   C     C_R   0.773182 0.452124 0.546218 -0.173366
C37   C     C_R   0.880172 0.425587 0.536282 -0.146066
C38   C     C_R   0.952517 0.332185 0.445283 -0.103084
C39   C     C_R   0.528015 0.425235 0.566602 -0.225214
C40   C     C_R   0.662342 0.481228 0.047075 -0.113717
C41   C     C_R   0.421300 0.460812 0.582944 0.066699
C42   C     C_R   0.408036 0.488679 0.509194 0.016779
C43   C     C_R   0.502374 0.470630 0.415039 -0.236698
C44   C     C_R   0.609827 0.435871 0.398181 0.067037
C45   C     C_R   0.324051 0.575612 0.007482 -0.136254
C46   C     C_R   0.624815 0.415202 0.475043 0.012190
C47   C     C_R   0.249246 0.497472 0.460035 -0.193777
C48   C     C_R   0.147652 0.550483 0.481934 -0.144692
C49   C     C_R   0.096642 0.651805 0.575192 -0.114061
C50   C     C_R   0.148652 0.701975 0.645408 -0.081319
C51   C     C_R   0.250992 0.650077 0.623209 -0.131837
C52   C     C_R   0.051258 0.817596 0.219007 -0.135951
C53   C     C_R   0.300989 0.546052 0.531336 0.115071
C54   C     C_2   0.434805 0.553096 0.096440 -0.189003
C55   C     C_2   0.525595 0.597931 0.045278 -0.227651
C56   C     C_R   0.906278 0.199928 0.791609 -0.059713
C57   C     C_2   0.891652 0.963953 0.026530 -0.206215
C58   C     C_2   0.873607 0.053629 0.119884 -0.172237
C59   C     C_R   0.799494 0.497403 0.306684 -0.125255
C60   C     C_R   0.926498 0.748606 0.930583 -0.151828
C61   C     C_R   0.948335 0.854075 0.994876 0.140382
C62   C     C_R   0.216660 0.446923 0.686019 -0.053071
C63   C     C_R   0.094474 0.251034 0.048073 -0.129558
C64   C     C_R   0.995755 0.167272 0.951265 -0.054247
Cl1   Cl    Cl    0.163294 0.083846 0.581585 -0.684410
H1    H     H_    0.063084 0.898020 0.075698 0.087854
H2    H     H_    0.324721 0.672654 0.366783 0.121937
H3    H     H_    0.127434 0.759197 0.442095 0.105206
H4    H     H_    0.642154 0.352781 0.181079 0.096046
H5    H     H_    0.263178 0.999651 0.305849 0.102312
H6    H     H_    0.459639 0.911059 0.229322 0.107974
H7    H     H_    0.799654 0.955679 0.454126 0.144770
H8    H     H_    0.642194 0.993530 0.641459 0.113382
H9    H     H_    0.450603 0.100551 0.754890 0.121367
H10   H     H_    0.430450 0.311807 0.822955 0.124271
H11   H     H_    0.603185 0.416169 0.775730 0.106955
H12   H     H_    0.857258 0.138313 0.818956 0.076412
H13   H     H_    0.794702 0.310825 0.660730 0.116262
H14   H     H_    0.034904 0.311092 0.438138 0.105755
H15   H     H_    0.747333 0.625125 0.902367 0.087857
H16   H     H_    0.975391 0.194530 0.292760 0.098486
H17   H     H_    0.785972 0.241593 0.309337 0.122913
H18   H     H_    0.717896 0.524585 0.617444 0.103854
H19   H     H_    0.906455 0.476717 0.599714 0.112740
H20   H     H_    0.535655 0.406584 0.626004 0.137750
H21   H     H_    0.493542 0.493758 0.358498 0.126101
H22   H     H_    0.286938 0.418124 0.388217 0.113315
H23   H     H_    0.191410 0.401080 0.621234 0.112790
H24   H     H_    0.108433 0.513027 0.426567 0.120344
H25   H     H_    0.017410 0.692066 0.592446 0.100161
H26   H     H_    0.109698 0.781113 0.717043 0.114009
H27   H     H_    0.926287 0.692252 0.380210 0.096892
H28   H     H_    0.290563 0.690114 0.678178 0.110690
H29   H     H_    0.437466 0.510695 0.142465 0.116548
H30   H     H_    0.521604 0.644926 0.003422 0.124375
H31   H     H_    0.854992 0.969738 0.977136 0.126975
H32   H     H_    0.903581 0.050310 0.174569 0.130079
H33   H     H_    0.604669 0.441970 0.096687 0.085159
H34   H     H_    0.153691 0.266110 0.083849 0.096940
H35   H     H_    0.095973 0.884134 0.197524 0.087691
H36   H     H_    0.831638 0.526999 0.367153 0.104026
H37   H     H_    0.881852 0.734121 0.881704 0.087915
H38   H     H_    0.370246 0.637827 0.979795 0.083336
H39   H     H_    0.963750 0.104387 0.896680 0.094047
H40   H     H_    0.388708 0.576304 0.802213 0.097909
H41   H     H_    0.224629 0.447012 0.165396 0.092946
H42   H     H_    0.012172 0.333175 0.637438 0.078198
H43   H     H_    0.490929 0.752065 0.264976 0.114693
N1    N     N_R   0.037320 0.720000 0.995830 -0.044349
N2    N     N_R   0.824900 0.517970 0.936430 -0.045384
N3    N     N_R   0.003190 0.648180 0.211390 -0.039162
N4    N     N_R   0.774330 0.457010 0.995830 -0.049932
N5    N     N_R   0.053760 0.709130 0.151980 -0.038838
N6    N     N_R   0.853840 0.498830 0.211390 -0.039611
N7    N     N_R   0.974250 0.667320 0.936430 -0.040182
N8    N     N_R   0.225670 0.542990 0.004170 -0.041542
N9    N     N_R   0.946240 0.290870 0.848020 -0.040905
N10   N     N_R   0.146160 0.501170 0.788610 -0.049491
N11   N     N_R   0.025750 0.332680 0.063570 -0.039958
N12   N     N_R   0.962680 0.280000 0.004170 -0.048500
N13   N     N_R   0.209230 0.553860 0.848010 -0.040564
N14   N     N_R   0.175100 0.482030 0.063570 -0.038904
N15   N     N_R   0.996810 0.351820 0.788610 -0.035799
N16   N     N_R   0.790770 0.446140 0.151990 -0.039707
Ni1   Ni    Ni4+2 0.130310 0.630310 0.000000 0.209042
Ni2   Ni    Ni4+2 0.869690 0.369690 0.000000 0.212284
Ni3   Ni    Ni4+2 0.985660 0.509480 0.863750 0.214914
Ni4   Ni    Ni4+2 0.014340 0.490520 0.136250 0.215283

loop_
_geom_bond_atom_site_label_1
_geom_bond_atom_site_label_2
_ccdc_geom_bond_type
C25   C31   A    
C6    C45   A    
C27   C29   A    
C9    C64   A    
C11   C13   A    
C56   N9    A    
C19   C20   A    
C49   H25   S    
C3    C6    A    
C16   N2    A    
C39   C41   A    
C29   H11   S    
C52   N5    A    
C18   Cl1   S    
C32   H16   S    
C26   C27   A    
C29   C30   A    
N8    N14   A    
C18   C24   A    
C30   H13   S    
C36   C37   A    
C42   C53   S    
C40   H33   S    
C30   C31   A    
N12   Ni2   S    
N5    Ni1   S    
C38   H14   S    
C10   C17   A    
C23   C40   A    
N7    Ni3   S    
C4    N16   A    
C15   C17   A    
C18   C19   A    
C41   C42   A    
C26   H9    S    
C63   H34   S    
C45   H38   S    
C1    N1    A    
C12   C59   A    
C35   C36   A    
C57   H31   S    
C37   H19   S    
C32   C38   A    
C4    C12   A    
C33   H17   S    
N4    Ni2   S    
C3    N14   A    
N2    Ni3   S    
C47   C53   A    
N6    N16   A    
N11   Ni4   S    
C28   C34   A    
C3    H41   S    
C13   C14   A    
C14   H5    S    
C58   H32   S    
C7    C56   A    
C6    C54   S    
C60   H37   S    
C4    H4    S    
C44   C46   A    
C1    H1    S    
C28   N3    A    
C22   C34   S    
C62   N10   A    
C21   H7    S    
C59   H36   S    
C8    C41   S    
C55   H30   S    
C17   H43   S    
C5    C7    A    
C25   C26   A    
C10   H2    S    
C62   H23   S    
C52   H35   S    
C56   H12   S    
C13   C24   S    
C60   C61   A    
C16   H15   S    
N10   N13   A    
C47   H22   S    
C43   C44   A    
N13   Ni1   S    
C37   C38   A    
N6    Ni4   S    
N15   Ni3   S    
C47   C48   A    
C50   C51   A    
N3    N5    A    
C57   C61   S    
C5    H42   S    
C51   H28   S    
C39   C46   A    
N1    Ni1   S    
C48   C49   A    
C49   C50   A    
C16   C23   A    
C7    C19   S    
N8    Ni1   S    
C22   C24   A    
C42   C43   A    
C39   H20   S    
C11   H3    S    
N16   Ni2   S    
N9    Ni2   S    
C2    N13   A    
C64   H39   S    
C54   C55   D    
C9    C63   A    
C43   H21   S    
C2    C8    A    
C27   H10   S    
C1    C61   A    
N11   N12   A    
C23   C55   S    
C15   H6    S    
C5    N15   A    
C2    H40   S    
C34   C52   A    
C64   N12   A    
C48   H24   S    
C32   C33   A    
N9    N15   A    
C12   C44   S    
C40   N4    A    
C45   N8    A    
C57   C58   D    
C59   N6    A    
C33   C35   A    
C25   H8    S    
N14   Ni4   S    
N2    N4    A    
C54   H29   S    
C10   C11   A    
N1    N7    A    
C28   H27   S    
C50   H26   S    
C20   C21   A    
C63   N11   A    
N10   Ni3   S    
N3    Ni4   S    
C14   C15   A    
C60   N7    A    
C36   H18   S    
C51   C53   A    
C21   C22   A    
C35   C46   S    
C8    C62   A    
C20   C31   S    
