data_mof_unit_51920.cif
_audit_creation_date              2013-03-05T16:10:51-0500
_audit_creation_method            fapswitch 2.2
_symmetry_space_group_name_H-M    P1
_symmetry_Int_Tables_number       1
_space_group_crystal_system       triclinic
_cell_length_a                    11.065043
_cell_length_b                    9.925396
_cell_length_c                    15.829183
_cell_angle_alpha                 91.445797
_cell_angle_beta                  89.108653
_cell_angle_gamma                 89.985392
_cell_volume                      1737.67486374

loop_
_atom_site_label
_atom_site_type_symbol
_atom_site_description
_atom_site_fract_x
_atom_site_fract_y
_atom_site_fract_z
_atom_type_partial_charge
O1    O     O_R   0.317570 0.620260 0.500050 -0.486084
O2    O     O_R   0.317570 0.379740 0.500050 -0.546549
C1    C     C_R   0.261178 0.499057 0.502893 0.881980
O3    O     O_R   0.499890 0.620310 0.379470 -0.566120
O4    O     O_R   0.499890 0.379690 0.379470 -0.579022
C2    C     C_R   0.500284 0.498607 0.341758 0.771153
Cu1   Cu    Cu3+1 0.499860 0.642410 0.500040 1.047315
Cu2   Cu    Cu3+1 0.499860 0.357590 0.500040 1.039155
O5    O     O_R   0.682190 0.620260 0.500020 -0.562803
O6    O     O_R   0.682190 0.379740 0.500020 -0.566222
O7    O     O_R   0.499870 0.620210 0.620600 -0.594917
O8    O     O_R   0.499870 0.379790 0.620600 -0.525574
C3    C     C_R   0.738229 0.499993 0.505036 0.864877
C4    C     C_R   0.500508 0.501422 0.658327 0.842484
C5    C     C_3   0.416133 0.608606 0.055476 0.055585
C6    C     C_3   0.469930 0.352847 0.043965 0.070652
C7    C     C_3   0.448099 0.360042 0.945232 0.226189
C8    C     C_3   0.416727 0.622896 0.955603 0.228914
H1    H     H_    0.552587 0.291642 0.050110 0.203437
H2    H     H_    0.452204 0.704444 0.082122 0.199270
C9    C     C_1   0.500921 0.504562 0.747748 -0.005531
C10   C     C_3   0.505360 0.495239 0.083969 -0.301733
C11   C     C_3   0.501225 0.503354 0.916151 -0.200632
C12   C     C_3   0.640790 0.519973 0.948309 0.330171
C13   C     C_3   0.638897 0.533892 0.051594 0.292247
C14   C     C_1   0.500994 0.505374 0.823359 0.195229
C15   C     C_1   0.503243 0.494197 0.176737 0.242826
C16   C     C_1   0.501669 0.495488 0.252319 0.011725
C17   C     C_3   0.071107 0.617626 0.566893 0.312279
C18   C     C_3   0.070593 0.356540 0.549012 0.323231
C19   C     C_3   0.927828 0.617297 0.564742 -0.174145
C20   C     C_3   0.926245 0.368772 0.549847 -0.131894
H3    H     H_    0.903269 0.708235 0.534071 0.244299
H4    H     H_    0.892235 0.291840 0.507497 0.227637
C21   C     C_3   0.071887 0.501334 0.411210 0.079503
C22   C     C_3   0.121880 0.494308 0.507243 -0.113087
C23   C     C_3   0.877732 0.499156 0.508543 -0.048876
C24   C     C_3   0.926253 0.509060 0.413734 0.199309
C25   C     C_3   0.614948 0.086028 0.543893 0.447773
C26   C     C_3   0.599116 0.923799 0.559925 0.421169
C27   C     C_3   0.391594 0.083999 0.548498 -0.075218
C28   C     C_3   0.383916 0.921507 0.537430 -0.005617
C29   C     C_3   0.487682 0.081339 0.411331 0.348228
C30   C     C_3   0.507147 0.915867 0.410936 0.319144
N1    N     N_3   0.500250 0.143650 0.501830 -0.274231
N2    N     N_3   0.500250 0.856350 0.501830 -0.251117
H5    H     H_    0.311098 0.125499 0.519355 0.226669
H6    H     H_    0.311881 0.907754 0.492354 0.241535
N3    N     N_R   0.291439 0.625216 0.922685 0.192934
O9    O     O_R   0.270881 0.589602 0.844690 -0.225086
O10   O     O_R   0.214962 0.710959 0.957029 -0.207827
N4    N     N_R   0.320033 0.342772 0.919106 0.187751
O11   O     O_R   0.233710 0.311980 0.971649 -0.158225
O12   O     O_R   0.297335 0.325997 0.839027 -0.255205
N5    N     N_3   0.124195 0.617907 0.367969 -0.533412
H7    H     H_    0.214001 0.595256 0.352636 0.272507
H8    H     H_    0.085629 0.626809 0.308509 0.272527
N6    N     N_3   0.111468 0.381365 0.360756 -0.553577
H9    H     H_    0.090520 0.392668 0.297090 0.279066
H10   H     H_    0.205271 0.371873 0.361758 0.282088
N7    N     N_3   0.880225 0.636149 0.378886 -0.524450
H11   H     H_    0.881847 0.633165 0.312803 0.267829
H12   H     H_    0.929986 0.720330 0.397169 0.267996
N8    N     N_3   0.870615 0.398825 0.362349 -0.554057
H13   H     H_    0.904209 0.303623 0.374789 0.262005
H14   H     H_    0.885576 0.413124 0.297807 0.275206
N9    N     N_3   0.634104 0.164410 0.624115 -0.500768
H15   H     H_    0.709021 0.131245 0.656705 0.248344
H16   H     H_    0.568017 0.164539 0.670370 0.235205
N10   N     N_3   0.565771 0.904616 0.650103 -0.638185
H17   H     H_    0.584792 0.806922 0.667170 0.277062
H18   H     H_    0.618679 0.956490 0.693737 0.237016
N11   N     N_R   0.735313 0.105815 0.498262 0.145013
O13   O     O_R   0.759299 0.077638 0.419632 -0.328923
O14   O     O_R   0.831382 0.093203 0.543682 -0.362318
N12   N     N_R   0.719674 0.861467 0.551177 0.146377
O15   O     O_R   0.773440 0.846530 0.478474 -0.323148
O16   O     O_R   0.790390 0.874824 0.615815 -0.408193
N13   N     N_3   0.374474 0.133109 0.636308 -0.483816
H19   H     H_    0.404779 0.064165 0.679532 0.220610
H20   H     H_    0.282118 0.135754 0.650429 0.282162
N14   N     N_3   0.328017 0.852531 0.609192 -0.444337
H21   H     H_    0.375452 0.843445 0.664482 0.280071
H22   H     H_    0.249861 0.905088 0.627776 0.219696
N15   N     N_R   0.367181 0.119210 0.374069 0.154361
O17   O     O_R   0.267628 0.053070 0.388119 -0.344778
O18   O     O_R   0.362380 0.204334 0.313033 -0.284127
N16   N     N_R   0.416817 0.857215 0.351746 0.163077
O19   O     O_R   0.325934 0.785486 0.376161 -0.314275
O20   O     O_R   0.423559 0.885021 0.271764 -0.271425
N17   N     N_3   0.578728 0.135026 0.351977 -0.505333
H23   H     H_    0.558516 0.127637 0.287670 0.291238
H24   H     H_    0.627523 0.220206 0.369355 0.305937
N18   N     N_3   0.624715 0.881594 0.371133 -0.448585
H25   H     H_    0.641491 0.778798 0.370734 0.291514
H26   H     H_    0.630288 0.907228 0.307561 0.279472
N19   N     N_R   0.295651 0.600039 0.096578 0.185468
O21   O     O_R   0.213607 0.515854 0.070782 -0.171394
O22   O     O_R   0.267704 0.684023 0.158333 -0.265095
N20   N     N_R   0.379449 0.272960 0.090514 0.207962
O23   O     O_R   0.314573 0.323201 0.152847 -0.246292
O24   O     O_R   0.372760 0.143897 0.074531 -0.255997
N21   N     N_3   0.515541 0.246960 0.904367 -0.515302
H27   H     H_    0.508658 0.247669 0.838612 0.247156
H28   H     H_    0.477936 0.155753 0.923493 0.272424
N22   N     N_3   0.470106 0.753784 0.934414 -0.497197
H29   H     H_    0.457937 0.770783 0.870118 0.260029
H30   H     H_    0.422941 0.831503 0.966400 0.274661
N23   N     N_R   0.667416 0.672399 0.085117 0.149365
O25   O     O_R   0.649880 0.781567 0.043183 -0.268440
O26   O     O_R   0.702968 0.687234 0.162886 -0.318278
N24   N     N_R   0.734179 0.446994 0.087017 0.171689
O27   O     O_R   0.847139 0.474724 0.070902 -0.171126
O28   O     O_R   0.710897 0.354593 0.141930 -0.351774
N25   N     N_R   0.705375 0.637948 0.913068 0.202104
O29   O     O_R   0.672011 0.694013 0.843772 -0.358312
O30   O     O_R   0.815823 0.660590 0.936970 -0.157927
N26   N     N_R   0.711698 0.401517 0.914802 0.160571
O31   O     O_R   0.747122 0.399257 0.835894 -0.298888
O32   O     O_R   0.735930 0.295953 0.958706 -0.241478
N27   N     N_3   0.112384 0.749100 0.535941 -0.524969
H31   H     H_    0.077410 0.773009 0.477854 0.255720
H32   H     H_    0.078238 0.824196 0.577351 0.238432
N28   N     N_3   0.107316 0.235283 0.498250 -0.523042
H33   H     H_    0.048235 0.209853 0.449913 0.266199
H34   H     H_    0.103670 0.149890 0.535559 0.252377
N29   N     N_R   0.120372 0.608525 0.654072 0.180114
O33   O     O_R   0.233450 0.635723 0.666566 -0.297314
O34   O     O_R   0.059264 0.565786 0.718953 -0.224761
N30   N     N_R   0.118939 0.334649 0.635237 0.157505
O35   O     O_R   0.075710 0.237312 0.680313 -0.332916
O36   O     O_R   0.227695 0.373232 0.653936 -0.280371
N31   N     N_3   0.868779 0.624958 0.648765 -0.474040
H35   H     H_    0.898766 0.710207 0.682368 0.327940
H36   H     H_    0.774983 0.632067 0.644604 0.255621
N32   N     N_3   0.866730 0.348463 0.632678 -0.492235
H37   H     H_    0.872984 0.248414 0.649297 0.308514
H38   H     H_    0.909411 0.400823 0.681283 0.341671

loop_
_geom_bond_atom_site_label_1
_geom_bond_atom_site_label_2
_geom_bond_distance
_ccdc_geom_bond_type
C5    C8    1.590729 S    
C9    C14   1.196694 T    
C27   C28   1.620279 S    
N11   O13   1.292242 A    
C21   C22   1.628851 S    
C28   N14   1.469427 S    
C19   N31   1.472909 S    
C8    N22   1.471488 S    
N19   O21   1.297597 A    
Cu1   Cu2   2.826950 S    
N15   O17   1.301516 A    
Cu1   O7    1.926561 S    
C17   C22   1.621760 S    
C7    C11   1.614256 S    
C26   N10   1.485717 S    
C21   N6    1.479311 S    
C4    C9    1.415103 S    
N28   H34   1.045617 S    
N12   O16   1.301859 A    
N23   O26   1.302999 A    
O4    C2    1.336016 A    
O7    C4    1.335071 A    
N22   H29   1.046573 S    
N6    H10   1.042578 S    
N25   O29   1.300936 A    
C28   N2    1.533425 S    
C11   C14   1.469501 S    
N7    H12   1.038279 S    
O5    C3    1.349681 A    
Cu2   N1    2.124347 S    
N21   H27   1.045012 S    
C13   N24   1.487352 S    
N26   O31   1.302916 A    
C5    C10   1.575805 S    
C2    C16   1.415146 S    
N4    O12   1.302632 A    
C6    C7    1.588515 S    
N3    O10   1.303023 A    
C10   C13   1.606156 S    
C17   N27   1.475500 S    
C11   C12   1.640580 S    
C19   H3    1.072531 S    
N10   H17   1.035556 S    
C3    C23   1.545495 S    
C13   N23   1.496549 S    
C25   N1    1.557655 S    
C24   N7    1.482682 S    
N11   O14   1.300316 A    
N18   H25   1.036841 S    
C5    N19   1.477716 S    
O3    Cu1   1.915576 S    
C7    N4    1.491047 S    
N24   O28   1.302457 A    
N24   O27   1.302637 A    
N19   O22   1.302072 A    
C30   N2    1.569827 S    
C24   N8    1.486174 S    
N15   O18   1.301113 A    
C5    H2    1.107797 S    
C21   N5    1.473164 S    
N9    H15   1.040859 S    
C29   N15   1.517363 S    
Cu1   N2    2.122920 S    
C21   C24   1.613068 S    
C12   C13   1.637075 S    
N32   H38   1.037453 S    
N17   H23   1.046364 S    
N13   H20   1.042858 S    
C6    N20   1.476793 S    
N25   O30   1.302859 A    
N6    H9    1.046365 S    
C18   N30   1.494612 S    
C29   N17   1.475689 S    
C19   C23   1.560974 S    
O1    C1    1.356756 A    
N8    H14   1.045646 S    
N30   O36   1.299232 A    
C29   C30   1.656226 S    
N29   O34   1.300920 A    
C23   C24   1.591410 S    
N17   H24   1.036867 S    
C8    C11   1.617362 S    
Cu2   O8    1.915516 S    
N5    H7    1.042374 S    
N20   O24   1.301818 A    
C27   H5    1.094525 S    
N21   H28   1.046136 S    
C28   H6    1.084387 S    
C20   C23   1.563203 S    
N12   O15   1.292437 A    
N18   H26   1.045074 S    
C29   N1    1.554184 S    
N27   H31   1.036101 S    
O3    C2    1.333811 A    
C18   N28   1.483255 S    
N14   H21   1.033362 S    
N14   H22   1.044345 S    
C10   C15   1.468571 S    
N5    H8    1.045200 S    
N31   H35   1.044932 S    
C26   N2    1.578343 S    
N29   O33   1.297185 A    
C25   C26   1.645348 S    
N4    O11   1.298363 A    
C20   N32   1.476471 S    
Cu1   O5    2.029371 S    
C6    C10   1.585846 S    
O1    Cu1   2.029047 S    
C25   N9    1.490393 S    
O2    Cu2   2.028935 S    
N16   O20   1.303582 A    
N32   H37   1.036248 S    
O6    C3    1.346300 A    
C27   N13   1.470733 S    
O4    Cu2   1.926572 S    
C12   N26   1.494778 S    
C18   C22   1.631968 S    
N8    H13   1.039858 S    
C17   N29   1.496444 S    
N30   O35   1.302184 A    
O8    C4    1.333373 A    
C17   C19   1.586278 S    
N23   O25   1.300958 A    
C18   C20   1.601616 S    
N22   H30   1.046723 S    
C1    C22   1.542591 S    
C6    H1    1.104747 S    
N20   O23   1.300190 A    
O2    C1    1.337886 A    
C25   N11   1.520354 S    
C7    N21   1.477486 S    
N7    H11   1.045598 S    
N26   O32   1.301951 A    
N27   H32   1.046646 S    
C30   N18   1.472568 S    
N13   H19   1.038986 S    
C26   N12   1.473413 S    
N16   O19   1.292150 A    
C12   N25   1.487947 S    
Cu2   O6    2.029484 S    
N3    O9    1.299114 A    
C15   C16   1.196004 T    
N31   H36   1.043448 S    
C27   N1    1.528563 S    
N10   H18   1.039066 S    
N9    H16   1.026701 S    
C30   N16   1.489173 S    
C8    N3    1.488946 S    
C20   H4    1.075287 S    
N28   H33   1.040390 S    
