data_mof_unit_54635.cif
_audit_creation_date              2012-12-10T16:57:47-0500
_audit_creation_method            fapswitch 2.2
_symmetry_space_group_name_H-M    P1
_symmetry_Int_Tables_number       1
_space_group_crystal_system       triclinic
_cell_length_a                    7.778372
_cell_length_b                    8.572935
_cell_length_c                    18.99535
_cell_angle_alpha                 91.368475
_cell_angle_beta                  85.088865
_cell_angle_gamma                 93.543467
_cell_volume                      1259.39273306

loop_
_atom_site_label
_atom_site_type_symbol
_atom_type_description
_atom_site_fract_x
_atom_site_fract_y
_atom_site_fract_z
_atom_type_partial_charge
C1    C     C_R   0.545690 0.794713 0.498218 0.946900
C2    C     C_R   0.639081 0.401242 0.176570 -0.160612
C3    C     C_R   0.483279 0.389662 0.852455 0.087645
C4    C     C_R   0.480260 0.389685 0.146450 0.086760
C5    C     C_R   0.641915 0.397139 0.811095 -0.163396
C6    C     C_R   0.327484 0.418030 0.188394 -0.164781
C7    C     C_R   0.648648 0.437267 0.740518 -0.171269
C8    C     C_R   0.333750 0.458138 0.259402 -0.163361
C9    C     C_R   0.496793 0.469939 0.710416 -0.031129
C10   C     C_R   0.492770 0.469924 0.289316 -0.032975
C11   C     C_R   0.476460 0.362733 0.070387 0.293879
C12   C     C_R   0.454309 0.205287 0.501783 0.942122
C13   C     C_R   0.478138 0.362739 0.928247 0.294069
C14   C     C_2   0.569839 0.958099 0.497182 -0.360209
C15   C     C_2   0.430160 0.041910 0.502834 -0.357465
C16   C     C_R   0.500269 0.496593 0.634812 0.838631
C17   C     C_R   0.498478 0.496295 0.365171 0.834272
C18   C     C_R   0.338318 0.462430 0.751740 -0.181625
C19   C     C_R   0.645342 0.441558 0.247396 -0.180815
C20   C     C_R   0.331521 0.422084 0.822163 -0.160631
F1    F     F_    0.030249 0.357152 0.436956 -0.581474
F2    F     F_    0.969741 0.642815 0.563055 -0.576268
H1    H     H_    0.218912 0.485653 0.729570 0.170881
H2    H     H_    0.298139 0.991120 0.508244 0.206476
H3    H     H_    0.769656 0.448649 0.269370 0.170759
H4    H     H_    0.207535 0.418211 0.852914 0.153945
H5    H     H_    0.759140 0.381207 0.145379 0.154513
H6    H     H_    0.761218 0.373780 0.833283 0.151318
H7    H     H_    0.203280 0.410828 0.166364 0.150651
H8    H     H_    0.772276 0.440928 0.709474 0.176544
H9    H     H_    0.214022 0.477811 0.290925 0.184412
H10   H     H_    0.701860 0.008894 0.491773 0.206490
N1    N     N_R   0.626558 0.347514 0.959253 -0.172963
N2    N     N_R   0.326942 0.371366 0.039352 -0.173463
N3    N     N_R   0.625698 0.347496 0.029104 -0.171669
N4    N     N_R   0.327796 0.371347 0.969491 -0.171799
N5    N     N_2   0.950330 0.457950 0.481240 0.250712
N6    N     N_2   0.049670 0.542050 0.518760 0.251794
O1    O     O_R   0.389250 0.738570 0.504600 -0.605989
O2    O     O_R   0.610750 0.261430 0.495400 -0.608048
O3    O     O_R   0.678400 0.711620 0.492580 -0.578677
O4    O     O_R   0.321600 0.288380 0.507420 -0.580757
O5    O     O_R   0.355380 0.513500 0.607880 -0.616846
O6    O     O_R   0.644620 0.486500 0.392120 -0.617189
O7    O     O_R   0.644530 0.486550 0.595850 -0.585759
O8    O     O_R   0.355470 0.513450 0.404150 -0.587170
Zn1   Zn    Zn3+2 0.306930 0.517990 0.508030 1.101984
Zn2   Zn    Zn3+2 0.693070 0.482010 0.491970 1.101582

loop_
_geom_bond_atom_site_label_1
_geom_bond_atom_site_label_2
_ccdc_geom_bond_type
C16   O7    A    
C12   O2    A    
C2    C4    A    
C8    C10   A    
C13   N1    A    
C2    H5    S    
C5    H6    S    
C5    C7    A    
N2    N4    A    
C3    C13   S    
C12   C15   S    
C10   C19   A    
C11   N3    A    
C17   O6    A    
C3    C20   A    
C7    H8    S    
C4    C11   S    
N5    Zn2   S    
C8    H9    S    
C16   O5    A    
N6    Zn1   S    
N5    N6    D    
C20   H4    S    
C1    O3    A    
C15   H2    S    
N1    N3    A    
C9    C16   S    
C18   C20   A    
O4    Zn1   S    
C19   H3    S    
C1    O1    A    
C10   C17   S    
C12   O4    A    
C18   H1    S    
F2    N6    S    
C9    C18   A    
C6    H7    S    
F1    N5    S    
C17   O8    A    
C13   N4    A    
C4    C6    A    
O7    Zn2   S    
C7    C9    A    
O2    Zn2   S    
C14   C15   D    
C6    C8    A    
C1    C14   S    
C2    C19   A    
O8    Zn1   S    
O1    Zn1   S    
O5    Zn1   S    
O3    Zn2   S    
C11   N2    A    
O6    Zn2   S    
C14   H10   S    
C3    C5    A    
