data_mof_unit_59434.cif
_audit_creation_date              2013-03-05T16:00:37-0500
_audit_creation_method            fapswitch 2.2
_symmetry_space_group_name_H-M    P1
_symmetry_Int_Tables_number       1
_space_group_crystal_system       triclinic
_cell_length_a                    10.758169
_cell_length_b                    14.712587
_cell_length_c                    14.647428
_cell_angle_alpha                 65.094688
_cell_angle_beta                  104.263514
_cell_angle_gamma                 103.377701
_cell_volume                      2016.38929231

loop_
_atom_site_label
_atom_site_type_symbol
_atom_site_description
_atom_site_fract_x
_atom_site_fract_y
_atom_site_fract_z
_atom_type_partial_charge
O1    O     O_R   0.455060 0.022100 0.338110 -0.543300
O2    O     O_R   0.512640 0.160150 0.379180 -0.603244
C1    C     C_R   0.474166 0.119488 0.311363 0.869768
O3    O     O_R   0.288900 0.930980 0.479450 -0.549865
O4    O     O_R   0.346480 0.069030 0.520520 -0.573671
C2    C     C_R   0.260450 0.998009 0.503182 0.794513
Cu1   Cu    Cu3+1 0.465900 0.918260 0.475680 1.029571
Cu2   Cu    Cu3+1 0.534100 0.081740 0.524320 1.042900
O5    O     O_R   0.487360 0.839850 0.620820 -0.591953
O6    O     O_R   0.544940 0.977900 0.661890 -0.536597
O7    O     O_R   0.653520 0.930970 0.479480 -0.594842
O8    O     O_R   0.711100 0.069020 0.520550 -0.552216
C3    C     C_R   0.521628 0.880341 0.688231 0.825493
C4    C     C_R   0.740271 0.999118 0.501294 0.853038
C5    C     C_3   0.047398 0.028945 0.393227 -0.442920
H1    H     H_    0.059251 0.980562 0.355625 0.235320
H2    H     H_    0.089567 0.106863 0.346583 0.195811
C6    C     C_3   0.901594 0.023822 0.392363 0.203993
H3    H     H_    0.847724 0.960470 0.368962 0.166541
H4    H     H_    0.849575 0.832900 0.545378 0.224222
C7    C     C_3   0.058814 0.888649 0.572456 0.208968
C8    C     C_3   0.110140 0.077239 0.544895 0.113817
C9    C     C_3   0.122713 0.996654 0.504748 -0.156380
H5    H     H_    0.141424 0.153789 0.488186 0.152594
C10   C     C_3   0.878229 0.997961 0.502364 -0.133695
C11   C     C_3   0.915054 0.890835 0.571805 -0.483968
C12   C     C_3   0.967590 0.072734 0.548489 -0.323955
H6    H     H_    0.110815 0.869317 0.652187 0.164237
H7    H     H_    0.900377 0.870286 0.651174 0.190849
C13   C     C_R   0.447009 0.185617 0.201764 -0.182799
C14   C     C_R   0.528133 0.812453 0.796444 -0.075219
C15   C     C_R   0.347817 0.214944 0.024378 0.263992
C16   C     C_R   0.375990 0.148184 0.126799 0.260794
C17   C     C_R   0.483103 0.289777 0.173896 -0.221108
C18   C     C_R   0.450149 0.358569 0.073471 0.024459
C19   C     C_R   0.393628 0.320263 0.995654 -0.105989
C20   C     C_R   0.474033 0.464743 0.049119 0.112019
C21   C     C_R   0.464488 0.532350 0.945421 0.028266
C22   C     C_R   0.418076 0.492340 0.869010 -0.234729
C23   C     C_R   0.383333 0.388803 0.892240 0.375663
C24   C     C_R   0.500542 0.505296 0.125349 -0.170675
C25   C     C_R   0.522891 0.609196 0.100422 -0.168770
C26   C     C_R   0.523314 0.676316 0.999281 0.133787
C27   C     C_R   0.498153 0.638392 0.921229 0.116748
C28   C     C_R   0.547566 0.781237 0.974975 -0.125521
C29   C     C_R   0.547630 0.849044 0.873770 -0.077466
C30   C     C_R   0.508205 0.708083 0.821342 -0.198086
H8    H     H_    0.540267 0.316321 0.231901 0.182663
H9    H     H_    0.497847 0.458315 0.204871 0.135541
H10   H     H_    0.564756 0.810772 0.034128 0.177313
N1    N     N_R   0.585360 0.204570 0.560800 -0.249702
N2    N     N_R   0.414550 0.795430 0.439160 -0.215612
C31   C     C_R   0.713804 0.288149 0.671565 0.180652
C32   C     C_R   0.688816 0.209583 0.635824 0.434816
C33   C     C_R   0.512155 0.281946 0.512989 0.016915
C34   C     C_R   0.536512 0.366700 0.542342 -0.063503
C35   C     C_R   0.632196 0.363694 0.629596 -0.105817
C36   C     C_R   0.469613 0.453823 0.488724 0.134229
C37   C     C_R   0.498674 0.534641 0.524369 0.067566
C38   C     C_R   0.581061 0.521243 0.618118 -0.251860
C39   C     C_R   0.645044 0.437113 0.671683 0.406193
C40   C     C_R   0.376968 0.464444 0.399416 -0.202465
C41   C     C_R   0.312061 0.548621 0.349407 -0.101835
C42   C     C_R   0.339548 0.628268 0.383643 0.022130
C43   C     C_R   0.439236 0.624749 0.468200 -0.022443
C44   C     C_R   0.272242 0.713138 0.333292 0.228802
C45   C     C_R   0.312315 0.795515 0.363407 0.131163
C46   C     C_R   0.477374 0.712979 0.491761 0.013181
H11   H     H_    0.242530 0.551893 0.281128 0.199883
H12   H     H_    0.352153 0.408626 0.365874 0.130516
H13   H     H_    0.953847 0.045955 0.628890 0.261770
N3    N     N_R   0.347947 0.355527 0.808772 0.154884
O9    O     O_R   0.269522 0.402416 0.727178 -0.266480
O10   O     O_R   0.412067 0.292078 0.805988 -0.266220
H14   H     H_    0.503073 0.682869 0.761264 0.155131
H15   H     H_    0.562683 0.929610 0.856183 0.212519
H16   H     H_    0.540295 0.637089 0.160856 0.161066
N4    N     N_R   0.260391 0.176061 0.953327 0.189008
O11   O     O_R   0.283349 0.099157 0.941148 -0.180568
O12   O     O_R   0.150496 0.210283 0.909338 -0.201987
N5    N     N_R   0.323593 0.043339 0.154638 0.139105
O13   O     O_R   0.393498 0.979929 0.158874 -0.290847
O14   O     O_R   0.200138 0.015321 0.156938 -0.299072
H17   H     H_    0.404136 0.540028 0.788977 0.173615
N6    N     N_R   0.714419 0.424325 0.772719 0.154519
O15   O     O_R   0.785237 0.501791 0.790281 -0.306509
O16   O     O_R   0.688247 0.340837 0.849891 -0.255343
H18   H     H_    0.558888 0.718840 0.549911 0.133285
H19   H     H_    0.260453 0.859935 0.326954 0.197504
N7    N     N_R   0.829999 0.295333 0.743478 0.192950
O17   O     O_R   0.852740 0.219338 0.829878 -0.179145
O18   O     O_R   0.919054 0.373931 0.718175 -0.233796
N8    N     N_R   0.781181 0.140892 0.672913 0.137170
O19   O     O_R   0.760191 0.054205 0.747617 -0.318757
O20   O     O_R   0.900474 0.178937 0.660307 -0.308551
H20   H     H_    0.433672 0.275111 0.453318 0.139779
N9    N     N_R   0.852738 0.117505 0.317319 0.127684
O21   O     O_R   0.756978 0.113538 0.244199 -0.309364
O22   O     O_R   0.906809 0.205302 0.320106 -0.348980
H21   H     H_    0.591876 0.573144 0.654984 0.150812
N10   N     N_R   0.161352 0.715879 0.254351 0.123724
O23   O     O_R   0.143793 0.799984 0.175815 -0.238319
O24   O     O_R   0.067346 0.640189 0.268993 -0.306989
N11   N     N_R   0.068922 0.807947 0.541442 0.149022
O25   O     O_R   0.001417 0.800998 0.457092 -0.343367
O26   O     O_R   0.138647 0.737301 0.602992 -0.307808
N12   N     N_R   0.191794 0.067794 0.644486 0.160098
O27   O     O_R   0.168561 0.990737 0.727901 -0.316489
O28   O     O_R   0.279180 0.143291 0.651557 -0.262169
H22   H     H_    0.940729 0.150225 0.507826 0.238396

loop_
_geom_bond_atom_site_label_1
_geom_bond_atom_site_label_2
_geom_bond_distance
_ccdc_geom_bond_type
C36   C40   1.409423 A    
C5    C6    1.550028 S    
C33   C34   1.432917 A    
N8    O19   1.299247 A    
C24   C25   1.389588 A    
C18   C19   1.423901 A    
C7    C11   1.551961 S    
C29   H15   1.082665 S    
N5    O13   1.301043 A    
Cu1   Cu2   2.683288 S    
N6    O15   1.301597 A    
Cu1   O7    1.972548 S    
C20   C21   1.415964 A    
C15   C19   1.421487 A    
C18   C20   1.422512 A    
C22   H17   1.076249 S    
C6    H3    1.115055 S    
C21   C22   1.411364 A    
O7    C4    1.291609 A    
N4    O12   1.301256 A    
C8    N12   1.474198 S    
C45   H19   1.079979 S    
C34   C35   1.421323 A    
C40   H12   1.077409 S    
C5    H2    1.113190 S    
C17   C18   1.403190 A    
C24   H9    1.079170 S    
O5    C3    1.296216 A    
C32   N8    1.428337 S    
N9    O22   1.301390 A    
C7    N11   1.471842 S    
C41   H11   1.081450 S    
C12   H22   1.110767 S    
C14   C29   1.400324 A    
N12   O27   1.301265 A    
C6    N9    1.469276 S    
N2    C46   1.362926 A    
C27   C30   1.402430 A    
C5    C9    1.556553 S    
C44   C45   1.401467 A    
C37   C38   1.401134 A    
N8    O20   1.300677 A    
C14   C30   1.396927 A    
N12   O28   1.301549 A    
C44   N10   1.437030 S    
C6    C10   1.563004 S    
O3    Cu1   1.972170 S    
N11   O26   1.301577 A    
N11   O25   1.301634 A    
N5    O14   1.300784 A    
N9    O21   1.301132 A    
N6    O16   1.301215 A    
C13   C17   1.393455 A    
N10   O23   1.300900 A    
C19   C23   1.416385 A    
O3    C2    1.291465 A    
C22   C23   1.392333 A    
C31   C35   1.412157 A    
N4    O11   1.301562 A    
C33   H20   1.076120 S    
C10   C11   1.554281 S    
C28   C29   1.395479 A    
C38   C39   1.389839 A    
O1    C1    1.295896 A    
C42   C44   1.416692 A    
C1    C13   1.481224 S    
C26   C27   1.416525 A    
C21   C27   1.423713 A    
C40   C41   1.393565 A    
N7    O18   1.301465 A    
Cu2   O8    1.972171 S    
C43   C46   1.426027 A    
C35   C39   1.419751 A    
C26   C28   1.405068 A    
Cu2   N1    2.015526 S    
N2    C45   1.356089 A    
C39   N6    1.438330 S    
C25   H16   1.084332 S    
N3    O10   1.301086 A    
C7    H6    1.108902 S    
O8    C4    1.293448 A    
C8    C12   1.532586 S    
C7    C9    1.576173 S    
C46   H18   1.077385 S    
C8    H5    1.116295 S    
C17   H8    1.078637 S    
C25   C26   1.392476 A    
C12   H13   1.109976 S    
Cu1   O5    1.928598 S    
C23   N3    1.438009 S    
C13   C16   1.412082 A    
O1    Cu1   1.944700 S    
C3    C14   1.469406 S    
Cu2   O6    1.944700 S    
O2    Cu2   1.928598 S    
N3    O9    1.301592 A    
C38   H21   1.078628 S    
O6    C3    1.298718 A    
Cu1   N2    2.015864 S    
O4    Cu2   1.972548 S    
C31   C32   1.406768 A    
C10   C12   1.551589 S    
N1    C32   1.370906 A    
C15   C16   1.407075 A    
O2    C1    1.303563 A    
C36   C37   1.433379 A    
C30   H14   1.075442 S    
C42   C43   1.415623 A    
N7    O17   1.301473 A    
O4    C2    1.293473 A    
H4    C11   1.112792 S    
C28   H10   1.083831 S    
C2    C9    1.483015 S    
C34   C36   1.441633 A    
N1    C33   1.370498 A    
C4    C10   1.484356 S    
C20   C24   1.417560 A    
C15   N4    1.437034 S    
C41   C42   1.404839 A    
C11   H7    1.113640 S    
N10   O24   1.301335 A    
C31   N7    1.437749 S    
C8    C9    1.571745 S    
C16   N5    1.429887 S    
C37   C43   1.434467 A    
C5    H1    1.110474 S    
