data_mof_unit_44298.cif
_audit_creation_date              2012-12-10T17:47:13-0500
_audit_creation_method            fapswitch 2.2
_symmetry_space_group_name_H-M    P1
_symmetry_Int_Tables_number       1
_space_group_crystal_system       triclinic
_cell_length_a                    11.668736
_cell_length_b                    14.664997
_cell_length_c                    14.552652
_cell_angle_alpha                 65.102109
_cell_angle_beta                  103.347761
_cell_angle_gamma                 102.167001
_cell_volume                      2179.53987109

loop_
_atom_site_label
_atom_site_type_symbol
_atom_type_description
_atom_site_fract_x
_atom_site_fract_y
_atom_site_fract_z
_atom_type_partial_charge
C1    C     C_R   0.480677 0.120158 0.311221 0.792371
C2    C     C_R   0.522792 0.880287 0.688590 0.795448
C3    C     C_R   0.425294 0.328537 0.994800 0.061733
C4    C     C_R   0.582201 0.680254 0.009638 0.053506
C5    C     C_R   0.506871 0.468192 0.054011 0.039598
C6    C     C_R   0.476874 0.539289 0.955111 0.031962
C7    C     C_R   0.401067 0.504369 0.882423 -0.248518
C8    C     C_R   0.575972 0.502248 0.128818 -0.227587
C9    C     C_R   0.377867 0.401156 0.897657 0.062795
C10   C     C_R   0.603933 0.605086 0.113228 0.069167
C11   C     C_R   0.686880 0.281551 0.677849 -0.352582
C12   C     C_R   0.275897 0.698409 0.357876 -0.344596
C13   C     C_R   0.678551 0.217138 0.627333 0.297153
C14   C     C_R   0.332142 0.791582 0.360676 0.312628
C15   C     C_R   0.495370 0.272394 0.529123 -0.019506
C16   C     C_R   0.470150 0.706933 0.504712 -0.031311
C17   C     C_R   0.512073 0.352144 0.566344 -0.039129
C18   C     C_R   0.424367 0.611201 0.495280 -0.047978
C19   C     C_R   0.606906 0.351340 0.647023 0.075987
C20   C     C_R   0.321803 0.608001 0.422226 0.096163
C21   C     C_R   0.441251 0.434048 0.524799 0.048207
C22   C     C_R   0.477856 0.519493 0.553474 0.043819
C23   C     C_R   0.284229 0.000511 0.500142 0.817816
C24   C     C_R   0.715742 0.999634 0.499639 0.823981
C25   C     C_R   0.565491 0.510043 0.639855 -0.237960
C26   C     C_R   0.334931 0.433048 0.456403 -0.249469
C27   C     C_R   0.625721 0.424376 0.691135 0.095660
C28   C     C_R   0.269941 0.515888 0.410423 0.109325
C29   C     C_1   0.162776 0.001573 0.499853 -0.200382
C30   C     C_1   0.837052 0.999194 0.498921 -0.193933
C31   C     C_1   0.059979 0.001184 0.499327 -0.008199
C32   C     C_1   0.939772 0.999961 0.498842 -0.016683
C33   C     C_R   0.467574 0.189769 0.201671 -0.088347
C34   C     C_R   0.542635 0.813544 0.798461 -0.093642
C35   C     C_R   0.426452 0.222847 0.018161 0.090342
C36   C     C_R   0.620480 0.788870 0.977728 0.099051
C37   C     C_R   0.450414 0.156335 0.122317 -0.201980
C38   C     C_R   0.594949 0.852109 0.872774 -0.209448
C39   C     C_R   0.478052 0.292942 0.177281 -0.253132
C40   C     C_R   0.512050 0.710425 0.827634 -0.254232
C41   C     C_R   0.471532 0.363437 0.075627 0.062802
C42   C     C_R   0.521678 0.643543 0.931010 0.063156
Cu1   Cu    Cu3+1 0.469550 0.918260 0.475690 0.926467
Cu2   Cu    Cu3+1 0.530450 0.081740 0.524310 0.922042
H1    H     H_    0.585377 0.568505 0.669358 0.130455
H2    H     H_    0.299636 0.366225 0.441056 0.129951
H3    H     H_    0.483529 0.682869 0.766977 0.150200
H4    H     H_    0.488440 0.318043 0.238986 0.155066
H5    H     H_    0.618718 0.932988 0.846087 0.148862
H6    H     H_    0.455966 0.078083 0.142786 0.137763
H7    H     H_    0.358451 0.558286 0.813317 0.146896
H8    H     H_    0.612561 0.447339 0.200392 0.147094
H9    H     H_    0.544963 0.712790 0.562110 0.132652
H10   H     H_    0.420424 0.265171 0.472416 0.128736
H11   H     H_    0.765055 0.283985 0.734183 0.140098
H12   H     H_    0.202082 0.699244 0.296929 0.136671
N1    N     N_R   0.576230 0.204580 0.560790 -0.179628
N2    N     N_R   0.423770 0.795420 0.439210 -0.179700
O1    O     O_R   0.459870 0.022090 0.338120 -0.594234
O2    O     O_R   0.540130 0.977910 0.661880 -0.586592
O3    O     O_R   0.511290 0.160150 0.379180 -0.583995
O4    O     O_R   0.488710 0.839850 0.620820 -0.585098
O5    O     O_R   0.311490 0.930960 0.479480 -0.575869
O6    O     O_R   0.688510 0.069040 0.520520 -0.587101
O7    O     O_R   0.362910 0.069020 0.520540 -0.574779
O8    O     O_R   0.637090 0.930980 0.479460 -0.572572
C43   C     C_3   0.294403 0.369912 0.814695 -0.415179
C44   C     C_3   0.225287 0.451466 0.725890 -0.348158
C45   C     C_3   0.139777 0.406685 0.654215 -0.849746
H13   H     H_    0.188983 0.371965 0.623014 0.261411
H14   H     H_    0.071712 0.348075 0.695959 0.242169
H15   H     H_    0.094158 0.467552 0.589088 0.246398
H16   H     H_    0.173013 0.484166 0.756813 0.220587
H17   H     H_    0.288214 0.512638 0.679833 0.225722
H18   H     H_    0.346779 0.343688 0.778126 0.205655
H19   H     H_    0.226556 0.308072 0.852850 0.199995
C46   C     C_3   0.660107 0.628935 0.208247 -0.426033
C47   C     C_3   0.649679 0.543157 0.314894 -0.364091
C48   C     C_3   0.695958 0.583635 0.399534 -0.827983
H20   H     H_    0.788430 0.622064 0.393929 0.246816
H21   H     H_    0.638581 0.638084 0.393570 0.257659
H22   H     H_    0.696236 0.519870 0.475603 0.253928
H23   H     H_    0.555484 0.508980 0.319435 0.232702
H24   H     H_    0.704627 0.483536 0.329984 0.211399
H25   H     H_    0.756628 0.652319 0.207073 0.193762
H26   H     H_    0.614606 0.688369 0.206780 0.209403
C49   C     C_3   0.413953 0.182651 0.934401 -0.426722
C50   C     C_3   0.448342 0.076207 0.968257 -0.382713
C51   C     C_3   0.438563 0.049718 0.875602 -0.833439
H27   H     H_    0.348289 0.057650 0.829382 0.259084
H28   H     H_    0.505404 0.099998 0.826430 0.255211
H29   H     H_    0.454301 0.969878 0.902591 0.246897
H30   H     H_    0.541008 0.072591 0.010058 0.225835
H31   H     H_    0.386987 0.018718 0.019143 0.217843
H32   H     H_    0.320059 0.178744 0.897099 0.197109
H33   H     H_    0.472189 0.235690 0.878106 0.209868
C52   C     C_3   0.687783 0.840034 0.051003 -0.429477
C53   C     C_3   0.745924 0.950581 0.004180 -0.388511
C54   C     C_3   0.812756 0.987801 0.087924 -0.857570
H34   H     H_    0.750053 0.987796 0.134943 0.253054
H35   H     H_    0.881359 0.938327 0.138609 0.260933
H36   H     H_    0.857012 0.066360 0.052149 0.243381
H37   H     H_    0.810102 0.955209 0.956199 0.228334
H38   H     H_    0.678160 0.001952 0.957219 0.226259
H39   H     H_    0.625546 0.839040 0.098710 0.199587
H40   H     H_    0.763935 0.799106 0.097053 0.205916
C55   C     C_3   0.713541 0.411564 0.790511 -0.417790
C56   C     C_3   0.704420 0.478671 0.845534 -0.353650
C57   C     C_3   0.775200 0.444296 0.953955 -0.833763
H41   H     H_    0.739027 0.366077 0.001479 0.255564
H42   H     H_    0.870215 0.446383 0.951618 0.251639
H43   H     H_    0.768464 0.495704 0.990302 0.247218
H44   H     H_    0.739105 0.558638 0.801655 0.215978
H45   H     H_    0.610388 0.474624 0.851192 0.238464
H46   H     H_    0.697141 0.331323 0.844894 0.204267
H47   H     H_    0.805547 0.426251 0.773922 0.193850
C58   C     C_3   0.147187 0.508319 0.345973 -0.415431
C59   C     C_3   0.084227 0.400270 0.363312 -0.351147
C60   C     C_3   0.954636 0.401632 0.311128 -0.852006
H48   H     H_    0.905205 0.434311 0.344222 0.247489
H49   H     H_    0.948970 0.447166 0.227285 0.256918
H50   H     H_    0.912282 0.322979 0.323415 0.244284
H51   H     H_    0.129345 0.363827 0.330719 0.216567
H52   H     H_    0.086521 0.354193 0.446862 0.223291
H53   H     H_    0.088630 0.546220 0.365427 0.202518
H54   H     H_    0.155008 0.549983 0.263359 0.192857
C61   C     C_3   0.303976 0.881891 0.261879 -0.379431
C62   C     C_3   0.203951 0.935982 0.260798 -0.295470
C63   C     C_3   0.148609 0.997765 0.151248 -0.911327
H55   H     H_    0.217753 0.051871 0.107280 0.268132
H56   H     H_    0.102454 0.946798 0.111485 0.256648
H57   H     H_    0.083019 0.041593 0.153176 0.250215
H58   H     H_    0.133212 0.879637 0.301132 0.209630
H59   H     H_    0.238693 0.989175 0.299306 0.245064
H60   H     H_    0.385631 0.931857 0.240603 0.192985
H61   H     H_    0.276295 0.855856 0.197349 0.162652
C64   C     C_3   0.795824 0.182299 0.636143 -0.347546
C65   C     C_3   0.814361 0.080451 0.725861 -0.341218
C66   C     C_3   0.942017 0.058147 0.746751 -0.875408
H62   H     H_    0.965285 0.057262 0.677384 0.267332
H63   H     H_    0.004679 0.116434 0.769280 0.251052
H64   H     H_    0.951520 0.982859 0.810455 0.242333
H65   H     H_    0.794665 0.083047 0.795655 0.195246
H66   H     H_    0.754297 0.017811 0.710160 0.246753
H67   H     H_    0.812229 0.187872 0.562233 0.212522
H68   H     H_    0.869583 0.239039 0.650816 0.157985

loop_
_geom_bond_atom_site_label_1
_geom_bond_atom_site_label_2
_ccdc_geom_bond_type
C40   H3    S    
C49   C50   S    
C4    C36   A    
C58   C59   S    
C11   C13   A    
C21   C26   A    
C62   C63   S    
C52   C53   S    
Cu1   O5    S    
C39   C41   A    
C38   H5    S    
C46   C47   S    
Cu2   O6    S    
C11   C19   A    
C33   C39   A    
C34   C40   A    
C23   C29   S    
C64   H67   S    
C35   C37   A    
C61   H60   S    
C65   H65   S    
C57   H42   S    
C5    C6    A    
C66   H64   S    
C2    O2    A    
C23   O5    A    
C13   N1    A    
C44   H17   S    
C53   H37   S    
C56   C57   S    
C15   C17   A    
C56   H45   S    
C45   H14   S    
C16   H9    S    
Cu1   N2    S    
C59   C60   S    
C35   C49   S    
C47   H23   S    
C31   C32   S    
C44   C45   S    
C22   C25   A    
C49   H32   S    
C55   C56   S    
C36   C52   S    
C3    C35   A    
C51   H28   S    
C19   C27   A    
C58   H54   S    
C8    H8    S    
C24   O8    A    
C63   H57   S    
C52   H39   S    
C2    C34   S    
C40   C42   A    
C46   H25   S    
C24   O6    A    
C34   C38   A    
C21   C22   A    
C15   N1    A    
Cu2   O7    S    
C10   C46   S    
C60   H49   S    
C14   N2    A    
C50   H31   S    
C1    C33   S    
C43   C44   S    
C15   H10   S    
C64   H68   S    
C61   H61   S    
C57   H43   S    
C48   H21   S    
C47   C48   S    
C59   H52   S    
C20   C28   A    
C44   H16   S    
C33   C37   A    
C14   C61   S    
C13   C64   S    
C56   H44   S    
C45   H15   S    
Cu1   Cu2   S    
C9    C43   S    
C3    C9    A    
C62   H59   S    
C5    C8    A    
C54   H34   S    
C27   C55   S    
Cu2   N1    S    
C66   H62   S    
C49   H33   S    
C12   C20   A    
C16   N2    A    
C51   H29   S    
C55   H46   S    
C12   H12   S    
C52   H40   S    
C16   C18   A    
C54   H35   S    
C12   C14   A    
C46   H26   S    
C43   H18   S    
C4    C10   A    
C61   C62   S    
C25   H1    S    
C11   H11   S    
C63   H55   S    
C60   H50   S    
C7    C9    A    
C5    C41   A    
C50   H30   S    
C3    C41   A    
C18   C22   A    
C1    O3    A    
C48   H22   S    
C60   H48   S    
C6    C7    A    
Cu1   O1    S    
Cu2   O3    S    
C25   C27   A    
C64   C65   S    
C26   C28   A    
C28   C58   S    
C23   O7    A    
C1    O1    A    
C7    H7    S    
C29   C31   T    
C65   H66   S    
C62   H58   S    
C30   C32   T    
C37   H6    S    
C66   H63   S    
C4    C42   A    
Cu2   O2    S    
Cu1   O8    S    
C53   H38   S    
C36   C38   A    
C17   C19   A    
C18   C20   A    
C59   H51   S    
C45   H13   S    
C24   C30   S    
C55   H47   S    
C65   C66   S    
C26   H2    S    
C48   H20   S    
C47   H24   S    
C54   H36   S    
C50   C51   S    
C8    C10   A    
C53   C54   S    
C6    C42   A    
C43   H19   S    
C51   H27   S    
C57   H41   S    
C58   H53   S    
C2    O4    A    
Cu1   O4    S    
C39   H4    S    
C63   H56   S    
C17   C21   A    
