data_mof_unit_13209.cif
_audit_creation_date              2012-12-10T17:02:56-0500
_audit_creation_method            fapswitch 2.2
_symmetry_space_group_name_H-M    P1
_symmetry_Int_Tables_number       1
_space_group_crystal_system       triclinic
_cell_length_a                    9.820581
_cell_length_b                    11.045962
_cell_length_c                    13.439633
_cell_angle_alpha                 94.210528
_cell_angle_beta                  81.628856
_cell_angle_gamma                 111.580645
_cell_volume                      1340.9466561

loop_
_atom_site_label
_atom_site_type_symbol
_atom_type_description
_atom_site_fract_x
_atom_site_fract_y
_atom_site_fract_z
_atom_type_partial_charge
C1    C     C_R   0.556918 0.745654 0.507015 0.862467
C2    C     C_R   0.443538 0.523145 0.972796 0.055185
C3    C     C_R   0.488737 0.550735 0.869291 0.087857
C4    C     C_R   0.553351 0.545061 0.037545 0.085682
C5    C     C_R   0.704573 0.609444 0.001166 0.171843
C6    C     C_R   0.744755 0.652941 0.902858 -0.265573
C7    C     C_R   0.638572 0.625853 0.838351 -0.195664
C8    C     C_R   0.517536 0.503484 0.137233 -0.251769
C9    C     C_R   0.774551 0.595998 0.164558 -0.200148
C10   C     C_R   0.381864 0.505416 0.800710 -0.141562
C11   C     C_2   0.589264 0.885166 0.510376 -0.358747
C12   C     C_R   0.424861 0.497711 0.690809 0.798491
C13   C     C_2   0.485107 0.930544 0.496521 -0.153386
C14   C     C_2   0.411470 0.114965 0.487814 -0.368089
C15   C     C_2   0.516308 0.069640 0.500082 -0.147294
C16   C     C_2   0.938288 0.521288 0.478478 -0.112942
C17   C     C_2   0.081998 0.517344 0.505146 -0.030317
C18   C     C_R   0.443302 0.254392 0.492471 0.866252
C19   C     C_R   0.577838 0.512509 0.309564 0.789750
C20   C     C_R   0.813817 0.632946 0.064458 -0.206791
C21   C     C_R   0.625745 0.533653 0.201765 -0.049538
C22   C     C_R   0.231189 0.460167 0.838363 -0.224918
C23   C     C_R   0.185456 0.452817 0.941826 0.145851
C24   C     C_R   0.290713 0.479566 0.008191 -0.221922
Cu1   Cu    Cu3+1 0.362000 0.479240 0.482530 0.927524
Cu2   Cu    Cu3+1 0.638000 0.520760 0.517470 0.930289
H1    H     H_    0.859775 0.619886 0.213400 0.147522
H2    H     H_    0.375483 0.864803 0.482746 0.180975
H3    H     H_    0.301804 0.049013 0.474476 0.146391
H4    H     H_    0.698696 0.951157 0.524174 0.149147
H5    H     H_    0.126173 0.575164 0.569867 0.136555
H6    H     H_    0.909062 0.496210 0.403123 0.159221
H7    H     H_    0.872877 0.572831 0.615842 0.194001
H8    H     H_    0.858987 0.708236 0.875523 0.139854
H9    H     H_    0.929387 0.682687 0.037084 0.130494
H10   H     H_    0.405399 0.447360 0.166732 0.147683
H11   H     H_    0.148360 0.431563 0.787284 0.155447
H12   H     H_    0.250534 0.471259 0.087398 0.119786
H13   H     H_    0.675918 0.669676 0.765428 0.171512
H14   H     H_    0.626186 0.135391 0.513311 0.182881
N1    N     N_2   0.845330 0.551960 0.543750 -0.287516
N2    N     N_2   0.154690 0.448120 0.456210 -0.156567
O1    O     O_R   0.426290 0.668220 0.490680 -0.581014
O2    O     O_R   0.659360 0.703290 0.520190 -0.575412
O3    O     O_R   0.326580 0.473880 0.629020 -0.582139
O4    O     O_R   0.559660 0.508940 0.658530 -0.580238
O5    O     O_R   0.340640 0.296710 0.479810 -0.595825
O6    O     O_R   0.573710 0.331780 0.509320 -0.563684
O7    O     O_R   0.440340 0.491060 0.341470 -0.589421
O8    O     O_R   0.673420 0.526120 0.370980 -0.585671
C25   C     C_3   0.098529 0.375590 0.365113 -0.157159
C26   C     C_3   0.140093 0.254994 0.339108 -0.296831
C27   C     C_3   0.064049 0.177604 0.250743 -0.959203
H15   H     H_    0.942108 0.141866 0.270159 0.265323
H16   H     H_    0.096226 0.239363 0.183324 0.256949
H17   H     H_    0.097865 0.092218 0.232338 0.257854
H18   H     H_    0.259962 0.282338 0.316180 0.248064
H19   H     H_    0.104679 0.190562 0.405113 0.224937
H20   H     H_    0.976017 0.334522 0.375563 0.146781
H21   H     H_    0.137985 0.442243 0.300297 0.150451
C28   C     C_3   0.024156 0.418247 0.981474 -0.418169
C29   C     C_3   0.936696 0.272871 0.966523 -0.343629
C30   C     C_3   0.774324 0.239111 0.008454 -0.819279
H22   H     H_    0.763139 0.262100 0.090450 0.252949
H23   H     H_    0.724626 0.294974 0.969562 0.260340
H24   H     H_    0.713127 0.133485 0.996491 0.240314
H25   H     H_    0.944500 0.246171 0.885076 0.217422
H26   H     H_    0.983411 0.214806 0.005773 0.222602
H27   H     H_    0.011098 0.444172 0.062978 0.193996
H28   H     H_    0.978135 0.476656 0.941983 0.199773

loop_
_geom_bond_atom_site_label_1
_geom_bond_atom_site_label_2
_ccdc_geom_bond_type
C28   H28   S    
Cu1   N2    S    
C24   H12   S    
C23   C24   A    
C30   H23   S    
C13   H2    S    
C29   C30   S    
C22   H11   S    
Cu2   O6    S    
C16   H6    S    
Cu1   O5    S    
C9    C20   A    
C2    C4    A    
C28   C29   S    
C1    C11   S    
C29   H26   S    
N2    C25   S    
C4    C8    A    
H7    N1    S    
C18   O5    A    
Cu1   O1    S    
C13   C15   S    
C2    C3    A    
C30   H24   S    
Cu2   O2    S    
C3    C10   A    
C27   H15   S    
C10   C22   A    
C11   C13   D    
C19   O8    A    
C9    C21   A    
C6    C7    A    
C10   C12   S    
C29   H25   S    
C11   H4    S    
C16   N1    D    
C30   H22   S    
C19   C21   S    
C1    O1    A    
C8    C21   A    
C3    C7    A    
Cu2   O8    S    
C2    C24   A    
C5    C6    A    
C17   H5    S    
Cu1   O7    S    
C15   H14   S    
C25   H20   S    
C26   H18   S    
Cu2   O4    S    
C14   H3    S    
C25   C26   S    
C16   C17   S    
Cu1   O3    S    
C23   C28   S    
C26   C27   S    
C9    H1    S    
C12   O4    A    
C8    H10   S    
C27   H17   S    
C28   H27   S    
C5    C20   A    
C14   C18   S    
C17   N2    D    
C4    C5    A    
C7    H13   S    
C25   H21   S    
C1    O2    A    
Cu1   Cu2   S    
C14   C15   D    
C26   H19   S    
C19   O7    A    
C27   H16   S    
C20   H9    S    
C22   C23   A    
C6    H8    S    
Cu2   N1    S    
C12   O3    A    
C18   O6    A    
