data_mof_unit_13808.cif
_audit_creation_date              2012-12-10T16:37:34-0500
_audit_creation_method            fapswitch 2.2
_symmetry_space_group_name_H-M    P1
_symmetry_Int_Tables_number       1
_space_group_crystal_system       triclinic
_cell_length_a                    10.897009
_cell_length_b                    10.852059
_cell_length_c                    15.466726
_cell_angle_alpha                 96.467913
_cell_angle_beta                  75.381548
_cell_angle_gamma                 98.132797
_cell_volume                      1746.34793128

loop_
_atom_site_label
_atom_site_type_symbol
_atom_type_description
_atom_site_fract_x
_atom_site_fract_y
_atom_site_fract_z
_atom_type_partial_charge
C1    C     C_R   0.159548 0.479717 0.518380 0.807213
C2    C     C_R   0.269791 0.612131 0.979304 0.323352
C3    C     C_R   0.330843 0.534660 0.018166 0.290285
C4    C     C_R   0.459662 0.514329 0.977876 -0.069159
C5    C     C_R   0.508851 0.534750 0.886385 -0.045766
C6    C     C_R   0.537864 0.467483 0.024559 0.086384
C7    C     C_R   0.653235 0.420782 0.976656 -0.059436
C8    C     C_R   0.700684 0.442645 0.886455 -0.118078
C9    C     C_R   0.633103 0.505244 0.843650 -0.061486
C10   C     C_R   0.509751 0.475339 0.118322 -0.272458
C11   C     C_R   0.683055 0.355893 0.114807 0.368103
C12   C     C_R   0.841562 0.520564 0.481150 0.917033
C13   C     C_R   0.433240 0.586201 0.840483 -0.290107
C14   C     C_2   0.976589 0.531399 0.479618 -0.528166
C15   C     C_2   0.024514 0.463297 0.528574 0.343264
C16   C     C_2   0.536315 0.966918 0.474500 -0.398855
C17   C     C_2   0.452539 0.036203 0.530898 0.363632
C18   C     C_R   0.469964 0.167950 0.519641 0.723147
C19   C     C_R   0.529176 0.833488 0.481062 0.909201
C20   C     C_R   0.555964 0.443646 0.259161 0.870122
C21   C     C_R   0.451702 0.559607 0.741621 0.860231
C22   C     C_R   0.721584 0.358034 0.021219 0.391904
C23   C     C_R   0.580873 0.420359 0.162672 -0.185382
C24   C     C_R   0.328899 0.648357 0.891909 0.279200
H1    H     H_    0.609878 0.009345 0.421050 0.126760
H2    H     H_    0.793272 0.416841 0.849916 0.223476
H3    H     H_    0.437327 0.530516 0.158413 0.220529
H4    H     H_    0.680887 0.532205 0.777257 0.191998
H5    H     H_    0.040218 0.599570 0.437715 0.139900
O1    O     O_3   0.500000 0.500000 0.500000 -0.528876
O2    O     O_R   0.537910 0.240570 0.564270 -0.594723
O3    O     O_R   0.438950 0.782540 0.540270 -0.565418
O4    O     O_R   0.222350 0.398740 0.468260 -0.615984
O5    O     O_R   0.800790 0.578160 0.427210 -0.645579
O6    O     O_R   0.212140 0.566330 0.564260 -0.638418
O7    O     O_R   0.764730 0.456770 0.540270 -0.557964
O8    O     O_R   0.412790 0.208310 0.468260 -0.653076
O9    O     O_R   0.610350 0.768590 0.427210 -0.648709
O10   O     O_R   0.463530 0.379110 0.309170 -0.634534
O11   O     O_R   0.388210 0.611730 0.699360 -0.552497
O12   O     O_R   0.624720 0.532760 0.292120 -0.650489
O13   O     O_R   0.523540 0.476390 0.699360 -0.653581
Zn1   Zn    Zn3+2 0.580150 0.419820 0.574680 1.045641
Zn2   Zn    Zn3+2 0.401380 0.373730 0.437510 1.000134
Zn3   Zn    Zn3+2 0.631680 0.593260 0.413140 0.975426
Zn4   Zn    Zn3+2 0.386790 0.613180 0.574670 1.072131
O14   O     O_3   0.737751 0.282238 0.158627 -0.630574
C25   C     C_3   0.840407 0.352636 0.188681 0.168217
H6    H     H_    0.834538 0.455233 0.198192 0.186626
H7    H     H_    0.930797 0.335505 0.139184 0.200848
C26   C     C_3   0.843463 0.309283 0.278280 -0.789083
H8    H     H_    0.861309 0.209879 0.269882 0.257634
H9    H     H_    0.920383 0.366953 0.304869 0.214771
H10   H     H_    0.750839 0.319203 0.327489 0.233549
S1    S     S_3+6 0.942387 0.334119 0.589576 0.046462
O15   O     O_2   0.846792 0.379118 0.671110 -0.316948
O16   O     O_2   0.875148 0.242794 0.531195 -0.281696
O17   O     O_3   0.047340 0.261784 0.622775 -0.599407
H11   H     H_    0.994089 0.198067 0.661651 0.366280
O18   O     O_3   0.363906 0.986493 0.604300 -0.558571
C27   C     C_3   0.248769 0.041238 0.623487 0.105663
H12   H     H_    0.213429 0.041102 0.561813 0.161709
H13   H     H_    0.262296 0.138485 0.654143 0.146511
C28   C     C_3   0.147305 0.965875 0.690047 -0.675339
H14   H     H_    0.175522 0.971236 0.754548 0.269389
H15   H     H_    0.054574 0.003891 0.702240 0.177263
H16   H     H_    0.135610 0.866726 0.663166 0.278592
O19   O     O_3   0.832232 0.308599 0.975164 -0.598127
C29   C     C_3   0.799809 0.183644 0.944701 0.123666
H17   H     H_    0.736612 0.178411 0.897569 0.149719
H18   H     H_    0.751187 0.126576 0.001943 0.180116
C30   C     C_3   0.921289 0.127964 0.895161 -0.794387
H19   H     H_    0.985720 0.130284 0.940847 0.254464
H20   H     H_    0.897275 0.029550 0.870592 0.221890
H21   H     H_    0.971457 0.182125 0.836990 0.256606
S2    S     S_3+6 0.283683 0.777874 0.850416 0.089539
O20   O     O_2   0.395868 0.839047 0.784771 -0.273169
O21   O     O_2   0.177775 0.732269 0.804293 -0.263905
O22   O     O_3   0.234104 0.886011 0.934033 -0.489354
H22   H     H_    0.198973 0.946812 0.906491 0.358170
O23   O     O_3   0.264336 0.479541 0.095473 -0.566461
C31   C     C_3   0.230319 0.351117 0.073735 0.121242
H23   H     H_    0.309292 0.305658 0.026185 0.135885
H24   H     H_    0.146812 0.339352 0.043260 0.169388
C32   C     C_3   0.194974 0.283034 0.158888 -0.770368
H25   H     H_    0.122035 0.329603 0.210500 0.261014
H26   H     H_    0.156325 0.184691 0.144394 0.221247
H27   H     H_    0.280790 0.283931 0.185430 0.265614
S3    S     S_3+6 0.119386 0.658962 0.040555 0.099518
O24   O     O_2   0.037749 0.674322 0.978263 -0.238120
O25   O     O_2   0.048154 0.564572 0.104665 -0.319967
O26   O     O_3   0.145367 0.795392 0.100147 -0.493653
H28   H     H_    0.059228 0.820046 0.128406 0.377208

loop_
_geom_bond_atom_site_label_1
_geom_bond_atom_site_label_2
_ccdc_geom_bond_type
C10   H3    S    
S1    O15   D    
C27   C28   S    
C8    H2    S    
O1    Zn3   S    
C11   O14   S    
S2    O22   S    
C20   O12   A    
C1    O4    A    
C7    C8    A    
C32   H25   S    
O11   Zn4   S    
O2    Zn1   S    
C18   O8    A    
S2    O21   D    
C29   H18   S    
C27   H13   S    
C2    S3    S    
C25   C26   S    
C8    C9    A    
O9    Zn3   S    
C3    O23   S    
C1    C15   S    
S3    O25   D    
C5    C13   A    
C25   H7    S    
O1    Zn2   S    
C27   H12   S    
C30   H21   S    
C19   O3    A    
O23   C31   S    
C32   H26   S    
C26   H8    S    
C28   H16   S    
S2    O20   D    
C30   H20   S    
C20   O10   A    
O19   C29   S    
O17   H11   S    
O22   H22   S    
C13   C24   A    
O18   C27   S    
C26   H9    S    
C15   S1    S    
C29   C30   S    
C5    C9    A    
C19   O9    A    
O14   C25   S    
C20   C23   S    
C17   C18   S    
C13   C21   S    
O5    Zn3   S    
S3    O26   S    
C22   O19   S    
C6    C7    A    
C4    C6    A    
C25   H6    S    
C12   C14   S    
C31   H24   S    
S1    O16   D    
C2    C24   A    
O1    Zn1   S    
C12   O7    A    
O13   Zn1   S    
C14   H5    S    
C12   O5    A    
C3    C4    A    
C7    C22   A    
C1    O6    A    
C32   H27   S    
C16   H1    S    
O4    Zn2   S    
O3    Zn4   S    
O1    Zn4   S    
C24   S2    S    
C30   H19   S    
C6    C10   A    
O10   Zn2   S    
C10   C23   A    
C31   C32   S    
C11   C22   A    
C26   H10   S    
C28   H14   S    
O8    Zn2   S    
C2    C3    A    
C16   C17   D    
C21   O11   A    
C16   C19   S    
C11   C23   A    
O26   H28   S    
C29   H17   S    
C17   O18   S    
C21   O13   A    
C4    C5    A    
C31   H23   S    
S1    O17   S    
O12   Zn3   S    
C14   C15   D    
O7    Zn1   S    
C18   O2    A    
S3    O24   D    
O6    Zn4   S    
C9    H4    S    
C28   H15   S    
