data_mof_unit_62225.cif
_audit_creation_date              2012-10-26T18:57:57-0400
_audit_creation_method            fapswitch 2.2
_symmetry_space_group_name_H-M    P1
_symmetry_Int_Tables_number       1
_space_group_crystal_system       triclinic
_cell_length_a                    15.149314
_cell_length_b                    14.015004
_cell_length_c                    15.965634
_cell_angle_alpha                 89.999982
_cell_angle_beta                  92.512554
_cell_angle_gamma                 90.0
_cell_volume                      3386.52782642

loop_
_atom_site_label
_atom_site_type_symbol
_atom_type_description
_atom_site_fract_x
_atom_site_fract_y
_atom_site_fract_z
_atom_type_partial_charge
C1    C     C_R   0.330121 0.500051 0.500255 0.555431
C2    C     C_R   0.441181 0.791890 0.448804 0.220328
C3    C     C_R   0.448412 0.207923 0.442265 0.220624
C4    C     C_R   0.558819 0.791890 0.551195 0.220328
C5    C     C_R   0.500000 0.054369 0.500000 -0.010843
C6    C     C_R   0.500000 0.945426 0.500000 -0.011217
C7    C     C_R   0.499878 0.500009 0.341404 0.567682
C8    C     C_R   0.500122 0.500009 0.658595 0.567682
C9    C     C_R   0.500119 0.586600 0.956299 -0.097386
C10   C     C_R   0.499879 0.413384 0.043702 -0.096547
C11   C     C_R   0.499883 0.586600 0.043701 -0.097386
C12   C     C_R   0.669879 0.500051 0.499745 0.555431
C13   C     C_R   0.500119 0.413384 0.956298 -0.096548
C14   C     C_R   0.500235 0.499993 0.912638 0.038025
C15   C     C_R   0.499765 0.499993 0.087361 0.038025
C16   C     C_1   0.500300 0.500001 0.823033 -0.034089
C17   C     C_1   0.499700 0.500001 0.176967 -0.034089
C18   C     C_1   0.499752 0.500014 0.252144 0.014002
C19   C     C_1   0.500248 0.500014 0.747856 0.014002
C20   C     C_R   0.096714 0.583410 0.523942 -0.108435
C21   C     C_R   0.905950 0.419014 0.523465 -0.110966
C22   C     C_R   0.903286 0.583410 0.476058 -0.108435
C23   C     C_R   0.048610 0.501431 0.500022 0.033275
C24   C     C_R   0.094050 0.419014 0.476534 -0.110966
C25   C     C_R   0.188500 0.583165 0.523476 -0.110660
C26   C     C_R   0.814241 0.418156 0.522008 -0.110340
C27   C     C_R   0.811500 0.583165 0.476524 -0.110660
C28   C     C_R   0.185759 0.418156 0.477991 -0.110340
C29   C     C_R   0.233604 0.500409 0.500655 0.024514
C30   C     C_R   0.766396 0.500409 0.499345 0.024514
C31   C     C_R   0.951390 0.501431 0.499978 0.033275
C32   C     C_R   0.550380 0.107639 0.559439 -0.118595
C33   C     C_R   0.439308 0.892157 0.449857 -0.120168
C34   C     C_R   0.449620 0.107640 0.440561 -0.118595
C35   C     C_R   0.560692 0.892157 0.550143 -0.120168
C36   C     C_R   0.551588 0.207923 0.557735 0.220624
Cu1   Cu    Cu3+1 0.500000 0.596430 0.500000 1.031807
Cu2   Cu    Cu3+1 0.500000 0.403570 0.500000 1.033268
H1    H     H_    0.499808 0.653861 0.077165 0.127520
H2    H     H_    0.781057 0.353388 0.539618 0.161444
H3    H     H_    0.775865 0.647285 0.457895 0.145922
H4    H     H_    0.218943 0.353388 0.460381 0.161444
H5    H     H_    0.589665 0.073141 0.608475 0.126046
H6    H     H_    0.389182 0.926596 0.410636 0.124786
H7    H     H_    0.410335 0.073141 0.391524 0.126046
H8    H     H_    0.610818 0.926596 0.589364 0.124786
H9    H     H_    0.500198 0.346124 0.922831 0.129437
H10   H     H_    0.500195 0.653861 0.922835 0.127521
H11   H     H_    0.499799 0.346124 0.077169 0.129437
H12   H     H_    0.063617 0.647373 0.544024 0.117349
H13   H     H_    0.941154 0.355305 0.543802 0.117538
H14   H     H_    0.936383 0.647373 0.455976 0.117349
H15   H     H_    0.058846 0.355305 0.456198 0.117538
H16   H     H_    0.224135 0.647285 0.542105 0.145922
I1    I     I_    0.639773 0.269964 0.649386 -0.359812
I2    I     I_    0.348530 0.728935 0.361626 -0.336481
I3    I     I_    0.360227 0.269964 0.350614 -0.359813
I4    I     I_    0.651470 0.728934 0.638374 -0.336481
N1    N     N_R   0.500000 0.258690 0.500000 -0.212012
N2    N     N_R   0.500000 0.741310 0.500000 -0.215711
O1    O     O_R   0.371460 0.581430 0.500010 -0.487223
O2    O     O_R   0.628540 0.418570 0.499990 -0.489650
O3    O     O_R   0.628540 0.581430 0.499990 -0.487223
O4    O     O_R   0.371460 0.418570 0.500010 -0.489650
O5    O     O_R   0.499980 0.581410 0.380310 -0.477377
O6    O     O_R   0.500020 0.418590 0.619690 -0.473841
O7    O     O_R   0.500020 0.581410 0.619690 -0.477377
O8    O     O_R   0.499980 0.418590 0.380310 -0.473840

loop_
_geom_bond_atom_site_label_1
_geom_bond_atom_site_label_2
_ccdc_geom_bond_type
Cu1   O1    S    
C23   C24   A    
C20   C23   A    
C8    O6    A    
Cu1   Cu2   S    
C7    O5    A    
C9    C11   A    
C27   H3    S    
C3    N1    A    
C6    C33   A    
C21   C26   A    
C36   N1    A    
C26   H2    S    
C5    C34   A    
C7    C18   S    
C1    C29   S    
C17   C18   T    
C7    O8    A    
C4    C35   A    
C34   H7    S    
C2    I2    S    
C13   C14   A    
C25   H16   S    
C27   C30   A    
C11   H1    S    
C21   C31   A    
C4    N2    A    
C10   H11   S    
C2    N2    A    
C9    H10   S    
C16   C19   T    
C32   C36   A    
C2    C33   A    
C28   H4    S    
C28   C29   A    
Cu1   O3    S    
C32   H5    S    
Cu2   O8    S    
C9    C14   A    
C26   C30   A    
Cu2   O4    S    
C22   C27   A    
C25   C29   A    
C5    C6    S    
C33   H6    S    
C14   C16   S    
Cu1   N2    S    
C20   C25   A    
Cu1   O7    S    
Cu2   N1    S    
C8    C19   S    
C1    O4    A    
C3    I3    S    
C21   H13   S    
C12   O2    A    
C6    C35   A    
C8    O7    A    
C22   H14   S    
C22   C31   A    
C4    I4    S    
C13   H9    S    
C12   O3    A    
Cu2   O6    S    
C20   H12   S    
C36   I1    S    
C3    C34   A    
C12   C30   S    
C24   H15   S    
C15   C17   S    
C35   H8    S    
C11   C15   A    
C5    C32   A    
C24   C28   A    
Cu1   O5    S    
C1    O1    A    
C10   C15   A    
Cu2   O2    S    
C10   C13   A    
C23   C31   S    
