data_mof_unit_48432.cif
_audit_creation_date              2013-03-05T15:42:26-0500
_audit_creation_method            fapswitch 2.2
_symmetry_space_group_name_H-M    P1
_symmetry_Int_Tables_number       1
_space_group_crystal_system       triclinic
_cell_length_a                    13.043071
_cell_length_b                    10.91567
_cell_length_c                    9.797598
_cell_angle_alpha                 88.938085
_cell_angle_beta                  96.83413
_cell_angle_gamma                 90.637337
_cell_volume                      1384.71688612

loop_
_atom_site_label
_atom_site_type_symbol
_atom_site_description
_atom_site_fract_x
_atom_site_fract_y
_atom_site_fract_z
_atom_type_partial_charge
O1    O     O_R   0.500020 0.321960 0.617050 -0.579876
O2    O     O_R   0.499980 0.321920 0.382890 -0.528696
C1    C     C_R   0.508759 0.265976 0.503067 0.724469
O3    O     O_R   0.349010 0.500000 0.598060 -0.535200
O4    O     O_R   0.348980 0.499950 0.363910 -0.561084
C2    C     C_R   0.301278 0.501137 0.473568 0.869630
Cu1   Cu    Cu3+1 0.500020 0.500020 0.638640 1.043953
Cu2   Cu    Cu3+1 0.499980 0.499980 0.361360 1.058101
O5    O     O_R   0.500020 0.678080 0.617110 -0.518382
O6    O     O_R   0.499980 0.678040 0.382950 -0.606163
O7    O     O_R   0.651020 0.500050 0.636090 -0.591226
O8    O     O_R   0.650990 0.500000 0.401940 -0.543101
C3    C     C_R   0.501119 0.734000 0.497900 0.761597
C4    C     C_R   0.699722 0.494143 0.526997 0.800453
C5    C     C_R   0.814315 0.485477 0.545528 -0.219429
C6    C     C_R   0.189574 0.484741 0.459431 -0.228726
C7    C     C_R   0.041915 0.349515 0.399166 -0.076829
C8    C     C_R   0.147860 0.375829 0.401230 0.429459
C9    C     C_R   0.128147 0.563852 0.526017 -0.064734
C10   C     C_R   0.027228 0.525792 0.546387 -0.015391
C11   C     C_R   0.978665 0.430326 0.464940 -0.039767
C12   C     C_R   0.868886 0.420955 0.452868 -0.175408
C13   C     C_R   0.871379 0.543451 0.657460 0.446612
C14   C     C_R   0.975247 0.574639 0.651843 -0.061757
C15   C     C_2   0.565270 0.933676 0.430990 -0.335274
C16   C     C_2   0.491335 0.865766 0.484153 0.345087
C17   C     C_2   0.548021 0.066902 0.406136 0.416721
C18   C     C_2   0.533626 0.135115 0.516057 0.280361
C19   C     C_2   0.431235 0.442817 0.913650 0.156832
N1    N     N_2   0.498860 0.498660 0.846770 -0.066528
C20   C     C_2   0.419079 0.478406 0.060845 -0.016552
N2    N     N_2   0.498840 0.498630 0.152900 -0.270732
C21   C     C_2   0.811508 0.348036 0.341577 0.978320
O9    O     O_2   0.831758 0.361674 0.223761 -0.560390
O10   O     O_R   0.737679 0.260438 0.369660 -0.691390
H1    H     H_    0.733957 0.248304 0.471679 0.259557
O11   O     O_3   0.540433 0.080889 0.646405 -0.546328
C22   C     C_3   0.638536 0.106737 0.717868 -0.236724
H2    H     H_    0.646632 0.204970 0.745230 0.168351
H3    H     H_    0.702125 0.080246 0.658531 0.178088
H4    H     H_    0.647128 0.052460 0.815338 0.201382
C23   C     C_2   0.371983 0.337461 0.853157 0.864214
O12   O     O_2   0.280047 0.347836 0.813202 -0.547469
O13   O     O_R   0.420780 0.224985 0.845698 -0.726128
H5    H     H_    0.372271 0.159265 0.803003 0.354585
O14   O     O_3   0.519752 0.612993 0.895114 -0.517448
C24   C     C_3   0.624236 0.640888 0.886248 0.048551
H6    H     H_    0.635177 0.694994 0.792702 0.181226
H7    H     H_    0.671760 0.557711 0.892527 0.171513
H8    H     H_    0.653224 0.699375 0.974184 0.148851
C25   C     C_2   0.315562 0.516827 0.087436 0.948827
O15   O     O_2   0.241778 0.446959 0.065798 -0.519580
O16   O     O_R   0.302172 0.634768 0.135455 -0.753326
H9    H     H_    0.228384 0.650292 0.152933 0.317412
C26   C     C_2   0.595099 0.450546 0.124291 1.077180
O17   O     O_2   0.672964 0.513794 0.144588 -0.591212
O18   O     O_R   0.600831 0.331300 0.075598 -0.749447
H10   H     H_    0.672109 0.310275 0.052391 0.338988
O19   O     O_3   0.827604 0.565804 0.775875 -0.588998
C27   C     C_3   0.851544 0.465950 0.868268 -0.259002
H11   H     H_    0.835222 0.492215 0.972220 0.236368
H12   H     H_    0.934602 0.440267 0.878748 0.188092
H13   H     H_    0.802611 0.384960 0.836297 0.153672
C28   C     C_2   0.005023 0.227237 0.349050 0.883596
O20   O     O_2   0.023408 0.192750 0.236468 -0.499775
O21   O     O_R   0.952119 0.150166 0.432950 -0.759214
H14   H     H_    0.931552 0.069119 0.388212 0.374399
C29   C     C_2   0.030286 0.643370 0.768820 0.906094
O22   O     O_2   0.989970 0.732535 0.813414 -0.513511
O23   O     O_R   0.127130 0.604529 0.829488 -0.718045
H15   H     H_    0.157457 0.660831 0.905173 0.350700
O24   O     O_3   0.211490 0.295116 0.344328 -0.535509
C30   C     C_3   0.250473 0.209340 0.446471 -0.217780
H16   H     H_    0.188962 0.145342 0.473576 0.162371
H17   H     H_    0.287854 0.254020 0.540955 0.155889
H18   H     H_    0.310194 0.154722 0.404745 0.192130
C31   C     C_2   0.163067 0.691932 0.558015 0.823745
O25   O     O_2   0.250284 0.713526 0.613078 -0.531422
O26   O     O_R   0.093375 0.787956 0.528076 -0.738344
H19   H     H_    0.123219 0.870091 0.560098 0.345875
C32   C     C_2   0.667834 0.882840 0.410328 0.822761
O27   O     O_2   0.744509 0.916679 0.484029 -0.517007
O28   O     O_R   0.679267 0.799544 0.306594 -0.693965
H20   H     H_    0.614060 0.787894 0.240874 0.308505
O29   O     O_3   0.398565 0.917701 0.507803 -0.542155
C33   C     C_3   0.324970 0.897121 0.392454 -0.246354
H21   H     H_    0.312035 0.797781 0.372860 0.181159
H22   H     H_    0.347621 0.944502 0.299127 0.162167
H23   H     H_    0.250205 0.935685 0.412627 0.188434
O30   O     O_3   0.545439 0.123802 0.276436 -0.539555
C34   C     C_3   0.547947 0.041591 0.167611 -0.172160
H24   H     H_    0.491120 0.965356 0.171332 0.123880
H25   H     H_    0.627433 0.007233 0.165342 0.176256
H26   H     H_    0.526597 0.092139 0.069348 0.240678

loop_
_geom_bond_atom_site_label_1
_geom_bond_atom_site_label_2
_geom_bond_distance
_ccdc_geom_bond_type
C26   O17   1.220277 D    
C19   C23   1.472278 S    
C30   H16   1.110661 S    
C9    C10   1.411498 A    
C32   O27   1.219765 D    
O30   C34   1.409831 S    
Cu1   Cu2   2.716623 S    
C24   H7    1.101694 S    
C31   O25   1.222029 D    
Cu1   O7    1.972628 S    
O11   C22   1.411806 S    
C27   H13   1.112280 S    
C1    C18   1.468191 S    
C16   O29   1.387823 S    
C7    C28   1.485921 S    
O29   C33   1.412635 S    
O4    C2    1.304364 A    
O7    C4    1.309641 A    
C33   H22   1.110954 S    
C17   O30   1.400975 S    
C27   H12   1.114430 S    
C9    C31   1.492811 S    
O5    C3    1.309321 A    
C5    C12   1.419679 A    
O10   H1    1.012661 S    
C29   O22   1.223324 D    
C13   C14   1.400379 A    
O23   H15   1.012774 S    
N2    C26   1.426265 S    
C5    C13   1.406448 A    
O21   H14   1.013835 S    
O19   C27   1.417287 S    
Cu1   N1    2.040809 S    
C11   C12   1.425321 A    
C15   C32   1.491181 S    
C30   H17   1.112004 S    
C23   O13   1.396276 S    
O3    Cu1   1.962436 S    
C32   O28   1.398294 S    
C21   O9    1.220517 D    
C24   H8    1.109198 S    
C31   O26   1.399036 S    
C8    O24   1.385781 S    
C25   O15   1.222231 D    
Cu2   N2    2.041018 S    
C24   H6    1.103800 S    
C10   C14   1.416571 A    
C22   H4    1.109321 S    
O3    C2    1.301677 A    
C34   H24   1.111206 S    
C33   H21   1.112251 S    
C15   C16   1.356486 D    
O16   H9    1.014016 S    
C33   H23   1.106931 S    
C7    C11   1.427497 A    
C27   H11   1.108423 S    
C25   O16   1.398665 S    
C28   O21   1.398584 S    
C13   O19   1.379420 S    
C19   N1    1.299888 D    
C34   H25   1.109244 S    
C20   N2    1.312792 D    
Cu2   O8    1.962436 S    
C7    C8    1.406112 A    
C29   O23   1.397317 S    
O8    C4    1.312253 A    
C26   O18   1.400407 S    
C30   H18   1.106565 S    
C3    C16   1.447752 S    
O28   H20   1.012132 S    
C23   O12   1.222149 D    
O13   H5    1.013885 S    
Cu1   O5    1.951167 S    
C12   C21   1.485691 S    
O14   C24   1.405506 S    
O1    Cu1   1.959015 S    
N1    O14   1.356382 S    
Cu2   O6    1.959015 S    
O2    Cu2   1.951167 S    
C20   C25   1.472113 S    
O24   C30   1.411190 S    
O6    C3    1.289598 A    
O4    Cu2   1.972628 S    
C15   C17   1.485210 S    
C28   O20   1.223219 D    
O2    C1    1.309667 A    
C19   C20   1.527229 S    
C34   H26   1.108501 S    
C22   H3    1.111675 S    
O18   H10   1.012757 S    
C22   H2    1.110942 S    
C18   O11   1.391179 S    
C6    C9    1.404954 A    
C21   O10   1.396463 S    
C14   C29   1.488567 S    
C2    C6    1.456384 S    
O26   H19   1.013594 S    
C10   C11   1.421189 A    
C6    C8    1.404082 A    
C17   C18   1.352956 D    
C4    C5    1.487890 S    
O1    C1    1.300276 A    
