data_mof_unit_58965.cif
_audit_creation_date              2013-03-05T16:07:04-0500
_audit_creation_method            fapswitch 2.2
_symmetry_space_group_name_H-M    P1
_symmetry_Int_Tables_number       1
_space_group_crystal_system       triclinic
_cell_length_a                    16.905014
_cell_length_b                    7.259042
_cell_length_c                    16.834473
_cell_angle_alpha                 91.518142
_cell_angle_beta                  100.313316
_cell_angle_gamma                 88.412469
_cell_volume                      2031.18515284

loop_
_atom_site_label
_atom_site_type_symbol
_atom_site_description
_atom_site_fract_x
_atom_site_fract_y
_atom_site_fract_z
_atom_type_partial_charge
O1    O     O_R   0.413450 0.494370 0.415710 -0.572276
O2    O     O_R   0.586550 0.994370 0.584290 -0.592588
O3    O     O_R   0.578420 0.819350 0.429360 -0.581057
O4    O     O_R   0.421580 0.319350 0.570640 -0.580442
C1    C     C_R   0.605880 0.651774 0.415067 0.995810
C2    C     C_R   0.393985 0.159667 0.585225 0.993870
O5    O     O_R   0.413570 0.823780 0.406240 -0.602184
O6    O     O_R   0.586430 0.323780 0.593760 -0.586315
O7    O     O_R   0.420530 0.998740 0.561000 -0.576832
O8    O     O_R   0.579470 0.498740 0.439000 -0.575488
C3    C     C_R   0.385995 0.655407 0.383832 0.963924
C4    C     C_R   0.613841 0.155321 0.616455 0.975186
O9    O     O_3   0.502480 0.662320 0.550800 -0.292421
O10   O     O_3   0.497520 0.162320 0.449200 -0.292720
V1    V     V_3+5 0.499540 0.935370 0.490580 1.197517
V2    V     V_3+5 0.500460 0.435370 0.509420 1.224130
C5    C     C_R   0.695745 0.991105 0.735190 0.137903
C6    C     C_R   0.266295 0.491963 0.304471 0.313683
C7    C     C_R   0.680549 0.147265 0.687121 -0.219598
C8    C     C_R   0.314973 0.647151 0.317487 -0.244429
C9    C     C_R   0.730052 0.299630 0.710435 -0.098221
C10   C     C_R   0.291030 0.798738 0.267443 -0.180593
H1    H     H_    0.720254 0.424812 0.676509 0.178986
H2    H     H_    0.325542 0.923001 0.275443 0.154187
C11   C     C_R   0.796302 0.287884 0.774441 -0.170837
C12   C     C_R   0.225196 0.787521 0.203032 -0.155520
H3    H     H_    0.834883 0.405212 0.787805 0.151784
H4    H     H_    0.211361 0.904379 0.163990 0.146712
C13   C     C_R   0.815252 0.123180 0.817308 -0.211045
C14   C     C_R   0.181116 0.624022 0.186360 -0.232247
C15   C     C_R   0.760983 0.979477 0.798482 0.173823
C16   C     C_R   0.201282 0.480718 0.240899 0.182773
C17   C     C_3   0.775163 0.779953 0.781497 -0.490160
C18   C     C_3   0.217464 0.281104 0.225978 -0.528364
C19   C     C_3   0.703835 0.792777 0.712326 -0.437413
C20   C     C_3   0.288519 0.293341 0.295310 -0.473443
H5    H     H_    0.763809 0.692700 0.831371 0.185000
H6    H     H_    0.235459 0.253180 0.166337 0.192298
H7    H     H_    0.833418 0.752037 0.761006 0.210693
H8    H     H_    0.168638 0.193983 0.239399 0.217637
H9    H     H_    0.651489 0.712832 0.722384 0.181975
H10   H     H_    0.347675 0.272709 0.275807 0.177982
H11   H     H_    0.720838 0.772252 0.651806 0.225429
H12   H     H_    0.280640 0.212538 0.348399 0.234126
C21   C     C_R   0.329473 0.168542 0.635639 -0.288734
C22   C     C_R   0.670058 0.627857 0.364960 -0.284274
C23   C     C_R   0.166362 0.102410 0.860897 -0.131712
C24   C     C_R   0.834284 0.641333 0.138720 -0.132320
C25   C     C_R   0.272252 0.925528 0.808933 -0.184978
C26   C     C_R   0.727299 0.830071 0.182433 -0.193358
C27   C     C_R   0.218579 0.946975 0.863057 -0.158078
C28   C     C_R   0.781514 0.796125 0.129696 -0.153140
C29   C     C_R   0.169909 0.237917 0.803622 -0.229327
C30   C     C_R   0.831009 0.519556 0.201503 -0.229311
C31   C     C_R   0.222904 0.215204 0.747834 0.146884
C32   C     C_R   0.777553 0.555087 0.255815 0.147505
C33   C     C_R   0.274445 0.057864 0.750343 0.215276
C34   C     C_R   0.725279 0.711437 0.246306 0.215473
C35   C     C_R   0.327466 0.035789 0.694659 -0.258142
C36   C     C_R   0.671765 0.746332 0.300492 -0.277645
C37   C     C_R   0.274591 0.322119 0.631188 0.380640
C38   C     C_R   0.725634 0.475787 0.376380 0.382799
C39   C     C_R   0.223484 0.345173 0.688168 -0.323632
C40   C     C_R   0.777207 0.439219 0.320782 -0.319777
H13   H     H_    0.368801 0.918106 0.698779 0.156118
H14   H     H_    0.629978 0.863062 0.291223 0.153301
H15   H     H_    0.311205 0.803835 0.812191 0.122248
H16   H     H_    0.687717 0.950655 0.173860 0.121011
H17   H     H_    0.182444 0.463332 0.684503 0.179166
H18   H     H_    0.818891 0.322283 0.329730 0.178570
H19   H     H_    0.129377 0.356955 0.800381 0.141487
H20   H     H_    0.871967 0.401231 0.209886 0.142790
O11   O     O_R   0.920630 0.775410 0.061150 -0.586515
O12   O     O_R   0.079370 0.275410 0.938850 -0.585317
O13   O     O_R   0.086500 0.441450 0.093690 -0.588258
O14   O     O_R   0.913500 0.941450 0.906310 -0.587981
C41   C     C_R   0.114066 0.610201 0.116096 0.925568
C42   C     C_R   0.885952 0.110283 0.883793 0.921014
O15   O     O_R   0.921670 0.445960 0.070740 -0.589032
O16   O     O_R   0.078330 0.945960 0.929260 -0.592607
O17   O     O_R   0.913380 0.271130 0.915780 -0.592735
O18   O     O_R   0.086620 0.771130 0.084220 -0.590826
C43   C     C_R   0.896045 0.617860 0.086202 0.914493
C44   C     C_R   0.104226 0.110424 0.913641 0.910871
O19   O     O_3   0.997500 0.603030 0.949220 -0.288251
O20   O     O_3   0.002500 0.103030 0.050780 -0.283904
V3    V     V_3+5 0.000470 0.329940 0.009420 1.146972
V4    V     V_3+5 0.999530 0.829940 0.990580 1.150354
H21   H     H_    0.217453 0.840154 0.906546 0.132138
H22   H     H_    0.782420 0.892255 0.081750 0.132050
N1    N     N_R   0.267978 0.452987 0.567597 0.241006
O21   O     O_R   0.252454 0.626150 0.581754 -0.405587
O22   O     O_R   0.265455 0.395740 0.493326 -0.429330
N2    N     N_R   0.732801 0.361318 0.445775 0.240368
O23   O     O_R   0.748084 0.185333 0.439328 -0.402506
O24   O     O_R   0.736058 0.436314 0.517317 -0.432062

loop_
_geom_bond_atom_site_label_1
_geom_bond_atom_site_label_2
_geom_bond_distance
_ccdc_geom_bond_type
C14   C16   1.400076 A    
C2    C21   1.496128 S    
C28   H22   1.083302 S    
O1    C3    1.335626 A    
O16   C44   1.331490 A    
O2    C4    1.333417 A    
C2    O7    1.320441 A    
O15   V3    1.983331 S    
C24   C30   1.405246 A    
C17   H7    1.112091 S    
C22   C38   1.423841 A    
C18   H8    1.111547 S    
C7    C9    1.410080 A    
O14   C42   1.338793 A    
C33   C35   1.411645 A    
C34   C36   1.408966 A    
C25   C33   1.400820 A    
C37   C39   1.405277 A    
C38   C40   1.404559 A    
C17   C19   1.521624 S    
C14   C41   1.487928 S    
C20   H10   1.112188 S    
C13   C42   1.486695 S    
C39   H17   1.084131 S    
C25   C27   1.399423 A    
C31   C39   1.397621 A    
C26   C28   1.398623 A    
C32   C40   1.398186 A    
C40   H18   1.084167 S    
O12   V3    1.964761 S    
C19   H11   1.112328 S    
O14   V4    2.009908 S    
C18   C20   1.520348 S    
C23   C29   1.405361 A    
O5    V1    2.012371 S    
C36   H14   1.084314 S    
O6    V2    2.010241 S    
C29   C31   1.413049 A    
C9    H1    1.079192 S    
C11   C13   1.412290 A    
C30   C32   1.410531 A    
C3    C8    1.487563 S    
C26   C34   1.401001 A    
O4    C2    1.306741 A    
N1    O21   1.301521 A    
O20   V3    1.802264 S    
C23   C27   1.410360 A    
C17   H5    1.111554 S    
C16   C18   1.490268 S    
O4    V2    2.037122 S    
O5    C3    1.340747 A    
O11   V4    1.992144 S    
N1    O22   1.300828 A    
O6    C4    1.336421 A    
C15   C17   1.490074 S    
O1    V2    2.001427 S    
C23   C44   1.490979 S    
N2    O24   1.301199 A    
O2    V1    2.000981 S    
O13   C41   1.343205 A    
O17   V3    2.000732 S    
O13   V3    2.012087 S    
C8    C10   1.409521 A    
C12   C14   1.413902 A    
C31   C33   1.414094 A    
C5    C15   1.391950 A    
C10   H2    1.080170 S    
C20   H12   1.111417 S    
C6    C16   1.392507 A    
C29   H19   1.084176 S    
O3    V1    1.983289 S    
O19   V4    1.769995 S    
C9    C11   1.410694 A    
C21   C35   1.407686 A    
C25   H15   1.083692 S    
C22   C36   1.407258 A    
C18   H6    1.112145 S    
O12   C44   1.341649 A    
O3    C1    1.321480 A    
C11   H3    1.081412 S    
C1    C22   1.492721 S    
C12   H4    1.081555 S    
C24   C43   1.487766 S    
C38   N2    1.437029 S    
O7    V1    1.976105 S    
C1    O8    1.308175 A    
C13   C15   1.400593 A    
O8    V2    2.007705 S    
C35   H13   1.084243 S    
O15   C43   1.343762 A    
C42   O17   1.332487 A    
C26   H16   1.083706 S    
C41   O18   1.334889 A    
O18   V4    2.001148 S    
C4    C7    1.486607 S    
C21   C37   1.425287 A    
C5    C7    1.401370 A    
C32   C34   1.413520 A    
C6    C8    1.402833 A    
N2    O23   1.301877 A    
C19   H9    1.111674 S    
C24   C28   1.409409 A    
C30   H20   1.084236 S    
O16   V4    2.037167 S    
C10   C12   1.410405 A    
O9    V2    1.770390 S    
O10   V1    1.802682 S    
C5    C19   1.489324 S    
C6    C20   1.490862 S    
O11   C43   1.331619 A    
C27   H21   1.083286 S    
C37   N1    1.437390 S    
