data_mof_unit_60797.cif
_audit_creation_date              2012-12-10T17:19:37-0500
_audit_creation_method            fapswitch 2.2
_symmetry_space_group_name_H-M    P1
_symmetry_Int_Tables_number       1
_space_group_crystal_system       triclinic
_cell_length_a                    10.199757
_cell_length_b                    10.753914
_cell_length_c                    11.519488
_cell_angle_alpha                 91.126113
_cell_angle_beta                  81.935051
_cell_angle_gamma                 96.820705
_cell_volume                      1242.1849774

loop_
_atom_site_label
_atom_site_type_symbol
_atom_type_description
_atom_site_fract_x
_atom_site_fract_y
_atom_site_fract_z
_atom_type_partial_charge
C1    C     C_R   0.557761 0.732485 0.484811 0.792224
C2    C     C_2   0.405251 0.133130 0.515455 0.224200
C3    C     C_2   0.499761 0.937703 0.460065 0.085033
C4    C     C_2   0.501284 0.058877 0.521350 0.055044
C5    C     C_2   0.928194 0.528603 0.500660 0.194798
C6    C     C_2   0.076098 0.538656 0.467382 0.208555
C7    C     C_3   0.200452 0.043824 0.593232 0.089468
C8    C     C_3   0.058503 0.006146 0.568850 -0.639778
C9    C     C_3   0.801978 0.865581 0.352442 0.134601
C10   C     C_3   0.892327 0.968047 0.282110 -0.717945
C11   C     C_R   0.442623 0.267171 0.512250 0.850782
C12   C     C_R   0.500542 0.500142 0.717665 0.901757
C13   C     C_R   0.499497 0.499928 0.282333 0.894263
C14   C     C_1   0.501347 0.500173 0.838138 -0.124688
C15   C     C_1   0.498853 0.500382 0.161848 -0.120560
C16   C     C_1   0.500765 0.500356 0.940524 0.044284
C17   C     C_1   0.499471 0.500507 0.059466 0.046948
C18   C     C_2   0.596581 0.866115 0.465251 0.270038
H1    H     H_    0.197823 0.118054 0.662289 0.150980
H2    H     H_    0.830968 0.033453 0.247406 0.269146
H3    H     H_    0.238346 0.960182 0.626371 0.161119
H4    H     H_    0.057007 0.930196 0.502161 0.260139
H5    H     H_    0.994705 0.972013 0.650729 0.229095
H6    H     H_    0.017692 0.088056 0.536307 0.272607
H7    H     H_    0.738260 0.814726 0.291086 0.121012
H8    H     H_    0.865499 0.799041 0.382192 0.189146
H9    H     H_    0.960540 0.020043 0.337881 0.275764
H10   H     H_    0.953013 0.925992 0.207214 0.222045
I1    I     I_    0.641453 0.107425 0.643892 -0.267703
I2    I     I_    0.380828 0.890843 0.322697 -0.268749
I3    I     I_    0.137529 0.598127 0.291618 -0.259216
I4    I     I_    0.868900 0.672921 0.620890 -0.285197
I5    I     I_    0.083374 0.463993 0.708018 -0.200900
I6    I     I_    0.903604 0.302791 0.346836 -0.215187
N1    N     N_2   0.842700 0.448890 0.453570 -0.038175
N2    N     N_2   0.157300 0.551110 0.546430 -0.049158
O1    O     O_R   0.431060 0.692470 0.509350 -0.595028
O2    O     O_3   0.729281 0.918299 0.451876 -0.576763
O3    O     O_R   0.568940 0.307530 0.490650 -0.581405
O4    O     O_R   0.651120 0.659650 0.479540 -0.603147
O5    O     O_R   0.348880 0.340350 0.520460 -0.574730
O6    O     O_R   0.389960 0.516400 0.680450 -0.587810
O7    O     O_R   0.610040 0.483600 0.319550 -0.599903
O8    O     O_R   0.610030 0.483580 0.650650 -0.575196
O9    O     O_R   0.389970 0.516420 0.349350 -0.574909
O10   O     O_3   0.280204 0.087999 0.488730 -0.576862
Zn1   Zn    Zn3+2 0.353060 0.521910 0.519900 1.049315
Zn2   Zn    Zn3+2 0.646940 0.478090 0.480100 1.040646

loop_
_geom_bond_atom_site_label_1
_geom_bond_atom_site_label_2
_ccdc_geom_bond_type
C10   H9    S    
C3    I2    S    
C8    H4    S    
O1    Zn1   S    
C9    C10   S    
C2    C4    D    
C4    I1    S    
C1    O1    A    
C5    I4    S    
C8    H5    S    
C13   C15   S    
C6    I3    S    
O5    Zn1   S    
C9    H7    S    
C7    C8    S    
C12   O8    A    
C2    O10   S    
C13   O9    A    
C1    C18   S    
C10   H2    S    
N2    Zn1   S    
N1    Zn2   S    
C5    N1    D    
C9    O2    S    
C8    H6    S    
C6    N2    D    
C9    H8    S    
C11   O5    A    
C7    H1    S    
O6    Zn1   S    
O9    Zn1   S    
C18   O2    S    
C5    C6    S    
C11   O3    A    
C14   C16   T    
C2    C11   S    
C3    C4    S    
C7    O10   S    
C13   O7    A    
I5    N2    S    
C3    C18   D    
C15   C17   T    
I6    N1    S    
O7    Zn2   S    
C10   H10   S    
O4    Zn2   S    
O3    Zn2   S    
C12   O6    A    
C1    O4    A    
C7    H3    S    
O8    Zn2   S    
C12   C14   S    
C16   C17   S    
