data_mof_unit_6692.cif
_audit_creation_date              2012-10-26T18:27:09-0400
_audit_creation_method            fapswitch 2.2
_symmetry_space_group_name_H-M    P1
_symmetry_Int_Tables_number       1
_space_group_crystal_system       triclinic
_cell_length_a                    15.095741
_cell_length_b                    10.904374
_cell_length_c                    9.693477
_cell_angle_alpha                 89.385375
_cell_angle_beta                  89.648571
_cell_angle_gamma                 90.112017
_cell_volume                      1595.51434819

loop_
_atom_site_label
_atom_site_type_symbol
_atom_type_description
_atom_site_fract_x
_atom_site_fract_y
_atom_site_fract_z
_atom_type_partial_charge
C1    C     C_R   0.497237 0.265162 0.500869 0.537836
C2    C     C_R   0.184833 0.468411 0.625692 0.369917
C3    C     C_R   0.231471 0.495103 0.502576 -0.011821
C4    C     C_R   0.328550 0.498656 0.500685 0.545323
C5    C     C_R   0.185418 0.518322 0.380279 -0.201171
C6    C     C_2   0.462026 0.934678 0.393129 0.123322
C7    C     C_2   0.499142 0.867769 0.495874 -0.083254
C8    C     C_2   0.477650 0.068442 0.389311 -0.132864
C9    C     C_2   0.485709 0.133268 0.505059 -0.144338
C10   C     C_2   0.452576 0.425513 0.924699 0.158252
C11   C     C_2   0.441288 0.442991 0.077679 0.137977
C12   C     C_R   0.907846 0.518503 0.377043 0.022852
C13   C     C_R   0.497897 0.734855 0.499045 0.530853
C14   C     C_R   0.671293 0.499593 0.499612 0.533061
C15   C     C_R   0.815450 0.520186 0.376881 -0.126225
C16   C     C_R   0.768000 0.497274 0.499275 -0.012164
C17   C     C_R   0.813132 0.471398 0.622009 -0.123708
C18   C     C_R   0.905312 0.468311 0.623473 -0.013987
C19   C     C_R   0.953152 0.492318 0.501020 0.056790
C20   C     C_3   0.102859 0.274795 0.889394 -0.252029
C21   C     C_3   0.369938 0.950989 0.181447 -0.285740
C22   C     C_R   0.949936 0.440937 0.745654 -0.142246
C23   C     C_R   0.042487 0.436787 0.748498 0.152563
C24   C     C_R   0.091704 0.464503 0.626787 0.046101
C25   C     C_R   0.046157 0.491018 0.502523 -0.023095
C26   C     C_R   0.093339 0.517316 0.379403 -0.002500
C27   C     C_R   0.047803 0.543234 0.256977 -0.120809
C28   C     C_R   0.955580 0.543308 0.255598 -0.129142
Cu1   Cu    Cu3+1 0.500020 0.500020 0.638630 1.120239
Cu2   Cu    Cu3+1 0.499980 0.499980 0.361370 1.081663
F1    F     F_    0.516603 0.609215 0.899004 -0.475204
F2    F     F_    0.580454 0.509657 0.098880 -0.490374
F3    F     F_    0.230456 0.447273 0.743965 -0.621297
H1    H     H_    0.780626 0.540559 0.281870 0.163727
H2    H     H_    0.083668 0.564225 0.162477 0.119389
H3    H     H_    0.921627 0.563587 0.159863 0.115573
H4    H     H_    0.053183 0.438679 0.960448 0.233089
H5    H     H_    0.039789 0.222165 0.895565 0.117559
H6    H     H_    0.140838 0.258289 0.985542 0.143135
H7    H     H_    0.142934 0.241555 0.800875 0.185698
H8    H     H_    0.367533 0.808571 0.326395 0.256628
H9    H     H_    0.330755 0.891583 0.112131 0.155285
H10   H     H_    0.422382 0.996062 0.118021 0.161098
H11   H     H_    0.325016 0.020658 0.226683 0.129105
H12   H     H_    0.536974 0.910527 0.577147 0.088263
H13   H     H_    0.480254 0.115026 0.289914 0.151463
H14   H     H_    0.478273 0.090496 0.606094 0.104773
H15   H     H_    0.417835 0.349803 0.877380 0.062336
H16   H     H_    0.382913 0.403880 0.127004 0.038747
H17   H     H_    0.776541 0.452605 0.716546 0.150562
H18   H     H_    0.912786 0.420912 0.839372 0.113136
H19   H     H_    0.221284 0.539068 0.285546 0.143224
N1    N     N_2   0.499020 0.498660 0.846910 0.075998
N2    N     N_2   0.499000 0.498630 0.153040 0.080506
N3    N     N_2   0.084806 0.404494 0.874498 -0.436553
N4    N     N_2   0.409230 0.876617 0.289419 -0.462220
O1    O     O_R   0.500020 0.321960 0.617040 -0.530959
O2    O     O_R   0.499980 0.321920 0.382900 -0.516646
O3    O     O_R   0.370270 0.499990 0.617090 -0.441774
O4    O     O_R   0.370240 0.499950 0.382940 -0.560994
O5    O     O_R   0.500020 0.678080 0.617100 -0.452522
O6    O     O_R   0.499980 0.678040 0.382960 -0.464440
O7    O     O_R   0.629760 0.500050 0.617060 -0.492675
O8    O     O_R   0.629730 0.500010 0.382910 -0.455294

loop_
_geom_bond_atom_site_label_1
_geom_bond_atom_site_label_2
_ccdc_geom_bond_type
C17   H17   S    
C8    C9    D    
C21   N4    S    
C23   C24   A    
Cu1   O7    S    
C5    H19   S    
C23   N3    S    
C6    C7    D    
C11   H16   S    
C1    O1    A    
C21   H11   S    
C20   H5    S    
C15   H1    S    
C12   C15   A    
C14   O8    A    
C4    O4    A    
C17   C18   A    
C3    C4    S    
C13   O5    A    
H8    N4    S    
Cu1   O5    S    
C21   H10   S    
C1    O2    A    
F1    N1    S    
C10   H15   S    
Cu2   N2    S    
C28   H3    S    
C26   C27   A    
Cu1   Cu2   S    
C11   N2    D    
Cu1   N1    S    
C12   C28   A    
C20   N3    S    
C19   C25   A    
C14   O7    A    
Cu2   O2    S    
C4    O3    A    
F2    N2    S    
C12   C19   A    
C2    C3    A    
Cu2   O8    S    
Cu2   O6    S    
C2    C24   A    
C20   H7    S    
C14   C16   S    
C9    H14   S    
C10   C11   S    
Cu1   O1    S    
C5    C26   A    
H4    N3    S    
C7    H12   S    
C7    C13   S    
C1    C9    S    
C24   C25   A    
C2    F3    S    
C18   C19   A    
C27   C28   A    
C20   H6    S    
C10   N1    D    
Cu1   O3    S    
C22   C23   A    
C22   H18   S    
C6    C8    S    
C21   H9    S    
C8    H13   S    
C27   H2    S    
C25   C26   A    
C18   C22   A    
C13   O6    A    
C15   C16   A    
C6    N4    S    
C16   C17   A    
C3    C5    A    
Cu2   O4    S    
