data_mof_unit_61524.cif
_audit_creation_date              2012-12-10T17:00:06-0500
_audit_creation_method            fapswitch 2.2
_symmetry_space_group_name_H-M    P1
_symmetry_Int_Tables_number       1
_space_group_crystal_system       triclinic
_cell_length_a                    13.100845
_cell_length_b                    13.181914
_cell_length_c                    16.041169
_cell_angle_alpha                 80.468181
_cell_angle_beta                  100.037984
_cell_angle_gamma                 90.435363
_cell_volume                      2689.50591174

loop_
_atom_site_label
_atom_site_type_symbol
_atom_type_description
_atom_site_fract_x
_atom_site_fract_y
_atom_site_fract_z
_atom_type_partial_charge
C1    C     C_R   0.462192 0.777013 0.469008 0.505936
C2    C     C_2   0.050911 0.539909 0.469426 -0.097033
C3    C     C_2   0.888654 0.552927 0.523518 -0.065276
C4    C     C_R   0.537254 0.223226 0.531391 0.557221
C5    C     C_2   0.937649 0.533149 0.460233 0.253409
C6    C     C_R   0.777065 0.535291 0.521572 0.539513
C7    C     C_R   0.222729 0.467661 0.476172 0.537828
C8    C     C_R   0.515750 0.487539 0.726864 0.501826
C9    C     C_R   0.484325 0.512243 0.272952 0.524814
C10   C     C_1   0.522284 0.482061 0.817581 0.034913
C11   C     C_2   0.533882 0.472459 0.984875 -0.105019
C12   C     C_1   0.472958 0.521389 0.106130 -0.015462
C13   C     C_2   0.466838 0.526357 0.015110 -0.109544
C14   C     C_1   0.527711 0.477552 0.893834 -0.026572
C15   C     C_1   0.478183 0.517168 0.182332 0.050675
C16   C     C_2   0.550022 0.112246 0.539667 -0.047195
C17   C     C_2   0.472295 0.053331 0.510977 0.208521
C18   C     C_2   0.439798 0.887231 0.461057 -0.070346
C19   C     C_2   0.494412 0.943252 0.514934 -0.123865
C20   C     C_2   0.110637 0.457356 0.469644 0.268500
Cl1   Cl    Cl    0.059797 0.332569 0.472580 -0.446517
Cl2   Cl    Cl    0.346873 0.106176 0.466089 -0.516112
Cl3   Cl    Cl    0.871470 0.502908 0.361605 -0.469613
H1    H     H_    0.406809 0.574688 0.971588 0.145334
H2    H     H_    0.593927 0.424131 0.028379 0.157922
H3    H     H_    0.559705 0.908033 0.562083 0.137385
H4    H     H_    0.376630 0.921920 0.411647 0.176339
H5    H     H_    0.627975 0.079593 0.561252 0.068776
H6    H     H_    0.086049 0.613595 0.476831 0.082399
H7    H     H_    0.932660 0.580038 0.579202 0.072996
O1    O     O_3   0.500000 0.500000 0.500000 -0.467933
O2    O     O_R   0.564890 0.556920 0.685230 -0.536048
O3    O     O_R   0.419250 0.562810 0.301190 -0.529718
O4    O     O_R   0.461010 0.422870 0.688230 -0.537886
O5    O     O_R   0.554850 0.457400 0.325340 -0.505299
O6    O     O_R   0.732880 0.470090 0.478000 -0.469911
O7    O     O_R   0.260330 0.535210 0.424090 -0.543862
O8    O     O_R   0.533020 0.732860 0.528350 -0.537512
O9    O     O_R   0.473780 0.261850 0.569570 -0.489512
O10   O     O_R   0.406490 0.723840 0.419860 -0.532146
O11   O     O_R   0.586720 0.281460 0.482230 -0.525422
O12   O     O_R   0.723810 0.584530 0.562340 -0.544187
O13   O     O_R   0.282980 0.410180 0.535580 -0.495442
Zn1   Zn    Zn3+2 0.592010 0.428480 0.447310 1.035226
Zn2   Zn    Zn3+2 0.579060 0.591980 0.567800 0.952934
Zn3   Zn    Zn3+2 0.430650 0.400450 0.572090 1.011986
Zn4   Zn    Zn3+2 0.398290 0.579090 0.412800 0.982977

loop_
_geom_bond_atom_site_label_1
_geom_bond_atom_site_label_2
_ccdc_geom_bond_type
C4    C16   S    
O10   Zn4   S    
C12   C15   T    
C16   H5    S    
O4    Zn3   S    
C7    O13   A    
O7    Zn4   S    
O2    Zn2   S    
C17   Cl2   S    
C5    Cl3   S    
C4    O9    A    
C3    C6    S    
O1    Zn1   S    
C9    C15   S    
C8    O4    A    
C20   Cl1   S    
C9    O3    A    
O5    Zn1   S    
C11   C13   D    
C1    C18   S    
C1    O8    A    
O9    Zn3   S    
C3    H7    S    
O11   Zn1   S    
C6    O6    A    
C18   C19   D    
C2    H6    S    
C7    O7    A    
O3    Zn4   S    
O13   Zn3   S    
O6    Zn1   S    
C2    C5    S    
C4    O11   A    
C11   H2    S    
C2    C20   D    
C8    O2    A    
C12   C13   S    
C8    C10   S    
C7    C20   S    
O1    Zn2   S    
C11   C14   S    
C9    O5    A    
C19   H3    S    
O8    Zn2   S    
O1    Zn4   S    
C1    O10   A    
C17   C19   S    
C6    O12   A    
O12   Zn2   S    
C18   H4    S    
C13   H1    S    
C10   C14   T    
C16   C17   D    
C3    C5    D    
O1    Zn3   S    
