data_mof_unit_25548.cif
_audit_creation_date              2012-12-11T17:12:47-0500
_audit_creation_method            fapswitch 2.2
_symmetry_space_group_name_H-M    P1
_symmetry_Int_Tables_number       1
_space_group_crystal_system       triclinic
_cell_length_a                    17.153887
_cell_length_b                    6.886397
_cell_length_c                    14.384726
_cell_angle_alpha                 89.257466
_cell_angle_beta                  109.863669
_cell_angle_gamma                 90.920564
_cell_volume                      1597.88994741

loop_
_atom_site_label
_atom_site_type_symbol
_atom_type_description
_atom_site_fract_x
_atom_site_fract_y
_atom_site_fract_z
_atom_type_partial_charge
O1    O     O_R   0.314130 0.635770 0.168990 -0.535452
O2    O     O_R   0.685870 0.364230 0.831010 -0.535454
O3    O     O_R   0.185870 0.135770 0.331010 -0.540542
O4    O     O_R   0.814130 0.864230 0.668990 -0.540552
O5    O     O_R   0.146800 0.302460 0.139760 -0.537278
O6    O     O_R   0.853200 0.697540 0.860240 -0.537277
O7    O     O_R   0.353200 0.802460 0.360240 -0.537185
O8    O     O_R   0.646800 0.197540 0.639760 -0.537176
C1    C     C_R   0.114013 0.475561 0.112768 0.717029
C2    C     C_R   0.885987 0.524439 0.887232 0.717025
C3    C     C_R   0.385976 0.976162 0.387227 0.719723
C4    C     C_R   0.614024 0.023838 0.612773 0.719731
O9    O     O_R   0.311100 0.305780 0.157130 -0.543351
O10   O     O_R   0.688900 0.694220 0.842870 -0.543345
O11   O     O_R   0.188900 0.805780 0.342870 -0.537444
O12   O     O_R   0.811100 0.194220 0.657130 -0.537437
O13   O     O_R   0.351340 0.139640 0.348510 -0.534987
O14   O     O_R   0.648660 0.860360 0.651490 -0.534988
O15   O     O_R   0.148660 0.639640 0.151490 -0.535114
O16   O     O_R   0.851340 0.360360 0.848510 -0.535117
C5    C     C_R   0.331692 0.477318 0.134375 0.706371
C6    C     C_R   0.668308 0.522682 0.865625 0.706372
C7    C     C_R   0.168077 0.972937 0.365574 0.707253
C8    C     C_R   0.831927 0.027064 0.634430 0.707264
C9    C     C_1   0.533596 0.008510 0.533062 -0.186024
C10   C     C_1   0.466404 0.991490 0.466938 -0.186015
C11   C     C_1   0.966435 0.509246 0.966982 -0.186069
C12   C     C_1   0.033565 0.490754 0.033018 -0.186072
O17   O     O_3   0.263010 0.470920 0.312770 -0.364937
O18   O     O_3   0.736990 0.529080 0.687230 -0.364945
O19   O     O_3   0.236990 0.970920 0.187230 -0.365834
O20   O     O_3   0.763010 0.029080 0.812770 -0.365829
V1    V     V_3+5 0.247590 0.194450 0.238360 1.425477
V2    V     V_3+5 0.752410 0.805550 0.761640 1.425470
V3    V     V_3+5 0.252410 0.694450 0.261640 1.430294
V4    V     V_3+5 0.747590 0.305550 0.738360 1.430281
C13   C     C_R   0.118783 0.973619 0.432533 -0.063888
C14   C     C_R   0.881224 0.026385 0.567475 -0.063914
C15   C     C_R   0.380788 0.497303 0.067636 -0.064343
C16   C     C_R   0.619213 0.502698 0.932365 -0.064337
C17   C     C_R   0.915197 0.161979 0.427982 -0.171879
C18   C     C_R   0.084813 0.838040 0.572030 -0.171905
C19   C     C_R   0.583469 0.325813 0.060871 -0.173996
C20   C     C_R   0.416534 0.674194 0.939133 -0.173985
C21   C     C_R   0.860074 0.144589 0.481001 0.152639
C22   C     C_R   0.139938 0.855437 0.519015 0.152696
C23   C     C_R   0.639096 0.362515 0.009969 0.150216
C24   C     C_R   0.360907 0.637492 0.990036 0.150201
C25   C     C_R   0.955313 0.921361 0.595730 -0.266074
C26   C     C_R   0.044691 0.078635 0.404274 -0.266074
C27   C     C_R   0.545925 0.609029 0.911071 -0.268087
C28   C     C_R   0.454076 0.390970 0.088929 -0.268087
C29   C     C_R   0.009910 0.938743 0.541963 0.112576
C30   C     C_R   0.990095 0.061260 0.458043 0.112575
C31   C     C_R   0.490751 0.571939 0.962618 0.113248
C32   C     C_R   0.509250 0.428062 0.037383 0.113248
H1    H     H_    0.028085 0.168424 0.338062 0.122136
H2    H     H_    0.971918 0.831566 0.661939 0.122133
H3    H     H_    0.469740 0.284644 0.148520 0.123017
H4    H     H_    0.530260 0.715354 0.851479 0.123018
H5    H     H_    0.899196 0.253949 0.362554 0.121471
H6    H     H_    0.100819 0.746090 0.637465 0.121490
H7    H     H_    0.598478 0.217220 0.119395 0.122726
H8    H     H_    0.401526 0.782791 0.880611 0.122716
C33   C     C_3   0.220767 0.748327 0.558417 -0.765725
H9    H     H_    0.267228 0.801814 0.525900 0.197666
H10   H     H_    0.248610 0.769283 0.639558 0.194719
H11   H     H_    0.209294 0.590798 0.543365 0.215143
C34   C     C_3   0.779258 0.251756 0.441632 -0.765540
H12   H     H_    0.732752 0.197999 0.474027 0.197576
H13   H     H_    0.790734 0.409231 0.456884 0.215157
H14   H     H_    0.751472 0.231169 0.360457 0.194697
C35   C     C_3   0.281042 0.749146 0.958104 -0.759919
H15   H     H_    0.234367 0.685602 0.987687 0.197824
H16   H     H_    0.293981 0.902157 0.982637 0.215909
H17   H     H_    0.252721 0.747215 0.876236 0.192653
C36   C     C_3   0.718966 0.250874 0.041911 -0.759980
H18   H     H_    0.765625 0.314348 0.012288 0.197854
H19   H     H_    0.747304 0.252917 0.123775 0.192657
H20   H     H_    0.706026 0.097835 0.017435 0.215906

loop_
_geom_bond_atom_site_label_1
_geom_bond_atom_site_label_2
_ccdc_geom_bond_type
C2    C11   S    
C16   C23   A    
C31   C32   A    
O1    C5    A    
C35   H15   S    
O3    C7    A    
C17   H5    S    
C19   H7    S    
C14   C25   A    
C36   H18   S    
C20   H8    S    
O7    C3    A    
C26   C30   A    
O20   V4    S    
C18   C29   A    
O8    V4    S    
O4    C8    A    
O3    V1    S    
O17   V1    S    
C18   C22   A    
C34   H13   S    
C14   C21   A    
C1    O15   A    
C2    O16   A    
C33   H10   S    
O5    V1    S    
O2    C6    A    
C8    C14   S    
O19   V1    S    
C18   H6    S    
O11   C7    A    
C15   C28   A    
O12   C8    A    
C35   H16   S    
O13   V1    S    
O11   V3    S    
C36   H19   S    
O4    V2    S    
O18   V2    S    
C21   C34   S    
C22   C33   S    
C3    C10   S    
C9    C10   T    
C7    C13   S    
C25   H2    S    
O6    V2    S    
O20   V2    S    
C34   H14   S    
O5    C1    A    
C28   H3    S    
C5    C15   S    
O8    C4    A    
C33   H11   S    
C6    C16   S    
O9    C5    A    
O14   V2    S    
C33   H9    S    
C35   H17   S    
O19   V3    S    
C23   C36   S    
O1    V3    S    
C36   H20   S    
O2    V4    S    
C3    O13   A    
C26   H1    S    
O7    V3    S    
C24   C35   S    
O10   V2    S    
C29   C30   A    
C16   C27   A    
O17   V3    S    
O18   V4    S    
C4    C9    S    
O10   C6    A    
O15   V3    S    
O12   V4    S    
C13   C26   A    
C20   C31   A    
C25   C29   A    
C27   C31   A    
C34   H12   S    
C17   C30   A    
O6    C2    A    
O16   V4    S    
C28   C32   A    
C19   C32   A    
O9    V1    S    
C4    O14   A    
C11   C12   T    
C17   C21   A    
C27   H4    S    
C13   C22   A    
C19   C23   A    
C20   C24   A    
C1    C12   S    
C15   C24   A    
