data_mof_unit_49556.cif
_audit_creation_date              2012-12-10T19:09:34-0500
_audit_creation_method            fapswitch 2.2
_symmetry_space_group_name_H-M    P1
_symmetry_Int_Tables_number       1
_space_group_crystal_system       triclinic
_cell_length_a                    15.943117
_cell_length_b                    15.837715
_cell_length_c                    10.199875
_cell_angle_alpha                 89.930403
_cell_angle_beta                  90.347683
_cell_angle_gamma                 90.653823
_cell_volume                      2575.27758529

loop_
_atom_site_label
_atom_site_type_symbol
_atom_type_description
_atom_site_fract_x
_atom_site_fract_y
_atom_site_fract_z
_atom_type_partial_charge
C1    C     C_R   0.121798 0.381000 0.500705 0.850899
C2    C     C_R   0.120630 0.619897 0.499761 1.001302
C3    C     C_R   0.621790 0.881392 0.500573 0.872302
C4    C     C_R   0.620845 0.120083 0.499593 1.005341
C5    C     C_3   0.927912 0.551540 0.079490 0.222188
C6    C     C_3   0.938089 0.562936 0.918888 0.220681
C7    C     C_3   0.411264 0.013518 0.080834 0.224153
C8    C     C_3   0.409416 0.997700 0.919642 0.239284
C9    C     C_R   0.883732 0.374937 0.499461 0.833240
C10   C     C_R   0.881525 0.623885 0.500043 0.875591
C11   C     C_R   0.383705 0.874562 0.500129 0.832828
C12   C     C_R   0.382733 0.124700 0.499812 0.869747
C13   C     C_3   0.812532 0.256801 0.637428 0.111199
C14   C     C_3   0.830776 0.234131 0.386531 0.102870
C15   C     C_3   0.805704 0.742422 0.360060 0.134166
C16   C     C_3   0.831105 0.766489 0.609709 0.187963
C17   C     C_3   0.307790 0.756334 0.641460 0.146410
C18   C     C_3   0.332295 0.733657 0.391383 0.102911
C19   C     C_3   0.313801 0.250243 0.365864 0.135115
C20   C     C_3   0.328479 0.261555 0.618965 0.160390
C21   C     C_3   0.240195 0.683207 0.631895 -0.156441
C22   C     C_3   0.252527 0.673657 0.382597 -0.138600
C23   C     C_3   0.245951 0.321620 0.375566 -0.089228
C24   C     C_3   0.249177 0.320586 0.625966 -0.093656
C25   C     C_3   0.742462 0.186137 0.628635 -0.145290
C26   C     C_3   0.751010 0.174676 0.379219 -0.124816
C27   C     C_3   0.739923 0.815105 0.371269 -0.047794
C28   C     C_3   0.752448 0.825683 0.617309 -0.133192
C29   C     C_3   0.726015 0.349629 0.472956 0.066910
C30   C     C_3   0.721566 0.650501 0.528535 0.142815
C31   C     C_3   0.225649 0.848744 0.468919 0.074653
C32   C     C_3   0.223504 0.150696 0.513679 0.138386
C33   C     C_3   0.814948 0.305167 0.499094 0.090076
C34   C     C_3   0.811963 0.693918 0.500039 0.009796
C35   C     C_3   0.314153 0.804865 0.501189 0.086460
C36   C     C_3   0.314066 0.195145 0.499292 0.041332
C37   C     C_3   0.189471 0.687428 0.498913 -0.001437
C38   C     C_3   0.190646 0.312949 0.501826 -0.154095
C39   C     C_3   0.689754 0.188387 0.497192 -0.028847
C40   C     C_3   0.689533 0.812865 0.501786 -0.181761
C41   C     C_3   0.149710 0.780390 0.482041 -0.085879
C42   C     C_3   0.149647 0.219646 0.499538 -0.121657
C43   C     C_3   0.649910 0.281089 0.481279 -0.108929
C44   C     C_3   0.647340 0.720302 0.515086 -0.106697
C45   C     C_3   0.986813 0.413901 0.079673 -0.131099
C46   C     C_3   0.976589 0.415653 0.923502 -0.123911
C47   C     C_3   0.082431 0.525625 0.920087 -0.123303
C48   C     C_3   0.078175 0.537032 0.076052 -0.101744
C49   C     C_3   0.524358 0.917086 0.074138 -0.138374
C50   C     C_3   0.538407 0.923154 0.918673 -0.153790
C51   C     C_3   0.537546 0.077533 0.928398 -0.222312
C52   C     C_3   0.553139 0.067585 0.082737 -0.164726
H1    H     H_    0.193467 0.693480 0.709176 0.217303
H2    H     H_    0.219268 0.691121 0.291902 0.242982
H3    H     H_    0.200901 0.311356 0.294994 0.206084
H4    H     H_    0.210432 0.298359 0.709146 0.163255
H5    H     H_    0.697178 0.201107 0.702291 0.238931
H6    H     H_    0.716833 0.193912 0.290670 0.262805
H7    H     H_    0.692390 0.800414 0.298571 0.184159
H8    H     H_    0.715433 0.803528 0.699195 0.205213
H9    H     H_    0.926691 0.388257 0.114790 0.119588
H10   H     H_    0.910165 0.401475 0.902432 0.142322
H11   H     H_    0.101019 0.588921 0.882244 0.134437
H12   H     H_    0.079203 0.605710 0.089621 0.141755
H13   H     H_    0.472668 0.871637 0.089982 0.080076
H14   H     H_    0.507543 0.866908 0.873650 0.142974
H15   H     H_    0.492879 0.129377 0.912571 0.166334
H16   H     H_    0.535635 0.128136 0.128394 0.220902
N1    N     N_3   0.998760 0.500000 0.138610 -0.163559
N2    N     N_3   0.998760 0.500000 0.861390 -0.171111
N3    N     N_3   0.498760 0.000000 0.138610 -0.152595
N4    N     N_3   0.498760 0.000000 0.861390 -0.157315
O1    O     O_R   0.092530 0.407440 0.616040 -0.687816
O2    O     O_R   0.092530 0.407440 0.383960 -0.667300
O3    O     O_R   0.092530 0.592560 0.383960 -0.613351
O4    O     O_R   0.092530 0.592560 0.616040 -0.637243
O5    O     O_R   0.592530 0.907440 0.616040 -0.656916
O6    O     O_R   0.592530 0.907440 0.383960 -0.657469
O7    O     O_R   0.592530 0.092560 0.383960 -0.622638
O8    O     O_R   0.592530 0.092560 0.616040 -0.621931
O9    O     O_R   0.907330 0.407420 0.616040 -0.633280
O10   O     O_R   0.907330 0.407420 0.383960 -0.640813
O11   O     O_R   0.907330 0.592580 0.383960 -0.610709
O12   O     O_R   0.907330 0.592580 0.616040 -0.574278
O13   O     O_R   0.407330 0.907420 0.616040 -0.624475
O14   O     O_R   0.407330 0.907420 0.383960 -0.627641
O15   O     O_R   0.407330 0.092580 0.383960 -0.615986
O16   O     O_R   0.407330 0.092580 0.616040 -0.607425
Zn1   Zn    Zn3+2 0.999890 0.500000 0.654960 0.931372
Zn2   Zn    Zn3+2 0.999890 0.500000 0.345040 0.938094
Zn3   Zn    Zn3+2 0.499890 0.000000 0.654960 0.944988
Zn4   Zn    Zn3+2 0.499890 0.000000 0.345040 0.944613
N5    N     N_3   0.796181 0.314861 0.748795 -0.454705
H17   H     H_    0.828040 0.295022 0.832865 0.214947
H18   H     H_    0.734285 0.313655 0.780848 0.206256
N6    N     N_3   0.841353 0.273357 0.256738 -0.454764
H19   H     H_    0.903561 0.291067 0.248376 0.188926
H20   H     H_    0.833052 0.228401 0.182459 0.211685
N7    N     N_3   0.778164 0.686436 0.252005 -0.443215
H21   H     H_    0.774464 0.723534 0.167128 0.175747
H22   H     H_    0.716073 0.668125 0.256932 0.244265
N8    N     N_3   0.845869 0.731370 0.741437 -0.412431
H23   H     H_    0.873836 0.778774 0.798312 0.174113
H24   H     H_    0.793099 0.723678 0.798697 0.169211
N9    N     N_3   0.281162 0.811872 0.747609 -0.452221
H25   H     H_    0.292591 0.780515 0.836262 0.172496
H26   H     H_    0.216721 0.818523 0.753783 0.185913
N10   N     N_3   0.346760 0.771412 0.260352 -0.447035
H27   H     H_    0.409822 0.788443 0.249713 0.210703
H28   H     H_    0.336967 0.726105 0.187049 0.181748
N11   N     N_3   0.292090 0.199744 0.250827 -0.445827
H29   H     H_    0.301904 0.236764 0.166929 0.189026
H30   H     H_    0.229127 0.184143 0.243202 0.250627
N12   N     N_3   0.337023 0.218690 0.746920 -0.456611
H31   H     H_    0.399879 0.204447 0.765150 0.263224
H32   H     H_    0.322451 0.259833 0.823507 0.180793
N13   N     N_3   0.894378 0.218447 0.662386 -0.411337
H33   H     H_    0.940284 0.265261 0.664255 0.236572
H34   H     H_    0.895838 0.187824 0.753119 0.252352
N14   N     N_3   0.908009 0.185667 0.411960 -0.445365
H35   H     H_    0.899128 0.133751 0.471902 0.234463
H36   H     H_    0.929066 0.158745 0.324734 0.208612
N15   N     N_3   0.887623 0.778468 0.322139 -0.479157
H37   H     H_    0.934853 0.734876 0.334678 0.258890
H38   H     H_    0.888418 0.797506 0.223967 0.185930
N16   N     N_3   0.909002 0.813656 0.577740 -0.423566
H39   H     H_    0.902818 0.858485 0.505822 0.175610
H40   H     H_    0.928337 0.851595 0.656262 0.183820
N17   N     N_3   0.390709 0.723771 0.680207 -0.419532
H41   H     H_    0.431309 0.773640 0.702724 0.218501
H42   H     H_    0.386785 0.689756 0.767960 0.197128
N18   N     N_3   0.408563 0.686183 0.423385 -0.445466
H43   H     H_    0.400026 0.638547 0.490940 0.233419
H44   H     H_    0.428043 0.654209 0.339622 0.216603
N19   N     N_3   0.398194 0.285014 0.341572 -0.470980
H45   H     H_    0.437636 0.234948 0.321673 0.265324
H46   H     H_    0.399061 0.321265 0.255796 0.187327
N20   N     N_3   0.406867 0.310579 0.601070 -0.424846
H47   H     H_    0.401602 0.361685 0.538929 0.183755
H48   H     H_    0.425720 0.337623 0.690237 0.198404
N21   N     N_3   0.270197 0.598467 0.667333 -0.483413
H49   H     H_    0.331094 0.586178 0.639224 0.200892
H50   H     H_    0.272768 0.594047 0.769707 0.191968
N22   N     N_3   0.272210 0.584729 0.361317 -0.454916
H51   H     H_    0.295891 0.555992 0.444169 0.193927
H52   H     H_    0.316567 0.579120 0.287101 0.228820
N23   N     N_3   0.277378 0.407355 0.349403 -0.456323
H53   H     H_    0.336386 0.419436 0.388477 0.179647
H54   H     H_    0.285681 0.413799 0.248169 0.227209
N24   N     N_3   0.270406 0.408013 0.660235 -0.448904
H55   H     H_    0.299001 0.441191 0.585217 0.193904
H56   H     H_    0.309440 0.409782 0.742863 0.216267
N25   N     N_3   0.770919 0.101045 0.665681 -0.471146
H57   H     H_    0.827527 0.085133 0.623988 0.199093
H58   H     H_    0.784319 0.100468 0.766177 0.196857
N26   N     N_3   0.768897 0.085662 0.352879 -0.458462
H59   H     H_    0.790350 0.053609 0.434328 0.189319
H60   H     H_    0.812251 0.080111 0.277045 0.218108
N27   N     N_3   0.770678 0.899889 0.333971 -0.405104
H61   H     H_    0.824290 0.918230 0.383266 0.166779
H62   H     H_    0.790181 0.899188 0.236532 0.242052
N28   N     N_3   0.771433 0.914125 0.649898 -0.434747
H63   H     H_    0.810972 0.942671 0.582828 0.179253
H64   H     H_    0.802245 0.916220 0.740677 0.192577
N29   N     N_3   0.713426 0.419789 0.566639 -0.510213
H65   H     H_    0.689926 0.405816 0.658440 0.186606
H66   H     H_    0.767274 0.455729 0.582956 0.226579
N30   N     N_3   0.728706 0.390497 0.342069 -0.435774
H67   H     H_    0.679152 0.432591 0.332445 0.187482
H68   H     H_    0.719127 0.348437 0.265020 0.237102
N31   N     N_3   0.706377 0.582442 0.433474 -0.420674
H69   H     H_    0.757784 0.543598 0.421883 0.199593
H70   H     H_    0.653708 0.546430 0.459536 0.255865
N32   N     N_3   0.723825 0.609756 0.659764 -0.442213
H71   H     H_    0.702351 0.647974 0.734204 0.192065
H72   H     H_    0.680890 0.559797 0.665209 0.219850
N33   N     N_3   0.213240 0.923652 0.553735 -0.506280
H73   H     H_    0.184544 0.917883 0.643827 0.173762
H74   H     H_    0.267836 0.958151 0.570863 0.215717
N34   N     N_3   0.228756 0.883647 0.334376 -0.442568
H75   H     H_    0.180546 0.926955 0.320577 0.183837
H76   H     H_    0.218588 0.838641 0.261575 0.230525
N35   N     N_3   0.211951 0.085715 0.412106 -0.413907
H77   H     H_    0.261915 0.044581 0.407133 0.194370
H78   H     H_    0.157701 0.050216 0.431161 0.254292
N36   N     N_3   0.221216 0.106882 0.642255 -0.479718
H79   H     H_    0.209721 0.147644 0.719949 0.209101
H80   H     H_    0.171909 0.063249 0.646210 0.227198
C53   C     C_2   0.090422 0.803486 0.593036 0.272487
H81   H     H_    0.063828 0.866273 0.593716 0.094165
O17   O     O_2   0.067260 0.754311 0.677277 -0.615648
C54   C     C_2   0.089536 0.789103 0.364761 0.272572
H82   H     H_    0.050529 0.844862 0.357733 0.090073
O18   O     O_2   0.086092 0.739193 0.274204 -0.626661
C55   C     C_2   0.091534 0.213523 0.378910 0.430298
H83   H     H_    0.044532 0.261496 0.368419 0.062159
O19   O     O_2   0.090034 0.155756 0.299921 -0.602094
C56   C     C_2   0.086972 0.205224 0.607830 0.289329
H84   H     H_    0.082409 0.248630 0.685966 0.099910
O20   O     O_2   0.044152 0.140681 0.611610 -0.575113
C57   C     C_2   0.588876 0.301945 0.591405 0.301135
H85   H     H_    0.563761 0.365344 0.596861 0.091500
O21   O     O_2   0.561842 0.249811 0.668431 -0.564545
C58   C     C_2   0.591245 0.291815 0.362882 0.289557
H86   H     H_    0.555236 0.349511 0.354610 0.090068
O22   O     O_2   0.584837 0.241013 0.273952 -0.599914
C59   C     C_2   0.585928 0.709470 0.399424 0.393477
H87   H     H_    0.542244 0.759726 0.380941 0.065333
O23   O     O_2   0.579359 0.646636 0.330984 -0.612283
C60   C     C_2   0.587091 0.713851 0.630356 0.286349
H88   H     H_    0.578848 0.765161 0.698226 0.124464
O24   O     O_2   0.547500 0.648490 0.649817 -0.579233
C61   C     C_2   0.047807 0.348042 0.128921 0.477075
H89   H     H_    0.023782 0.287745 0.160846 0.078572
O25   O     O_2   0.122852 0.353989 0.111808 -0.585113
C62   C     C_2   0.019447 0.341143 0.864977 0.411406
H90   H     H_    0.079296 0.347245 0.820544 0.135582
O26   O     O_2   0.993251 0.270045 0.888529 -0.647853
C63   C     C_2   0.154521 0.478593 0.862935 0.413295
H91   H     H_    0.168965 0.492116 0.762985 0.152730
O27   O     O_2   0.197568 0.428836 0.923928 -0.538263
C64   C     C_2   0.159038 0.520785 0.145165 0.586583
H92   H     H_    0.160803 0.487229 0.235235 0.165662
O28   O     O_2   0.224197 0.550900 0.102133 -0.626382
C65   C     C_2   0.590647 0.866548 0.138229 0.489519
H93   H     H_    0.573895 0.807139 0.183749 0.040352
O29   O     O_2   0.664217 0.885078 0.126379 -0.628197
C66   C     C_2   0.627457 0.909401 0.876027 0.517370
H94   H     H_    0.666987 0.957936 0.837322 0.079470
O30   O     O_2   0.657347 0.839289 0.888905 -0.636025
C67   C     C_2   0.610920 0.119249 0.869471 0.599587
H95   H     H_    0.655842 0.084102 0.818356 0.066282
O31   O     O_2   0.626236 0.193066 0.897072 -0.553775
C68   C     C_2   0.643629 0.057085 0.127991 0.504251
H96   H     H_    0.656258 0.018275 0.212158 0.189030
O32   O     O_2   0.702206 0.097411 0.082315 -0.610132
N37   N     N_3   0.846598 0.509815 0.109581 -0.481167
H97   H     H_    0.843780 0.497623 0.209928 0.269452
H98   H     H_    0.796334 0.549862 0.090693 0.179606
N38   N     N_3   0.856077 0.555459 0.852237 -0.370233
H99   H     H_    0.815567 0.599797 0.891634 0.165518
H100  H     H_    0.826685 0.497084 0.865353 0.187217
N39   N     N_3   0.972050 0.648057 0.890124 -0.470018
H101  H     H_    0.935501 0.697061 0.922223 0.163957
H102  H     H_    0.981356 0.654615 0.790091 0.316297
N40   N     N_3   0.925644 0.634279 0.142850 -0.382942
H103  H     H_    0.978840 0.671742 0.133469 0.220340
H104  H     H_    0.880158 0.668200 0.094217 0.153707
N41   N     N_3   0.351668 0.955454 0.145764 -0.428543
H105  H     H_    0.293566 0.956599 0.098193 0.140662
H106  H     H_    0.336359 0.982170 0.235376 0.271931
N42   N     N_3   0.367565 0.916517 0.889186 -0.431160
H107  H     H_    0.380590 0.867151 0.952744 0.164706
H108  H     H_    0.302696 0.924105 0.897158 0.172170
N43   N     N_3   0.357540 0.061831 0.855453 -0.437978
H109  H     H_    0.332969 0.034769 0.770509 0.264742
H110  H     H_    0.301360 0.069758 0.905251 0.139130
N44   N     N_3   0.382911 0.098854 0.112772 -0.420378
H111  H     H_    0.318115 0.098734 0.099172 0.183471
H112  H     H_    0.405184 0.147122 0.053100 0.169757

loop_
_geom_bond_atom_site_label_1
_geom_bond_atom_site_label_2
_ccdc_geom_bond_type
C16   C28   S    
C20   N12   S    
N31   H69   S    
N43   H110  S    
N7    H21   S    
N29   H65   S    
N15   H37   S    
C57   H85   S    
C32   N35   S    
C26   N26   S    
N23   H53   S    
C48   N1    S    
C30   C44   S    
C14   C33   S    
C66   O30   D    
N12   H31   S    
O13   Zn3   S    
C28   N28   S    
C7    C8    S    
C22   H2    S    
C61   H89   S    
N14   H35   S    
N9    H26   S    
N41   H105  S    
N16   H39   S    
C15   N15   S    
C46   H10   S    
C1    O2    A    
C32   C36   S    
C29   N30   S    
N26   H59   S    
N23   H54   S    
C62   O26   D    
C38   C42   S    
C19   C36   S    
N13   H34   S    
C7    N3    S    
C5    C6    S    
C14   N14   S    
C26   C39   S    
C48   H12   S    
C28   C40   S    
C11   O14   A    
C27   N27   S    
N39   H101  S    
N37   H98   S    
C29   C33   S    
C10   O11   A    
C49   C65   S    
N10   H27   S    
N19   H46   S    
C20   N20   S    
C53   O17   D    
C50   N4    S    
N32   H71   S    
C5    N1    S    
O3    Zn2   S    
C16   C34   S    
N11   H29   S    
C50   C66   S    
C11   C35   S    
C8    N42   S    
N3    Zn4   S    
C20   C24   S    
N14   H36   S    
N18   H43   S    
N39   H102  S    
N6    H20   S    
C18   N18   S    
C43   C57   S    
C24   C38   S    
O16   Zn3   S    
C56   O20   D    
C56   H84   S    
C12   C36   S    
C18   C35   S    
C5    N40   S    
C15   C34   S    
C44   C60   S    
C52   H16   S    
C9    O10   A    
C11   O13   A    
O9    Zn1   S    
C45   H9    S    
N30   H68   S    
C23   H3    S    
N5    H18   S    
O15   Zn4   S    
C29   C43   S    
C9    C33   S    
C57   O21   D    
C13   C25   S    
C53   H81   S    
C68   O32   D    
C47   C63   S    
C14   N6    S    
C66   H94   S    
N34   H76   S    
N28   H64   S    
C28   H8    S    
C15   C27   S    
N40   H104  S    
N41   H106  S    
C8    N4    S    
C30   C34   S    
C51   C67   S    
C59   H87   S    
C25   H5    S    
C47   C48   S    
N19   H45   S    
C62   H90   S    
C4    O7    A    
N11   H30   S    
C15   N7    S    
C63   H91   S    
N4    Zn3   S    
C12   O16   A    
C39   C43   S    
C32   N36   S    
N33   H74   S    
C64   O28   D    
C45   C46   S    
C22   C37   S    
C45   N1    S    
C44   C59   S    
C17   C21   S    
C51   C52   S    
C47   H11   S    
C13   N5    S    
N12   H32   S    
N21   H50   S    
C54   O18   D    
C19   C23   S    
N35   H77   S    
C47   N2    S    
C13   C33   S    
C30   N32   S    
C17   N9    S    
C63   O27   D    
N35   H78   S    
N31   H70   S    
C68   H96   S    
C45   C61   S    
N27   H61   S    
C4    C39   S    
C42   C56   S    
C27   C40   S    
C24   N24   S    
C21   N21   S    
N6    H19   S    
N38   H100  S    
C65   H93   S    
C10   C34   S    
N5    H17   S    
C51   H15   S    
C14   C26   S    
N8    H24   S    
C26   H6    S    
O7    Zn4   S    
C49   H13   S    
C1    C38   S    
N18   H44   S    
N22   H52   S    
N30   H67   S    
N7    H22   S    
C31   N33   S    
C3    C40   S    
C60   H88   S    
C60   O24   D    
C67   O31   D    
C49   C50   S    
N24   H56   S    
C6    N39   S    
N2    Zn1   S    
N25   H58   S    
O12   Zn1   S    
N36   H80   S    
N1    Zn2   S    
C3    O5    A    
N44   H112  S    
C67   H95   S    
C46   N2    S    
C2    O4    A    
N34   H75   S    
N42   H108  S    
N17   H41   S    
C5    N37   S    
C16   N8    S    
C6    N2    S    
O11   Zn2   S    
N40   H103  S    
O5    Zn3   S    
N16   H40   S    
C31   C41   S    
C41   C54   S    
C18   C22   S    
C58   O22   D    
N22   H51   S    
C6    N38   S    
C13   N13   S    
C50   H14   S    
C4    O8    A    
N20   H48   S    
C19   N11   S    
N28   H63   S    
C23   C38   S    
N9    H25   S    
O4    Zn1   S    
C8    N43   S    
C46   C62   S    
O10   Zn2   S    
C51   N4    S    
C41   C53   S    
C31   N34   S    
O6    Zn4   S    
C54   H82   S    
C7    N41   S    
O8    Zn3   S    
N26   H60   S    
N27   H62   S    
N25   H57   S    
C61   O25   D    
C1    O1    A    
C59   O23   D    
C12   O15   A    
C25   N25   S    
C27   H7    S    
N21   H49   S    
C25   C39   S    
C21   H1    S    
C2    C37   S    
O2    Zn2   S    
C23   N23   S    
C24   H4    S    
N37   H97   S    
C31   C35   S    
C10   O12   A    
N38   H99   S    
C65   O29   D    
N32   H72   S    
N10   H28   S    
N44   H111  S    
C29   N29   S    
C42   C55   S    
C37   C41   S    
N8    H23   S    
C18   N10   S    
C30   N31   S    
C48   C64   S    
N15   H38   S    
N20   H47   S    
O1    Zn1   S    
C55   H83   S    
C20   C36   S    
C40   C44   S    
C21   C37   S    
C58   H86   S    
N29   H66   S    
N33   H73   S    
C49   N3    S    
C52   C68   S    
C22   N22   S    
C43   C58   S    
C52   N3    S    
C32   C42   S    
N24   H55   S    
C7    N44   S    
O14   Zn4   S    
C17   C35   S    
C55   O19   D    
N36   H79   S    
N13   H33   S    
C3    O6    A    
C19   N19   S    
C64   H92   S    
C16   N16   S    
C17   N17   S    
C2    O3    A    
N43   H109  S    
C9    O9    A    
N42   H107  S    
N17   H42   S    
