data_mof_unit_48243.cif
_audit_creation_date              2012-12-11T15:41:27-0500
_audit_creation_method            fapswitch 2.2
_symmetry_space_group_name_H-M    P1
_symmetry_Int_Tables_number       1
_space_group_crystal_system       triclinic
_cell_length_a                    15.050046
_cell_length_b                    14.965532
_cell_length_c                    15.075405
_cell_angle_alpha                 108.92893
_cell_angle_beta                  110.625395
_cell_angle_gamma                 108.55365
_cell_volume                      2622.90838618

loop_
_atom_site_label
_atom_site_type_symbol
_atom_type_description
_atom_site_fract_x
_atom_site_fract_y
_atom_site_fract_z
_atom_type_partial_charge
Br1   Br    Br    0.086569 0.177286 0.020036 -0.438658
Br2   Br    Br    0.550833 0.882982 0.597944 -0.393383
Br3   Br    Br    0.728394 0.392698 0.034473 -0.465702
Br4   Br    Br    0.271730 0.609811 0.971244 -0.422077
Br5   Br    Br    0.139650 0.773919 0.002039 -0.409080
Br6   Br    Br    0.825862 0.125316 0.900017 -0.417009
Br7   Br    Br    0.934535 0.077741 0.736981 -0.457561
Br8   Br    Br    0.093794 0.898048 0.455572 -0.495424
Br9   Br    Br    0.033025 0.800412 0.191795 -0.396917
Br10  Br    Br    0.382304 0.565584 0.171487 -0.325506
Br11  Br    Br    0.614810 0.489479 0.887778 -0.370053
Br12  Br    Br    0.248674 0.465543 0.612784 -0.439094
Br13  Br    Br    0.822357 0.528915 0.383346 -0.506395
Br14  Br    Br    0.421274 0.213214 0.634940 -0.350259
Br15  Br    Br    0.558726 0.871938 0.379486 -0.407109
Br16  Br    Br    0.433283 0.205698 0.414435 -0.361737
C1    C     C_R   0.197079 0.999751 0.908473 -0.133956
C2    C     C_R   0.862779 0.784717 0.359986 -0.184318
C3    C     C_R   0.239133 0.317108 0.840086 -0.133958
C4    C     C_R   0.754498 0.719467 0.275805 -0.113507
C5    C     C_R   0.301521 0.349698 0.950411 0.100899
C6    C     C_R   0.727521 0.678388 0.166083 0.083155
C7    C     C_R   0.253893 0.304117 0.000204 -0.201069
C8    C     C_R   0.812235 0.705525 0.143280 -0.233401
C9    C     C_R   0.144239 0.226429 0.940696 0.325118
C10   C     C_R   0.921104 0.769961 0.227846 0.331648
C11   C     C_R   0.082422 0.190513 0.828589 0.326291
C12   C     C_R   0.745924 0.932456 0.026431 -0.167574
C13   C     C_R   0.946468 0.809787 0.336686 0.325468
C14   C     C_R   0.444391 0.536814 0.080485 0.363970
C15   C     C_R   0.578889 0.502542 0.000201 0.366198
C16   C     C_R   0.790627 0.215817 0.309880 -0.123018
C17   C     C_R   0.253159 0.780879 0.687199 -0.110040
C18   C     C_R   0.530951 0.622515 0.096563 -0.098184
C19   C     C_R   0.488165 0.413746 0.976493 -0.069770
C20   C     C_R   0.610972 0.605392 0.078271 -0.094734
C21   C     C_R   0.416576 0.431756 0.011588 -0.115245
C22   C     C_R   0.029248 0.393680 0.458589 -0.235736
C23   C     C_R   0.841471 0.314292 0.317931 0.097204
C24   C     C_R   0.042039 0.596624 0.525091 -0.230441
C25   C     C_R   0.126666 0.483894 0.543909 0.368962
C26   C     C_R   0.945286 0.507494 0.441870 0.369944
C27   C     C_R   0.132129 0.585313 0.576627 -0.036473
C28   C     C_R   0.939557 0.406089 0.408671 -0.043638
C29   C     C_R   0.465388 0.119314 0.562281 0.321496
C30   C     C_R   0.525471 0.976063 0.456706 0.301294
C31   C     C_R   0.469914 0.115745 0.470849 0.284541
C32   C     C_R   0.521435 0.980055 0.547778 0.313025
C33   C     C_R   0.501478 0.045411 0.420478 -0.265793
C34   C     C_R   0.222296 0.678915 0.675068 0.116075
C35   C     C_R   0.493155 0.052878 0.600301 -0.260156
C36   C     C_R   0.027187 0.932732 0.022530 -0.010750
C37   C     C_R   0.857055 0.903296 0.841252 -0.009049
C38   C     C_R   0.938112 0.932927 0.026344 -0.106987
C39   C     C_R   0.947375 0.901498 0.836878 -0.092231
C40   C     C_R   0.409078 0.966449 0.222664 -0.007591
C41   C     C_R   0.585779 0.094906 0.789967 -0.000794
C42   C     C_R   0.855518 0.923918 0.938137 0.117935
C43   C     C_R   0.033838 0.920669 0.929593 0.126441
C44   C     C_R   0.586677 0.305020 0.006083 0.315003
C45   C     C_R   0.501044 0.036163 0.323880 0.165492
C46   C     C_R   0.416505 0.702656 0.009986 0.332108
C47   C     C_R   0.592221 0.057858 0.314258 -0.046462
C48   C     C_R   0.405519 0.997344 0.697142 -0.063665
C49   C     C_R   0.405185 0.213464 0.918114 -0.160365
C50   C     C_R   0.596917 0.796961 0.098804 -0.154547
C51   C     C_R   0.791299 0.307409 0.218679 0.000707
C52   C     C_R   0.248907 0.686841 0.775954 -0.042281
C53   C     C_R   0.197966 0.903441 0.994417 0.276855
C54   C     C_R   0.756047 0.031202 0.942338 0.378825
C55   C     C_R   0.136693 0.937863 0.938692 -0.030363
C56   C     C_R   0.493651 0.057448 0.695527 0.161653
C57   C     C_R   0.778491 0.952041 0.956763 -0.032495
C58   C     C_R   0.492687 0.312563 0.957711 0.084234
C59   C     C_R   0.512814 0.705104 0.073673 0.078368
C60   C     C_R   0.130519 0.236927 0.779348 -0.200499
H1    H     H_    0.168692 0.030105 0.854503 0.124474
H2    H     H_    0.794922 0.678258 0.060562 0.217063
H3    H     H_    0.023504 0.314491 0.430739 0.178206
H4    H     H_    0.044716 0.674429 0.553565 0.177578
H5    H     H_    0.094706 0.950235 0.095841 0.168348
H6    H     H_    0.791895 0.894671 0.772308 0.191643
H7    H     H_    0.819550 0.190309 0.368423 0.116336
H8    H     H_    0.236348 0.801759 0.623269 0.144179
H9    H     H_    0.939298 0.950369 0.102463 0.141566
H10   H     H_    0.952174 0.890290 0.764382 0.158163
H11   H     H_    0.326036 0.929464 0.204392 0.170554
H12   H     H_    0.756196 0.879239 0.058409 0.129909
H13   H     H_    0.663934 0.160043 0.819010 0.189042
H14   H     H_    0.320134 0.183893 0.865331 0.138101
H15   H     H_    0.681697 0.832287 0.157980 0.130390
H16   H     H_    0.824532 0.365475 0.196494 0.181930
H17   H     H_    0.228133 0.620154 0.791231 0.173956
H18   H     H_    0.675735 0.101207 0.379443 0.126936
H19   H     H_    0.321142 0.966098 0.639631 0.160465
H20   H     H_    0.083781 0.210620 0.693655 0.194825
H21   H     H_    0.881612 0.814880 0.443650 0.196448
H22   H     H_    0.275324 0.352569 0.800868 0.198993
H23   H     H_    0.691693 0.699739 0.296726 0.195903
H24   H     H_    0.302104 0.329082 0.085333 0.208385
N1    N     N_R   0.293810 0.002730 0.945950 -0.060759
N2    N     N_R   0.443210 0.997250 0.791090 -0.063840
N3    N     N_R   0.443180 0.152110 0.945950 -0.068967
N4    N     N_R   0.556820 0.847890 0.054050 -0.067272
N5    N     N_R   0.706170 0.208950 0.152090 -0.055815
N6    N     N_R   0.293830 0.791050 0.847910 -0.048117
N7    N     N_R   0.293800 0.945910 0.002760 -0.076670
N8    N     N_R   0.706200 0.054090 0.997240 -0.082347
N9    N     N_R   0.706190 0.997270 0.054050 -0.063938
N10   N     N_R   0.706160 0.152130 0.208910 -0.055715
N11   N     N_R   0.293840 0.847870 0.791090 -0.060719
N12   N     N_R   0.443140 0.945920 0.152090 -0.055112
N13   N     N_R   0.556860 0.054080 0.847910 -0.064988
N14   N     N_R   0.556830 0.208940 0.002760 -0.083526
N15   N     N_R   0.443170 0.791060 0.997240 -0.080856
N16   N     N_R   0.556790 0.002750 0.208910 -0.060969
Ni1   Ni    Ni4+2 0.369690 0.999990 0.869700 0.230285
Ni2   Ni    Ni4+2 0.630310 0.000010 0.130300 0.231128
Ni3   Ni    Ni4+2 0.369670 0.869670 0.000000 0.316179
Ni4   Ni    Ni4+2 0.630330 0.130330 0.000000 0.290769

loop_
_geom_bond_atom_site_label_1
_geom_bond_atom_site_label_2
_ccdc_geom_bond_type
N1    N7    A    
N5    N10   A    
C19   C58   S    
C39   C43   A    
N6    Ni3   S    
N8    Ni4   S    
C44   N14   A    
N10   Ni2   S    
C53   N7    A    
C31   C33   A    
C48   N2    A    
C47   H18   S    
C16   N10   A    
Br8   C13   S    
C3    C60   A    
C3    C5    A    
C8    C10   A    
C22   H3    S    
C29   C35   A    
N4    N15   A    
Br4   C46   S    
Br7   C11   S    
N8    N9    A    
C45   C47   A    
C16   C23   A    
C53   C55   A    
C1    N1    A    
Br5   C53   S    
C32   C35   A    
C12   H12   S    
C24   H4    S    
N5    Ni4   S    
C17   N11   A    
C2    H21   S    
C2    C4    A    
C18   C59   S    
Br3   C44   S    
C29   C31   A    
C7    H24   S    
Br11  C15   S    
Br1   C9    S    
C25   C27   A    
N3    Ni1   S    
C26   C28   A    
C52   N6    A    
C12   C57   A    
Br16  C31   S    
N7    Ni3   S    
Br13  C26   S    
C3    H22   S    
C36   C38   A    
Br9   C10   S    
Br14  C29   S    
N4    Ni2   S    
N6    N11   A    
C37   C39   A    
C49   H14   S    
C30   C32   A    
C33   C45   S    
C14   C18   A    
C50   N4    A    
N3    N14   A    
C22   C25   A    
C51   N5    A    
C40   H11   S    
C41   N13   A    
Br2   C32   S    
C17   C34   A    
C49   C58   A    
C14   C21   A    
C37   H6    S    
C22   C28   A    
Br12  C25   S    
C36   C43   A    
C38   H9    S    
N13   Ni4   S    
Br10  C14   S    
C30   C33   A    
C24   C27   A    
C54   C57   A    
C1    H1    S    
C2    C13   A    
C23   C28   S    
N2    Ni1   S    
C41   H13   S    
C47   N16   A    
C8    H2    S    
C4    C6    A    
C1    C55   A    
N15   Ni3   S    
C5    C7    A    
C6    C8    A    
C46   C59   A    
C35   C56   S    
C49   N3    A    
C11   C60   A    
N12   N16   A    
C38   C42   A    
Br6   C54   S    
C16   H7    S    
C19   C21   A    
C40   C45   A    
C23   C51   A    
C48   H19   S    
C24   C26   A    
N12   Ni3   S    
C37   C42   A    
C27   C34   S    
C50   H15   S    
C12   N9    A    
C9    C11   A    
C6    C20   S    
C52   H17   S    
N11   Ni1   S    
N1    Ni1   S    
C39   H10   S    
C46   N15   A    
N2    N13   A    
C54   N8    A    
C60   H20   S    
C4    H23   S    
C50   C59   A    
C15   C19   A    
C44   C58   A    
C51   H16   S    
N16   Ni2   S    
C18   C20   A    
C48   C56   A    
C41   C56   A    
C36   H5    S    
C17   H8    S    
C7    C9    A    
C5    C21   S    
N9    Ni2   S    
C10   C13   A    
C15   C20   A    
Br15  C30   S    
C34   C52   A    
C40   N12   A    
N14   Ni4   S    
C42   C57   S    
C43   C55   S    
