data_mof_unit_31393.cif
_audit_creation_date              2012-12-10T20:25:38-0500
_audit_creation_method            fapswitch 2.2
_symmetry_space_group_name_H-M    P1
_symmetry_Int_Tables_number       1
_space_group_crystal_system       triclinic
_cell_length_a                    8.590404
_cell_length_b                    10.820838
_cell_length_c                    9.957774
_cell_angle_alpha                 88.724158
_cell_angle_beta                  98.932229
_cell_angle_gamma                 92.993421
_cell_volume                      913.061471145

loop_
_atom_site_label
_atom_site_type_symbol
_atom_type_description
_atom_site_fract_x
_atom_site_fract_y
_atom_site_fract_z
_atom_type_partial_charge
C1    C     C_R   0.505613 0.260005 0.501046 0.862671
C2    C     C_R   0.561618 0.937571 0.386966 -0.275317
C3    C     C_R   0.528507 0.870555 0.501869 -0.121599
C4    C     C_R   0.526061 0.932629 0.621715 0.020186
C5    C     C_3   0.426435 0.916707 0.733786 0.182602
C6    C     C_3   0.423797 0.059242 0.731723 0.055159
C7    C     C_R   0.365991 0.467221 0.054680 0.103860
C8    C     C_R   0.620785 0.556441 0.087768 0.126744
C9    C     C_R   0.621069 0.555976 0.943570 -0.035352
C10   C     C_R   0.364870 0.468125 0.912616 0.187053
C11   C     C_3   0.267475 0.348517 0.902331 -0.206280
C12   C     C_R   0.201682 0.501785 0.464448 0.963046
C13   C     C_3   0.269764 0.349459 0.055914 -0.234303
C14   C     C_R   0.505516 0.739343 0.499603 0.892952
C15   C     C_R   0.798531 0.507686 0.535195 0.905477
C16   C     C_2   0.035978 0.495053 0.448785 -0.390628
C17   C     C_2   0.963543 0.533354 0.548751 -0.097366
C18   C     C_R   0.521773 0.058624 0.620254 -0.054239
C19   C     C_R   0.528200 0.128293 0.502101 -0.106675
C20   C     C_R   0.563512 0.066851 0.386391 0.094479
H1    H     H_    0.973501 0.445412 0.361860 0.173996
H2    H     H_    0.329511 0.272449 0.871200 0.180168
H3    H     H_    0.335260 0.273406 0.111637 0.156312
H4    H     H_    0.578613 0.890585 0.295708 0.173939
N1    N     N_R   0.498950 0.499140 0.142680 -0.113664
N2    N     N_R   0.498950 0.499180 0.857030 -0.144803
O1    O     O_R   0.500020 0.316790 0.614690 -0.631913
O2    O     O_R   0.500000 0.316760 0.385350 -0.593368
O3    O     O_R   0.271760 0.500010 0.587850 -0.592465
O4    O     O_R   0.271740 0.499970 0.358500 -0.626226
O5    O     O_R   0.500000 0.683240 0.614650 -0.608106
O6    O     O_R   0.499980 0.683210 0.385310 -0.619381
O7    O     O_R   0.728260 0.500030 0.641500 -0.611821
O8    O     O_R   0.728240 0.499990 0.412150 -0.596246
Zn1   Zn    Zn3+2 0.500010 0.500020 0.653130 0.963997
Zn2   Zn    Zn3+2 0.499990 0.499980 0.346870 0.971731
C21   C     C_1   0.740633 0.630304 0.889319 0.206535
N3    N     N_1   0.835619 0.694150 0.849038 -0.264697
N4    N     N_3   0.110703 0.359453 0.822569 -0.432440
H5    H     H_    0.043147 0.279097 0.839806 0.206482
H6    H     H_    0.122277 0.356678 0.720152 0.211450
C22   C     C_1   0.114897 0.365076 0.097256 0.266639
N5    N     N_1   0.991360 0.375640 0.126735 -0.239086
N6    N     N_3   0.041864 0.613820 0.653708 -0.404266
H7    H     H_    0.028585 0.574376 0.747897 0.239511
H8    H     H_    0.986771 0.698090 0.642993 0.185875
N7    N     N_3   0.594019 0.133173 0.266430 -0.411818
H9    H     H_    0.705142 0.110739 0.246698 0.194808
H10   H     H_    0.509996 0.101622 0.185544 0.191538
N8    N     N_3   0.273713 0.849599 0.692080 -0.421883
H11   H     H_    0.193451 0.876335 0.753532 0.206766
H12   H     H_    0.228258 0.868114 0.590459 0.169307
N9    N     N_3   0.509667 0.865425 0.861114 -0.453611
H13   H     H_    0.631627 0.881311 0.866452 0.185436
H14   H     H_    0.485966 0.769991 0.862592 0.217880
N10   N     N_3   0.265881 0.107107 0.689729 -0.490685
H15   H     H_    0.276185 0.201049 0.667240 0.190315
H16   H     H_    0.213824 0.069372 0.596872 0.169656
C23   C     C_1   0.517168 0.119411 0.851871 0.199409
N11   N     N_1   0.593006 0.166347 0.944908 -0.237135
N12   N     N_3   0.743337 0.622485 0.175760 -0.390630
H17   H     H_    0.851902 0.589827 0.161776 0.192510
H18   H     H_    0.741770 0.716125 0.147623 0.157512

loop_
_geom_bond_atom_site_label_1
_geom_bond_atom_site_label_2
_ccdc_geom_bond_type
C7    C10   A    
N8    H12   S    
C15   C17   S    
C16   H1    S    
C12   O3    A    
C1    O2    A    
C22   N5    T    
C14   O5    A    
C15   O8    A    
C19   C20   A    
C7    N1    A    
O4    Zn2   S    
C8    N12   S    
C4    C18   A    
C10   N2    A    
C9    C21   S    
C2    C3    A    
C17   N6    S    
C23   N11   T    
N7    H10   S    
N9    H13   S    
N6    H7    S    
C11   N4    S    
C8    N1    A    
C11   C13   S    
C13   H3    S    
N6    H8    S    
C21   N3    T    
C3    C14   S    
O6    Zn2   S    
C5    N9    S    
C13   C22   S    
O7    Zn1   S    
N10   H16   S    
C9    N2    A    
N8    H11   S    
O8    Zn2   S    
N9    H14   S    
C2    H4    S    
C5    C6    S    
C6    C18   S    
O5    Zn1   S    
C5    N8    S    
C1    C19   S    
C20   N7    S    
C16   C17   D    
N12   H17   S    
N1    Zn2   S    
C2    C20   A    
C3    C4    A    
C12   C16   S    
N2    Zn1   S    
C7    C13   S    
N10   H15   S    
O2    Zn2   S    
N4    H6    S    
C18   C19   A    
C10   C11   S    
C14   O6    A    
N4    H5    S    
C1    O1    A    
O3    Zn1   S    
C8    C9    A    
C11   H2    S    
O1    Zn1   S    
C12   O4    A    
C6    C23   S    
C15   O7    A    
N12   H18   S    
N7    H9    S    
C6    N10   S    
C4    C5    S    
