data_mof_unit_45749.cif
_audit_creation_date              2012-12-10T18:45:30-0500
_audit_creation_method            fapswitch 2.2
_symmetry_space_group_name_H-M    P1
_symmetry_Int_Tables_number       1
_space_group_crystal_system       triclinic
_cell_length_a                    19.455887
_cell_length_b                    18.131579
_cell_length_c                    10.891246
_cell_angle_alpha                 90.033927
_cell_angle_beta                  90.393624
_cell_angle_gamma                 90.000974
_cell_volume                      3841.96942371

loop_
_atom_site_label
_atom_site_type_symbol
_atom_type_description
_atom_site_fract_x
_atom_site_fract_y
_atom_site_fract_z
_atom_type_partial_charge
C1    C     C_R   0.367528 0.500000 0.499857 0.787147
C2    C     C_R   0.632471 0.500001 0.500156 0.788560
C3    C     C_R   0.707954 0.500009 0.500510 -0.030243
C4    C     C_R   0.292047 0.500000 0.499525 -0.030008
C5    C     C_R   0.963814 0.548756 0.424034 -0.177532
C6    C     C_R   0.036170 0.451300 0.576091 -0.177702
C7    C     C_R   0.035382 0.548725 0.423662 -0.179477
C8    C     C_R   0.964602 0.451321 0.576442 -0.179618
C9    C     C_R   0.072105 0.499997 0.499689 0.098621
C10   C     C_R   0.927885 0.500052 0.500421 0.098563
C11   C     C_R   0.443952 0.721239 0.457951 0.064974
C12   C     C_R   0.556574 0.278938 0.540501 0.064274
C13   C     C_R   0.556093 0.720994 0.542786 0.074672
C14   C     C_R   0.443687 0.278679 0.458947 0.062790
C15   C     C_R   0.442876 0.798545 0.458117 -0.302215
C16   C     C_R   0.558150 0.201614 0.539605 -0.285697
C17   C     C_R   0.557596 0.798289 0.542501 -0.290029
C18   C     C_R   0.442602 0.201329 0.459021 -0.284735
C19   C     C_R   0.500369 0.838509 0.500076 0.112489
C20   C     C_R   0.500489 0.161350 0.499190 0.111283
C21   C     C_R   0.534517 0.961317 0.592814 -0.179790
C22   C     C_R   0.466563 0.038470 0.406204 -0.190036
C23   C     C_R   0.466786 0.961106 0.406127 -0.178486
C24   C     C_R   0.534892 0.038671 0.592186 -0.189794
C25   C     C_R   0.500677 0.078566 0.499159 0.117892
C26   C     C_R   0.500569 0.921249 0.499674 0.123132
C27   C     C_R   0.491496 0.499819 0.262228 0.808068
C28   C     C_R   0.507831 0.500032 0.738148 0.806926
C29   C     C_R   0.459307 0.633133 0.111544 -0.204867
C30   C     C_R   0.533212 0.364326 0.887056 -0.206591
C31   C     C_R   0.527414 0.636450 0.889385 -0.192229
C32   C     C_R   0.469397 0.363005 0.113306 -0.205403
C33   C     C_R   0.469917 0.701356 0.053886 0.178083
C34   C     C_R   0.518391 0.296483 0.942341 0.184385
C35   C     C_R   0.508187 0.703356 0.944102 0.191389
C36   C     C_R   0.485873 0.295820 0.057455 0.184221
C37   C     C_R   0.508912 0.567524 0.940129 0.037251
C38   C     C_R   0.488121 0.431512 0.061015 0.045428
C39   C     C_R   0.484013 0.566532 0.060803 0.046168
C40   C     C_R   0.512383 0.432115 0.939641 0.045321
C41   C     C_R   0.515164 0.500041 0.874447 -0.190686
C42   C     C_R   0.482697 0.499086 0.126379 -0.191002
C43   C     C_R   0.744339 0.433137 0.500340 -0.190786
C44   C     C_R   0.255672 0.566878 0.499314 -0.189300
C45   C     C_R   0.255671 0.433123 0.499465 -0.190268
C46   C     C_R   0.744323 0.566894 0.500982 -0.189132
C47   C     C_R   0.815908 0.433175 0.500483 -0.170654
C48   C     C_R   0.184103 0.566853 0.499220 -0.170166
C49   C     C_R   0.184103 0.433147 0.499445 -0.171136
C50   C     C_R   0.815891 0.566883 0.501006 -0.170462
C51   C     C_R   0.852220 0.500037 0.500700 0.108540
C52   C     C_R   0.147777 0.499999 0.499390 0.108528
Cu1   Cu    Cu3+1 0.500000 0.573360 0.500000 0.934831
Cu2   Cu    Cu3+1 0.500000 0.426640 0.500000 0.931104
H1    H     H_    0.428629 0.632118 0.193992 0.149917
H2    H     H_    0.562710 0.363133 0.803447 0.154766
H3    H     H_    0.558708 0.639180 0.807963 0.162979
H4    H     H_    0.439842 0.360715 0.196791 0.155629
H5    H     H_    0.717598 0.380749 0.499702 0.140108
H6    H     H_    0.282420 0.619262 0.499609 0.141813
H7    H     H_    0.282415 0.380739 0.499249 0.140147
H8    H     H_    0.717572 0.619274 0.501524 0.141352
H9    H     H_    0.842892 0.380942 0.498803 0.124654
H10   H     H_    0.157134 0.619099 0.500630 0.125288
H11   H     H_    0.157121 0.380902 0.498047 0.124383
H12   H     H_    0.842874 0.619125 0.502694 0.125076
H13   H     H_    0.936522 0.586084 0.363318 0.128434
H14   H     H_    0.063453 0.413980 0.636830 0.127989
H15   H     H_    0.062034 0.586033 0.362671 0.127313
H16   H     H_    0.937941 0.414003 0.637406 0.126950
H17   H     H_    0.399678 0.691591 0.423506 0.110411
H18   H     H_    0.600953 0.308702 0.574128 0.110279
H19   H     H_    0.600101 0.691162 0.577803 0.112584
H20   H     H_    0.399164 0.308260 0.425524 0.110142
H21   H     H_    0.397052 0.826615 0.426116 0.129843
H22   H     H_    0.604356 0.173741 0.570240 0.126881
H23   H     H_    0.603478 0.826122 0.574857 0.132492
H24   H     H_    0.396570 0.173212 0.428109 0.126441
H25   H     H_    0.560010 0.932953 0.667751 0.126596
H26   H     H_    0.440570 0.066821 0.331804 0.126639
H27   H     H_    0.441250 0.932549 0.331360 0.126884
H28   H     H_    0.561052 0.067149 0.666304 0.126318
N1    N     N_R   0.500000 0.683620 0.500000 -0.164596
N2    N     N_R   0.500000 0.316380 0.500000 -0.166300
O1    O     O_R   0.400190 0.561980 0.499980 -0.596893
O2    O     O_R   0.599810 0.438020 0.500020 -0.597585
O3    O     O_R   0.599810 0.561980 0.500020 -0.596627
O4    O     O_R   0.400190 0.438020 0.499980 -0.597534
O5    O     O_R   0.500000 0.561950 0.319660 -0.576311
O6    O     O_R   0.500000 0.438050 0.680340 -0.577051
O7    O     O_R   0.500000 0.561950 0.680340 -0.581367
O8    O     O_R   0.500000 0.438050 0.319660 -0.578524
C53   C     C_3   0.474043 0.225204 0.128315 -0.434092
C54   C     C_3   0.539658 0.202609 0.196353 -0.802572
H29   H     H_    0.583465 0.196919 0.132410 0.234636
H30   H     H_    0.553198 0.244707 0.266506 0.270238
H31   H     H_    0.531778 0.148778 0.242268 0.243470
H32   H     H_    0.432287 0.232719 0.196235 0.190026
H33   H     H_    0.456968 0.179727 0.067414 0.206965
C55   C     C_3   0.527476 0.774466 0.879492 -0.421546
C56   C     C_3   0.604930 0.787801 0.884260 -0.869856
H34   H     H_    0.622998 0.790096 0.981167 0.260725
H35   H     H_    0.632942 0.743483 0.835141 0.244040
H36   H     H_    0.616941 0.841179 0.839306 0.237535
H37   H     H_    0.510098 0.771321 0.782394 0.214812
H38   H     H_    0.502060 0.823558 0.918714 0.214396
C57   C     C_3   0.531311 0.226442 0.870554 -0.433578
C58   C     C_3   0.465689 0.202497 0.803682 -0.802410
H39   H     H_    0.422233 0.196170 0.868184 0.234196
H40   H     H_    0.451109 0.244199 0.733624 0.270512
H41   H     H_    0.474122 0.148719 0.757922 0.242937
H42   H     H_    0.572441 0.235184 0.801848 0.189309
H43   H     H_    0.549755 0.181298 0.930833 0.206523
C59   C     C_3   0.440766 0.769972 0.113323 -0.422024
C60   C     C_3   0.375516 0.795701 0.047428 -0.862281
H44   H     H_    0.385314 0.807616 0.949208 0.251584
H45   H     H_    0.335209 0.752480 0.053532 0.255460
H46   H     H_    0.356130 0.846676 0.091887 0.239791
H47   H     H_    0.426985 0.758650 0.210039 0.200583
H48   H     H_    0.479707 0.814668 0.117229 0.204503

loop_
_geom_bond_atom_site_label_1
_geom_bond_atom_site_label_2
_ccdc_geom_bond_type
C15   H21   S    
C21   C26   A    
C53   C54   S    
C57   H42   S    
C14   C18   A    
C32   H4    S    
C5    H13   S    
C6    C9    A    
Cu2   N2    S    
C59   C60   S    
Cu1   Cu2   S    
C15   C19   A    
C3    C43   A    
C33   C59   S    
C56   H34   S    
C49   H11   S    
C46   H8    S    
C34   C57   S    
C32   C36   A    
C38   C40   A    
C38   C42   A    
C47   H9    S    
C11   H17   S    
C48   H10   S    
C20   C25   S    
C60   H44   S    
C29   C33   A    
C28   C41   S    
C58   H39   S    
C12   N2    A    
C23   C26   A    
C19   C26   S    
C24   H28   S    
C57   H43   S    
C17   C19   A    
C11   C15   A    
C36   C53   S    
C12   C16   A    
C60   H45   S    
C22   C25   A    
Cu1   O7    S    
C57   C58   S    
C27   O5    A    
C32   C38   A    
C53   H33   S    
C18   C20   A    
C59   H47   S    
C43   H5    S    
C60   H46   S    
C1    O4    A    
C6    H14   S    
C12   H18   S    
C56   H35   S    
C21   H25   S    
C9    C52   S    
C10   C51   S    
C28   O6    A    
C39   C42   A    
C4    C45   A    
C1    O1    A    
C30   C34   A    
C27   O8    A    
C24   C25   A    
Cu2   O2    S    
C6    C8    A    
C29   H1    S    
C54   H31   S    
C11   N1    A    
C30   H2    S    
C31   C37   A    
Cu2   O8    S    
C45   C49   A    
C14   N2    A    
C16   C20   A    
C49   C52   A    
C29   C39   A    
C17   H23   S    
C50   C51   A    
C55   H37   S    
C30   C40   A    
C2    O3    A    
Cu1   O3    S    
C54   H30   S    
C50   H12   S    
C18   H24   S    
C13   H19   S    
C56   H36   S    
Cu1   O5    S    
C31   C35   A    
C35   C55   S    
C14   H20   S    
C5    C7    A    
C7    C9    A    
C46   C50   A    
C40   C41   A    
C23   H27   S    
C16   H22   S    
C55   H38   S    
C7    H15   S    
C47   C51   A    
Cu2   O6    S    
C4    C44   A    
C13   N1    A    
C3    C46   A    
C8    H16   S    
C58   H41   S    
C13   C17   A    
Cu1   N1    S    
C1    C4    S    
C31   H3    S    
C2    C3    S    
C22   H26   S    
C5    C10   A    
C37   C39   A    
Cu2   O4    S    
C27   C42   S    
C44   H6    S    
C45   H7    S    
C55   C56   S    
C33   C35   A    
C58   H40   S    
C2    O2    A    
C28   O7    A    
C34   C36   A    
C37   C41   A    
C54   H29   S    
C48   C52   A    
C8    C10   A    
C21   C24   A    
C22   C23   A    
Cu1   O1    S    
C43   C47   A    
C53   H32   S    
C59   H48   S    
C44   C48   A    
