data_mof_unit_37293.cif
_audit_creation_date              2012-12-10T20:08:40-0500
_audit_creation_method            fapswitch 2.2
_symmetry_space_group_name_H-M    P1
_symmetry_Int_Tables_number       1
_space_group_crystal_system       triclinic
_cell_length_a                    19.316181
_cell_length_b                    18.414751
_cell_length_c                    15.025085
_cell_angle_alpha                 89.972895
_cell_angle_beta                  89.876106
_cell_angle_gamma                 89.982411
_cell_volume                      5344.44940911

loop_
_atom_site_label
_atom_site_type_symbol
_atom_type_description
_atom_site_fract_x
_atom_site_fract_y
_atom_site_fract_z
_atom_type_partial_charge
C1    C     C_R   0.365596 0.500007 0.500054 0.866906
C2    C     C_R   0.634404 0.499991 0.499942 0.866393
C3    C     C_R   0.486273 0.366452 0.045021 0.171573
C4    C     C_R   0.518463 0.632965 0.955007 0.168526
C5    C     C_R   0.745716 0.434095 0.493082 -0.202329
C6    C     C_R   0.254258 0.565880 0.493895 -0.204386
C7    C     C_R   0.254313 0.434111 0.506633 -0.203093
C8    C     C_R   0.745709 0.565827 0.506228 -0.205300
C9    C     C_R   0.817400 0.434159 0.492863 -0.197045
C10   C     C_R   0.182572 0.565761 0.493759 -0.196599
C11   C     C_R   0.182631 0.434176 0.506792 -0.196878
C12   C     C_R   0.817393 0.565707 0.506285 -0.196571
C13   C     C_R   0.852939 0.499916 0.499577 0.179974
C14   C     C_R   0.147060 0.499952 0.500240 0.179845
C15   C     C_R   0.709552 0.499971 0.499757 -0.026271
C16   C     C_R   0.290447 0.500004 0.500197 -0.026603
C17   C     C_R   0.963249 0.499310 0.582364 0.119482
C18   C     C_R   0.036752 0.499480 0.417444 0.119487
C19   C     C_R   0.036246 0.500271 0.582533 0.119924
C20   C     C_R   0.963753 0.500405 0.417276 0.119906
C21   C     C_R   0.071857 0.499905 0.500071 -0.070554
C22   C     C_R   0.928143 0.499871 0.499737 -0.070537
C23   C     C_R   0.550721 0.726083 0.455633 0.011023
C24   C     C_R   0.456098 0.273904 0.555058 0.013835
C25   C     C_R   0.449234 0.726021 0.544368 0.012626
C26   C     C_R   0.543773 0.274083 0.444597 0.015888
C27   C     C_R   0.551706 0.802250 0.454969 -0.301266
C28   C     C_R   0.455176 0.197741 0.555774 -0.304303
C29   C     C_R   0.448052 0.802189 0.544846 -0.300651
C30   C     C_R   0.544548 0.197925 0.443306 -0.302306
C31   C     C_R   0.499786 0.841178 0.499775 0.181304
C32   C     C_R   0.499822 0.158860 0.499391 0.185947
C33   C     C_R   0.500128 0.499979 0.326398 0.899793
C34   C     C_R   0.500133 0.500004 0.673607 0.899625
C35   C     C_R   0.460830 0.961206 0.434772 0.114138
C36   C     C_R   0.538867 0.038795 0.564159 0.114243
C37   C     C_R   0.538634 0.961216 0.564470 0.115117
C38   C     C_R   0.460898 0.038797 0.434602 0.114647
C39   C     C_R   0.499888 0.077373 0.499343 -0.043564
C40   C     C_R   0.499725 0.922644 0.499684 -0.044395
C41   C     C_R   0.508872 0.565653 0.814792 -0.266779
C42   C     C_R   0.493759 0.434060 0.185217 -0.267495
C43   C     C_R   0.500862 0.500109 0.769399 -0.082405
C44   C     C_R   0.500634 0.499752 0.230611 -0.082817
C45   C     C_R   0.493819 0.434762 0.815138 -0.241973
C46   C     C_R   0.508274 0.565018 0.184879 -0.241493
C47   C     C_R   0.494206 0.434348 0.907045 0.097413
C48   C     C_R   0.508986 0.565280 0.092970 0.097393
C49   C     C_R   0.501969 0.500294 0.953664 0.018604
C50   C     C_R   0.501542 0.499291 0.046349 0.018543
C51   C     C_R   0.510000 0.567050 0.907402 0.092744
C52   C     C_R   0.493674 0.432514 0.092611 0.091376
C53   C     C_R   0.486686 0.368595 0.952262 -0.270752
C54   C     C_R   0.517384 0.630913 0.047763 -0.270122
H1    H     H_    0.514302 0.615171 0.776921 0.177873
H2    H     H_    0.488146 0.384563 0.223083 0.176796
H3    H     H_    0.487563 0.384081 0.779242 0.155960
H4    H     H_    0.514063 0.615754 0.220788 0.158951
H5    H     H_    0.480634 0.318617 0.914867 0.141455
H6    H     H_    0.523784 0.680829 0.085187 0.143004
H7    H     H_    0.718763 0.382715 0.487741 0.154248
H8    H     H_    0.281193 0.617294 0.488717 0.152779
H9    H     H_    0.281288 0.382712 0.511831 0.154338
H10   H     H_    0.718750 0.617229 0.511601 0.152687
H11   H     H_    0.845299 0.383311 0.487223 0.130139
H12   H     H_    0.154652 0.616600 0.488271 0.129716
H13   H     H_    0.154758 0.383315 0.512266 0.130217
H14   H     H_    0.845287 0.616530 0.511906 0.129750
N1    N     N_R   0.500000 0.689440 0.500000 -0.089438
N2    N     N_R   0.500000 0.310560 0.500000 -0.089022
O1    O     O_R   0.398180 0.560840 0.499980 -0.630595
O2    O     O_R   0.601820 0.439160 0.500020 -0.626768
O3    O     O_R   0.601820 0.560840 0.500020 -0.631765
O4    O     O_R   0.398180 0.439160 0.499980 -0.627482
O5    O     O_R   0.499980 0.560820 0.367840 -0.625639
O6    O     O_R   0.500020 0.439180 0.632160 -0.628997
O7    O     O_R   0.500020 0.560820 0.632160 -0.628204
O8    O     O_R   0.499980 0.439180 0.367840 -0.631634
Zn1   Zn    Zn3+2 0.500000 0.581210 0.500000 0.940896
Zn2   Zn    Zn3+2 0.500000 0.418790 0.500000 0.941712
C55   C     C_3   0.419871 0.918819 0.365137 -0.385007
C56   C     C_3   0.463365 0.904569 0.281900 -0.886678
H15   H     H_    0.482883 0.956126 0.253010 0.249588
H16   H     H_    0.508229 0.869405 0.297955 0.263634
H17   H     H_    0.431268 0.876543 0.231240 0.247245
H18   H     H_    0.401318 0.866114 0.391657 0.209954
H19   H     H_    0.371469 0.947127 0.346439 0.205973
C57   C     C_3   0.582112 0.081148 0.631530 -0.388715
C58   C     C_3   0.655042 0.095340 0.596097 -0.882274
H20   H     H_    0.681480 0.043641 0.579142 0.249284
H21   H     H_    0.653110 0.129923 0.535716 0.264179
H22   H     H_    0.685889 0.123940 0.647555 0.248231
H23   H     H_    0.557813 0.133822 0.648738 0.209823
H24   H     H_    0.585312 0.052921 0.696430 0.207010
C59   C     C_3   0.578870 0.918909 0.634955 -0.386612
C60   C     C_3   0.534891 0.906227 0.718167 -0.885126
H25   H     H_    0.514600 0.958232 0.744873 0.249720
H26   H     H_    0.490550 0.870143 0.702869 0.264150
H27   H     H_    0.566877 0.879905 0.770271 0.246358
H28   H     H_    0.596832 0.865631 0.609539 0.210744
H29   H     H_    0.627576 0.946709 0.653386 0.205711
C61   C     C_3   0.418318 0.081195 0.366489 -0.389152
C62   C     C_3   0.345431 0.096653 0.401264 -0.882398
H30   H     H_    0.315114 0.125199 0.349189 0.248161
H31   H     H_    0.318348 0.045454 0.418789 0.249268
H32   H     H_    0.347504 0.131748 0.461138 0.264828
H33   H     H_    0.443334 0.133384 0.348730 0.210392
H34   H     H_    0.414979 0.052501 0.301949 0.206782
C63   C     C_3   0.477846 0.293055 0.089821 -0.423551
C64   C     C_3   0.403816 0.281877 0.123066 -0.862958
H35   H     H_    0.388784 0.324397 0.171692 0.261056
H36   H     H_    0.367213 0.283412 0.066169 0.260145
H37   H     H_    0.399601 0.228076 0.156056 0.244921
H38   H     H_    0.489881 0.248507 0.042279 0.200933
H39   H     H_    0.515441 0.286584 0.145038 0.193297
C65   C     C_3   0.529521 0.705986 0.910239 -0.419497
C66   C     C_3   0.603879 0.713815 0.876734 -0.861111
H40   H     H_    0.640566 0.709730 0.933357 0.260018
H41   H     H_    0.616755 0.671199 0.827228 0.260090
H42   H     H_    0.610546 0.767687 0.844744 0.243810
H43   H     H_    0.492067 0.714158 0.855209 0.196551
H44   H     H_    0.519481 0.751003 0.957873 0.202038
C67   C     C_3   0.922360 0.496190 0.669678 -0.389619
C68   C     C_3   0.911036 0.417837 0.699857 -0.877908
H45   H     H_    0.961055 0.388772 0.706832 0.248539
H46   H     H_    0.884142 0.417483 0.765239 0.249810
H47   H     H_    0.878511 0.388193 0.651238 0.263913
H48   H     H_    0.948132 0.527131 0.723342 0.207339
H49   H     H_    0.871258 0.523109 0.663896 0.212741
C69   C     C_3   0.077648 0.496570 0.330126 -0.389645
C70   C     C_3   0.089059 0.418291 0.299772 -0.877919
H50   H     H_    0.121622 0.388556 0.348319 0.263869
H51   H     H_    0.039073 0.389210 0.292739 0.248568
H52   H     H_    0.115950 0.418099 0.234387 0.249838
H53   H     H_    0.051844 0.527620 0.276531 0.207326
H54   H     H_    0.128722 0.523503 0.335975 0.212773
C71   C     C_3   0.076603 0.503175 0.670035 -0.389299
C72   C     C_3   0.087727 0.581451 0.700481 -0.881613
H55   H     H_    0.120559 0.611221 0.652103 0.262869
H56   H     H_    0.037662 0.610496 0.707285 0.249346
H57   H     H_    0.114204 0.581640 0.765995 0.249311
H58   H     H_    0.050512 0.472085 0.723495 0.207300
H59   H     H_    0.127746 0.476282 0.664399 0.211422
C73   C     C_3   0.923392 0.503454 0.329781 -0.389416
C74   C     C_3   0.912150 0.581783 0.299495 -0.881429
H60   H     H_    0.879282 0.611421 0.347940 0.262920
H61   H     H_    0.962173 0.610887 0.292735 0.249311
H62   H     H_    0.885661 0.582085 0.233988 0.249344
H63   H     H_    0.949529 0.472506 0.276255 0.207305
H64   H     H_    0.872291 0.476496 0.335367 0.211361
H65   H     H_    0.590579 0.696164 0.420708 0.122167
H66   H     H_    0.421718 0.303847 0.598547 0.118934
H67   H     H_    0.409461 0.696050 0.579388 0.122681
H68   H     H_    0.578150 0.304170 0.401243 0.119695
H69   H     H_    0.592570 0.830659 0.419901 0.134867
H70   H     H_    0.420169 0.169281 0.600058 0.133892
H71   H     H_    0.407155 0.830544 0.579912 0.134588
H72   H     H_    0.579516 0.169621 0.398833 0.133243

loop_
_geom_bond_atom_site_label_1
_geom_bond_atom_site_label_2
_ccdc_geom_bond_type
C71   H58   S    
C18   C21   A    
C20   C73   S    
C69   H53   S    
C70   H52   S    
O1    Zn1   S    
C55   C56   S    
C53   H5    S    
C24   N2    A    
C67   C68   S    
C47   C49   A    
C54   H6    S    
C36   C57   S    
C7    C11   A    
C12   H14   S    
C45   H3    S    
C1    O1    A    
C65   H44   S    
C1    O4    A    
C14   C21   S    
C36   C37   A    
C19   C21   A    
C37   C40   A    
C66   H41   S    
C34   O7    A    
C38   C39   A    
N1    Zn1   S    
C11   C14   A    
O8    Zn2   S    
C33   O8    A    
C32   C39   S    
C60   H27   S    
C65   C66   S    
C37   C59   S    
C45   C47   A    
C49   C50   A    
C9    C13   A    
C64   H35   S    
C41   H1    S    
C73   H64   S    
C24   H66   S    
C42   H2    S    
C31   C40   S    
C17   C67   S    
C59   C60   S    
C11   H13   S    
C49   C51   A    
C60   H26   S    
C50   C52   A    
C61   H34   S    
C23   C27   A    
C58   H21   S    
C55   H18   S    
C19   C71   S    
C47   C53   A    
O7    Zn1   S    
C71   H59   S    
O4    Zn2   S    
C46   H4    S    
C27   H69   S    
C41   C43   A    
C42   C44   A    
C2    O2    A    
C74   H61   S    
C44   C46   A    
C74   H60   S    
C57   H24   S    
C10   H12   S    
C25   C29   A    
C46   C48   A    
C65   H43   S    
C4    C51   A    
C25   H67   S    
O6    Zn2   S    
C28   C32   A    
C35   C38   A    
C10   C14   A    
C66   H42   S    
C59   H28   S    
C29   H71   S    
N2    Zn2   S    
C23   N1    A    
C48   C54   A    
C5    C9    A    
C73   H63   S    
C8    C12   A    
C60   H25   S    
C9    H11   S    
O3    Zn1   S    
C5    H7    S    
C61   H33   S    
C62   H31   S    
C1    C16   S    
C57   C58   S    
C58   H22   S    
C2    C15   S    
C43   C45   A    
C64   H37   S    
C7    H9    S    
C55   H19   S    
C2    O3    A    
C72   H56   S    
C63   H38   S    
C8    H10   S    
C68   H47   S    
C7    C16   A    
C20   C22   A    
C26   C30   A    
C8    C15   A    
C56   H16   S    
C27   C31   A    
C26   N2    A    
C26   H68   S    
C25   N1    A    
C70   H50   S    
C74   H62   S    
C68   H46   S    
C30   H72   S    
C23   H65   S    
C57   H23   S    
C4    C54   A    
C33   C44   S    
C4    C65   S    
C36   C39   A    
C69   H54   S    
C34   C43   S    
C24   C28   A    
C73   C74   S    
C70   H51   S    
C72   H57   S    
C6    C10   A    
C3    C52   A    
C56   H17   S    
C71   C72   S    
C17   C22   A    
C35   C55   S    
C6    H8    S    
C69   C70   S    
C29   C31   A    
C66   H40   S    
C30   C32   A    
C3    C53   A    
C67   H48   S    
C3    C63   S    
C48   C50   A    
C17   C19   A    
C13   C22   S    
C35   C40   A    
C62   H32   S    
C18   C20   A    
C38   C61   S    
C61   C62   S    
C64   H36   S    
C5    C15   A    
C18   C69   S    
C72   H55   S    
C63   H39   S    
C6    C16   A    
C12   C13   A    
O2    Zn2   S    
C56   H15   S    
C34   O6    A    
C62   H30   S    
C28   H70   S    
C33   O5    A    
C58   H20   S    
C63   C64   S    
O5    Zn1   S    
C41   C51   A    
C67   H49   S    
C59   H29   S    
C42   C52   A    
C68   H45   S    
