data_mof_unit_63379.cif
_audit_creation_date              2013-03-05T15:59:00-0500
_audit_creation_method            fapswitch 2.2
_symmetry_space_group_name_H-M    P1
_symmetry_Int_Tables_number       1
_space_group_crystal_system       triclinic
_cell_length_a                    8.280486
_cell_length_b                    12.833273
_cell_length_c                    15.030874
_cell_angle_alpha                 98.064379
_cell_angle_beta                  97.585646
_cell_angle_gamma                 98.310278
_cell_volume                      1545.84627554

loop_
_atom_site_label
_atom_site_type_symbol
_atom_site_description
_atom_site_fract_x
_atom_site_fract_y
_atom_site_fract_z
_atom_type_partial_charge
P1    P     P_3+3 0.998730 0.403530 0.291970 0.421130
O1    O     O_2   0.827880 0.435260 0.277750 -0.385208
O2    O     O_3   0.100280 0.438960 0.391170 -0.437439
O3    O     O_3   0.625580 0.634130 0.333250 -0.385633
O4    O     O_2   0.707589 0.558420 0.176108 -0.396281
O5    O     O_3   0.945959 0.264250 0.277566 -0.600186
O6    O     O_3   0.640414 0.751657 0.188896 -0.540723
H1    H     H_    0.699359 0.829544 0.322350 0.151805
C1    C     C_3   0.640942 0.938095 0.231572 -0.980028
H2    H     H_    0.620265 0.999310 0.286960 0.233072
H3    H     H_    0.769959 0.957219 0.218564 0.281525
P2    P     P_3+3 0.687380 0.751030 0.571310 0.404160
P3    P     P_3+3 0.105456 0.828037 0.382677 0.437170
O7    O     O_2   0.857130 0.766340 0.543890 -0.370084
O8    O     O_3   0.056550 0.691050 0.379010 -0.394894
O9    O     O_2   0.987833 0.881423 0.439204 -0.385480
O10   O     O_3   0.761066 0.782156 0.688949 -0.576164
O11   O     O_3   0.052486 0.857096 0.273255 -0.528763
C2    C     C_3   0.078625 0.772387 0.209517 0.489782
H4    H     H_    0.986682 0.700010 0.208885 0.152585
H5    H     H_    0.205244 0.753664 0.224620 0.011520
C3    C     C_3   0.057303 0.803379 0.115198 -0.985675
H6    H     H_    0.930932 0.821521 0.097569 0.282256
H7    H     H_    0.149373 0.874833 0.113298 0.258532
C4    C     C_3   0.222694 0.783431 0.654308 0.375077
H8    H     H_    0.337610 0.784922 0.625105 0.026072
H9    H     H_    0.120533 0.741658 0.601454 0.165461
C5    C     C_3   0.194973 0.897618 0.678905 -0.847058
H10   H     H_    0.300146 0.944983 0.728319 0.243085
H11   H     H_    0.182941 0.934589 0.616562 0.247645
H12   H     H_    0.080545 0.898709 0.709778 0.270139
Ba1   Ba    Ba6+2 0.843750 0.550210 0.455600 1.536837
C6    C     C_3   0.069047 0.214424 0.241752 0.359228
H13   H     H_    0.100413 0.154532 0.284964 0.139537
H14   H     H_    0.185362 0.269404 0.241651 0.077387
C7    C     C_3   0.001695 0.155807 0.145708 -0.955510
H15   H     H_    0.876207 0.110142 0.143386 0.273312
H16   H     H_    0.083647 0.099042 0.123999 0.236751
H17   H     H_    0.995228 0.213578 0.097512 0.273008
C8    C     C_3   0.637356 0.757993 0.741319 0.367195
H18   H     H_    0.680005 0.706449 0.789891 0.062438
H19   H     H_    0.522025 0.716270 0.700099 0.148483
C9    C     C_3   0.608469 0.859300 0.796718 -1.032704
H20   H     H_    0.723160 0.896247 0.844203 0.260464
H21   H     H_    0.508228 0.841348 0.837278 0.261267
H22   H     H_    0.573507 0.914729 0.750015 0.228713
P4    P     P_3+3 0.190990 0.596560 0.708040 0.464259
O12   O     O_2   0.361830 0.564780 0.722310 -0.407752
O13   O     O_3   0.089430 0.561130 0.608830 -0.416540
O14   O     O_3   0.564130 0.365960 0.666760 -0.323923
O15   O     O_3   0.236246 0.736560 0.733407 -0.579370
P5    P     P_3+3 0.088853 0.170653 0.623116 0.475033
O16   O     O_3   0.601940 0.368240 0.453770 -0.404041
O17   O     O_3   0.133170 0.309040 0.621000 -0.365780
O18   O     O_2   0.207297 0.119418 0.565662 -0.378437
O19   O     O_3   0.153346 0.146503 0.733044 -0.531553
Ba2   Ba    Ba6+2 0.346090 0.449880 0.544410 1.547165
P6    P     P_3+3 0.584012 0.624155 0.215833 0.429236
C10   C     C_3   0.612078 0.828183 0.259193 0.487444
H23   H     H_    0.483100 0.811825 0.272872 0.018700
H24   H     H_    0.554325 0.940102 0.169004 0.256782
O20   O     O_3   0.587780 0.631850 0.546230 -0.466741
C11   C     C_3   0.525787 0.262350 0.260014 0.390574
H25   H     H_    0.487381 0.341632 0.275812 0.097156
H26   H     H_    0.659597 0.268084 0.278452 0.156092
C12   C     C_3   0.483520 0.223075 0.157967 -1.009596
H27   H     H_    0.348256 0.207350 0.135922 0.255821
H28   H     H_    0.537241 0.284720 0.120598 0.232246
H29   H     H_    0.533860 0.148547 0.139942 0.271972
P7    P     P_3+3 0.504922 0.231023 0.424174 0.435135
O21   O     O_2   0.332590 0.233690 0.456160 -0.354712
O22   O     O_3   0.446435 0.188426 0.306692 -0.599632
H30   H     H_    0.075845 0.736560 0.064122 0.226461
C13   C     C_3   0.136922 0.234643 0.796147 0.474577
H31   H     H_    0.220841 0.307021 0.787930 0.151518
H32   H     H_    0.008120 0.250447 0.787743 0.056011
C14   C     C_3   0.182942 0.211991 0.892232 -0.860949
H33   H     H_    0.314468 0.202125 0.904665 0.264394
H34   H     H_    0.163662 0.279335 0.942571 0.231905
H35   H     H_    0.105376 0.137577 0.901928 0.276961
P8    P     P_3+3 0.607577 0.376892 0.785596 0.493713
C15   C     C_3   0.635067 0.177367 0.767487 0.314358
H36   H     H_    0.730548 0.213381 0.730152 0.035110
O23   O     O_2   0.486343 0.444482 0.825674 -0.419578
O24   O     O_3   0.546597 0.249863 0.811025 -0.513725
H37   H     H_    0.546306 0.117621 0.716765 0.027040
C16   C     C_3   0.718040 0.120032 0.837906 0.231001
H38   H     H_    0.795787 0.067352 0.805048 0.057691
H39   H     H_    0.622483 0.072643 0.867907 0.113685
C17   C     C_R   0.827003 0.438397 0.832624 0.048864
C18   C     C_R   0.895146 0.448063 0.925146 -0.071104
C19   C     C_R   0.039173 0.456634 0.110049 -0.062156
C20   C     C_R   0.877438 0.404453 0.076723 -0.099938
C21   C     C_R   0.804858 0.403804 0.987577 0.026531
C22   C     C_R   0.110416 0.462769 0.203084 0.222827
H40   H     H_    0.804593 0.362696 0.118923 0.165140
H41   H     H_    0.678349 0.364133 0.967553 0.169591
C23   C     C_R   0.273778 0.515018 0.230688 -0.493371
C24   C     C_R   0.085353 0.535306 0.798946 0.134798
C25   C     C_R   0.153747 0.547382 0.893067 -0.102412
C26   C     C_R   0.060407 0.499974 0.955317 -0.009597
C27   C     C_R   0.313342 0.603048 0.926951 -0.045655
C28   C     C_R   0.384476 0.605741 0.016941 -0.184241
C29   C     C_R   0.296646 0.557073 0.078636 -0.018531
C30   C     C_R   0.131925 0.504985 0.048253 0.038625
C31   C     C_R   0.367897 0.560362 0.170151 0.181414
C32   C     C_R   0.926246 0.477155 0.771458 0.193300
H42   H     H_    0.510117 0.646620 0.036954 0.181187
H43   H     H_    0.386994 0.643691 0.884064 0.156451
H44   H     H_    0.329700 0.519259 0.300632 0.187661
C33   C     C_R   0.768740 0.176550 0.534886 0.237868
C34   C     C_R   0.419969 0.809935 0.468314 -0.513800
C35   C     C_R   0.387089 0.984820 0.435340 -0.148892
C36   C     C_R   0.322134 0.878272 0.432147 0.201384
C37   C     C_R   0.579264 0.848665 0.516150 0.293998
C38   C     C_R   0.645432 0.959092 0.523336 -0.047760
C39   C     C_R   0.547760 0.027085 0.480322 -0.125593
C40   C     C_R   0.611857 0.136403 0.485571 0.130502
C41   C     C_R   0.869664 0.111351 0.573791 0.076500
C42   C     C_R   0.806127 0.003465 0.570170 -0.282378
H45   H     H_    0.308758 0.034007 0.403770 0.187148
H46   H     H_    0.883583 0.955699 0.603632 0.209641
H47   H     H_    0.368103 0.726529 0.463249 0.179242
F1    F     F_    0.817373 0.192252 0.907038 -0.702098
O25   O     O_3   0.867337 0.454812 0.680994 -0.600307
C43   C     C_3   0.777951 0.534718 0.659718 0.189733
H48   H     H_    0.858189 0.610897 0.659731 0.111096
H49   H     H_    0.686613 0.550988 0.705146 0.044247
H50   H     H_    0.708797 0.501936 0.592307 0.232702
O26   O     O_3   0.822783 0.283544 0.548233 -0.614059
C44   C     C_3   0.912405 0.305654 0.478647 0.206116
H51   H     H_    0.831338 0.304873 0.414932 0.092900
H52   H     H_    0.000903 0.250481 0.463256 0.080562
H53   H     H_    0.981529 0.385935 0.504030 0.228344

loop_
_geom_bond_atom_site_label_1
_geom_bond_atom_site_label_2
_geom_bond_distance
_ccdc_geom_bond_type
C12   H28   1.108214 S    
C16   H38   1.109726 S    
C11   H26   1.095246 S    
C20   C21   1.392673 A    
C23   H44   1.082035 S    
C2    H4    1.110698 S    
C44   H53   1.093724 S    
C29   C31   1.415710 A    
C22   C23   1.401129 A    
O13   Ba2   2.919799 S    
O12   Ba2   2.843882 S    
P4    O13   1.582978 S    
C14   H33   1.108986 S    
C4    C5    1.518021 S    
C43   H48   1.099708 S    
C13   H32   1.108490 S    
O4    P6    1.544283 D    
C33   C40   1.395568 A    
C1    H24   1.110656 S    
C33   C41   1.396738 A    
C5    H10   1.108642 S    
C2    H5    1.110779 S    
C17   C32   1.406285 A    
O11   C2    1.406073 S    
P1    O2    1.582822 S    
H1    C10   1.111022 S    
C16   F1    1.378061 S    
C12   H29   1.110985 S    
C15   C16   1.518698 S    
C6    C7    1.523953 S    
P4    C24   1.915274 S    
C38   C39   1.434476 A    
O1    Ba1   2.843312 S    
P1    O1    1.524481 D    
C23   C31   1.406655 A    
O6    C10   1.406031 S    
C19   C20   1.400885 A    
C8    C9    1.509836 S    
P4    O12   1.524715 D    
C42   H46   1.074749 S    
C13   C14   1.523165 S    
P2    O10   1.762097 S    
C28   H42   1.078606 S    
C1    H2    1.110222 S    
O6    P6    1.753374 S    
P3    C36   1.834833 S    
P5    O18   1.546205 D    
P2    C37   1.865101 S    
C8    H19   1.088802 S    
C12   H27   1.105868 S    
C11   C12   1.523027 S    
C10   H23   1.110066 S    
P2    Ba1   3.412459 S    
O2    Ba1   2.918946 S    
Ba1   Ba2   4.563126 S    
C18   C26   1.417726 A    
O16   P7    1.794746 S    
C34   C36   1.394198 A    
C29   C30   1.414971 A    
P5    O17   1.766417 S    
C14   H34   1.110501 S    
C26   C30   1.432338 A    
O19   C13   1.405382 S    
C13   H31   1.108674 S    
P1    O5    1.753090 S    
Ba2   O20   2.841852 S    
C2    C3    1.520402 S    
C32   O25   1.357990 S    
C34   H47   1.082388 S    
O16   Ba2   2.906082 S    
P4    O15   1.757622 S    
C21   H41   1.080165 S    
C4    H8    1.098121 S    
C15   H37   1.111075 S    
C7    H17   1.108706 S    
C19   C22   1.430945 A    
C38   C42   1.418305 A    
C1    C10   1.520581 S    
O10   C8    1.398106 S    
C9    H20   1.109991 S    
C4    O15   1.404597 S    
P4    Ba2   3.387591 S    
P2    O20   1.597840 S    
C33   O26   1.359127 S    
C24   C25   1.431002 A    
P1    C22   1.904248 S    
C25   C27   1.401235 A    
C6    H13   1.110551 S    
Ba2   O21   2.882378 S    
C9    H21   1.109713 S    
O3    Ba1   2.836632 S    
C35   C39   1.404423 A    
P8    C17   1.874515 S    
P3    O11   1.750827 S    
C8    H18   1.109158 S    
P2    O7    1.509984 D    
C20   H40   1.075306 S    
C1    H3    1.110219 S    
O25   C43   1.396627 S    
C3    H7    1.110830 S    
C44   H51   1.092475 S    
O2    Ba2   2.838510 S    
Ba1   O16   2.842402 S    
P8    O23   1.545258 D    
C7    H16   1.110104 S    
C35   C36   1.386880 A    
C14   H35   1.110051 S    
C7    H15   1.110426 S    
C43   H49   1.106277 S    
O14   Ba2   2.835980 S    
C5    H12   1.109694 S    
O7    Ba1   2.882044 S    
C44   H52   1.113837 S    
O8    Ba1   2.809948 S    
C41   C42   1.399070 A    
C4    H9    1.098240 S    
C15   O24   1.408277 S    
C24   C32   1.396047 A    
C43   H50   1.090474 S    
O5    C6    1.405046 S    
P3    O8    1.737438 S    
O26   C44   1.397349 S    
Ba1   O20   2.906842 S    
C39   C40   1.413760 A    
C18   C21   1.405041 A    
C17   C18   1.411372 A    
P7    C40   1.876092 S    
C5    H11   1.107654 S    
C25   C26   1.434484 A    
C6    H14   1.108937 S    
P1    Ba1   3.387039 S    
C27   C28   1.395852 A    
C9    H22   1.108413 S    
Ba1   O13   2.837754 S    
P7    O21   1.568200 D    
C11   H25   1.112839 S    
P5    C41   1.873546 S    
P5    O19   1.752129 S    
C19   C30   1.431763 A    
C35   H45   1.079572 S    
C11   O22   1.397241 S    
C15   H36   1.112598 S    
P3    O9    1.545310 D    
O3    P6    1.735841 S    
C28   C29   1.410047 A    
C16   H39   1.109655 S    
C3    H6    1.110826 S    
C27   H43   1.079682 S    
P7    O22   1.754557 S    
C3    H30   1.110295 S    
P6    C31   1.854328 S    
C34   C37   1.401328 A    
P8    O24   1.745395 S    
C37   C38   1.427280 A    
O14   P8    1.756446 S    
O17   Ba2   2.810532 S    
