data_mof_unit_60830.cif
_audit_creation_date              2013-03-05T16:30:06-0500
_audit_creation_method            fapswitch 2.2
_symmetry_space_group_name_H-M    P1
_symmetry_Int_Tables_number       1
_space_group_crystal_system       triclinic
_cell_length_a                    41.686837
_cell_length_b                    35.643271
_cell_length_c                    21.913986
_cell_angle_alpha                 89.846732
_cell_angle_beta                  121.232063
_cell_angle_gamma                 90.203261
_cell_volume                      27841.8928221

loop_
_atom_site_label
_atom_site_type_symbol
_atom_site_description
_atom_site_fract_x
_atom_site_fract_y
_atom_site_fract_z
_atom_type_partial_charge
O1    O     O_R   0.445630 0.531460 0.945630 -0.591665
O2    O     O_R   0.554370 0.531460 0.054370 -0.588766
O3    O     O_R   0.945630 0.031460 0.945630 -0.591666
O4    O     O_R   0.054370 0.031460 0.054370 -0.588764
O5    O     O_R   0.445610 0.468530 0.945600 -0.588873
O6    O     O_R   0.554390 0.468530 0.054400 -0.591763
O7    O     O_R   0.945610 0.968530 0.945600 -0.588871
O8    O     O_R   0.054390 0.968530 0.054400 -0.591765
C1    C     C_R   0.427614 0.499956 0.927892 0.791286
C2    C     C_R   0.572386 0.500038 0.072110 0.791277
C3    C     C_R   0.927614 0.999956 0.927891 0.791279
C4    C     C_R   0.072386 0.000038 0.072110 0.791274
O9    O     O_R   0.500010 0.531460 0.910980 -0.585544
O10   O     O_R   0.499990 0.531460 0.089020 -0.583152
O11   O     O_R   0.000010 0.031460 0.910980 -0.585540
O12   O     O_R   0.999990 0.031460 0.089020 -0.583150
O13   O     O_R   0.499990 0.468530 0.910950 -0.583186
O14   O     O_R   0.500010 0.468530 0.089050 -0.585587
O15   O     O_R   0.999990 0.968530 0.910950 -0.583179
O16   O     O_R   0.000010 0.968530 0.089050 -0.585585
C5    C     C_R   0.501205 0.500128 0.883520 0.872892
C6    C     C_R   0.498796 0.499864 0.116481 0.872891
C7    C     C_R   0.001204 0.000128 0.883519 0.872882
C8    C     C_R   0.998796 0.999864 0.116481 0.872890
Cu1   Cu    Cu3+1 0.500000 0.537250 0.000000 0.940318
Cu2   Cu    Cu3+1 0.000000 0.037250 0.000000 0.940320
Cu3   Cu    Cu3+1 0.500000 0.462730 0.000000 0.940415
Cu4   Cu    Cu3+1 0.000000 0.962730 0.000000 0.940417
C9    C     C_R   0.466216 0.673094 0.464982 -0.158708
C10   C     C_R   0.534128 0.673186 0.534972 -0.158929
C11   C     C_R   0.966215 0.173094 0.465004 -0.158707
C12   C     C_R   0.034128 0.173186 0.534951 -0.158928
H1    H     H_    0.439786 0.688030 0.437763 0.132064
H2    H     H_    0.560588 0.688196 0.562274 0.132381
H3    H     H_    0.939785 0.188030 0.437802 0.132064
H4    H     H_    0.060589 0.188196 0.562236 0.132382
C13   C     C_R   0.000051 0.386258 0.500211 -0.036786
C14   C     C_R   0.500051 0.886258 0.500211 -0.036787
C15   C     C_1   0.500217 0.733158 0.500283 -0.066046
C16   C     C_1   0.000218 0.233158 0.500283 -0.066046
C17   C     C_R   0.500107 0.613875 0.499874 -0.036331
C18   C     C_R   0.000107 0.113875 0.499875 -0.036332
C19   C     C_2   0.521719 0.473592 0.738758 0.195624
C20   C     C_2   0.478283 0.526399 0.261249 0.195530
C21   C     C_2   0.021744 0.973609 0.738786 0.195623
C22   C     C_2   0.978275 0.026394 0.261239 0.195529
C23   C     C_2   0.498333 0.495179 0.682222 -0.320014
C24   C     C_2   0.501667 0.504807 0.317779 -0.320063
C25   C     C_2   0.998333 0.995168 0.682223 -0.320078
C26   C     C_2   0.001667 0.004811 0.317778 -0.320086
H5    H     H_    0.474474 0.508567 0.680375 0.126327
H6    H     H_    0.525525 0.491418 0.319625 0.126361
H7    H     H_    0.974457 0.008526 0.680357 0.126362
H8    H     H_    0.025531 0.991432 0.319631 0.126373
C27   C     C_2   0.516610 0.471500 0.800573 -0.158928
C28   C     C_2   0.483392 0.528494 0.199432 -0.158985
C29   C     C_2   0.016633 0.971511 0.800597 -0.158945
C30   C     C_2   0.983384 0.028490 0.199424 -0.158992
C31   C     C_2   0.504820 0.501220 0.820955 -0.366329
C32   C     C_2   0.495184 0.498775 0.179049 -0.366352
C33   C     C_2   0.004815 0.001221 0.820951 -0.366309
C34   C     C_2   0.995185 0.998775 0.179051 -0.366345
H9    H     H_    0.524456 0.445802 0.831813 0.167711
H10   H     H_    0.475543 0.554191 0.168190 0.167737
H11   H     H_    0.024503 0.945821 0.831864 0.167693
H12   H     H_    0.975528 0.054185 0.168173 0.167732
H13   H     H_    0.500187 0.528067 0.794090 0.154210
H14   H     H_    0.499821 0.471929 0.205918 0.154251
H15   H     H_    0.000161 0.028064 0.794062 0.154209
H16   H     H_    0.999829 0.971930 0.205927 0.154251
C35   C     C_R   0.171950 0.483299 0.721139 -0.161264
C36   C     C_R   0.827914 0.483549 0.278969 -0.161293
C37   C     C_R   0.671950 0.983261 0.721093 -0.161249
C38   C     C_R   0.327914 0.983549 0.278968 -0.161292
H17   H     H_    0.185934 0.469353 0.772547 0.140207
H18   H     H_    0.813811 0.469555 0.227662 0.139999
H19   H     H_    0.685936 0.969284 0.772470 0.140208
H20   H     H_    0.313811 0.969555 0.227662 0.139998
C39   C     C_R   0.132825 0.483793 0.680404 -0.235866
C40   C     C_R   0.867042 0.483897 0.319714 -0.235956
C41   C     C_R   0.632825 0.983755 0.680364 -0.235873
C42   C     C_R   0.367042 0.983897 0.319714 -0.235955
H21   H     H_    0.117300 0.469958 0.701243 0.157957
H22   H     H_    0.882452 0.469914 0.298984 0.157715
H23   H     H_    0.617301 0.969890 0.701173 0.157922
H24   H     H_    0.382452 0.969914 0.298984 0.157716
C43   C     C_R   0.113860 0.501354 0.613131 -0.044149
C44   C     C_R   0.886154 0.501503 0.386870 -0.043977
C45   C     C_R   0.613859 0.001354 0.613129 -0.044100
C46   C     C_R   0.386154 0.001503 0.386870 -0.043978
C47   C     C_R   0.135122 0.519348 0.587515 0.164323
C48   C     C_R   0.865049 0.519704 0.412347 0.164134
C49   C     C_R   0.635118 0.019388 0.587549 0.164314
C50   C     C_R   0.365049 0.019704 0.412347 0.164135
C51   C     C_R   0.174499 0.518601 0.629322 -0.148672
C52   C     C_R   0.825666 0.519104 0.370531 -0.148538
C53   C     C_R   0.674494 0.018641 0.629350 -0.148664
C54   C     C_R   0.325666 0.019104 0.370531 -0.148537
H25   H     H_    0.191049 0.532167 0.610371 0.132178
H26   H     H_    0.809233 0.532820 0.389385 0.132259
H27   H     H_    0.691042 0.032238 0.610425 0.132177
H28   H     H_    0.309233 0.032820 0.389385 0.132258
C55   C     C_R   0.192801 0.500570 0.695558 0.100209
C56   C     C_R   0.807210 0.501021 0.304416 0.100264
C57   C     C_R   0.692799 0.000571 0.695546 0.100201
C58   C     C_R   0.307210 0.001021 0.304416 0.100264
C59   C     C_1   0.233111 0.499980 0.737149 -0.053072
C60   C     C_1   0.766895 0.500526 0.262852 -0.053081
C61   C     C_1   0.733109 0.999981 0.737134 -0.053070
C62   C     C_1   0.266895 0.000527 0.262852 -0.053082
C63   C     C_1   0.266899 0.499749 0.771174 -0.066007
C64   C     C_1   0.733105 0.500313 0.228843 -0.066002
C65   C     C_1   0.766898 0.999750 0.771158 -0.066005
C66   C     C_1   0.233104 0.000313 0.228842 -0.066002
C67   C     C_R   0.326836 0.465799 0.829968 -0.158337
C68   C     C_R   0.673093 0.466228 0.169618 -0.158895
C69   C     C_R   0.826836 0.965800 0.829960 -0.158335
C70   C     C_R   0.173093 0.966228 0.169594 -0.158895
H29   H     H_    0.311830 0.439325 0.815280 0.132064
H30   H     H_    0.688041 0.439797 0.183962 0.131607
H31   H     H_    0.811829 0.939325 0.815273 0.132062
H32   H     H_    0.188041 0.939797 0.183921 0.131605
C71   C     C_R   0.366048 0.465821 0.867944 -0.189943
C72   C     C_R   0.633886 0.466130 0.131643 -0.192512
C73   C     C_R   0.866047 0.965821 0.867940 -0.189942
C74   C     C_R   0.133886 0.966130 0.131620 -0.192516
H33   H     H_    0.380607 0.439196 0.882022 0.153672
H34   H     H_    0.619278 0.439456 0.117221 0.152839
H35   H     H_    0.880606 0.939196 0.882022 0.153672
H36   H     H_    0.119278 0.939457 0.117180 0.152837
C75   C     C_R   0.386118 0.499870 0.887396 -0.034134
C76   C     C_R   0.613883 0.500114 0.112614 -0.034140
C77   C     C_R   0.886118 0.999871 0.887391 -0.034136
C78   C     C_R   0.113883 0.000114 0.112614 -0.034140
C79   C     C_R   0.366117 0.533850 0.868116 -0.192672
C80   C     C_R   0.633952 0.534157 0.132326 -0.190074
C81   C     C_R   0.866117 0.033850 0.868106 -0.192672
C82   C     C_R   0.133952 0.034157 0.132349 -0.190072
H37   H     H_    0.380722 0.560526 0.882324 0.152807
H38   H     H_    0.619396 0.560783 0.118457 0.153622
H39   H     H_    0.880722 0.060526 0.882313 0.152806
H40   H     H_    0.119396 0.060783 0.118498 0.153622
C83   C     C_R   0.326916 0.533745 0.830148 -0.159082
C84   C     C_R   0.673158 0.534172 0.170309 -0.158511
C85   C     C_R   0.826915 0.033746 0.830133 -0.159080
C86   C     C_R   0.173159 0.034172 0.170331 -0.158512
H41   H     H_    0.311971 0.560179 0.815596 0.131566
H42   H     H_    0.688162 0.560648 0.185204 0.131961
H43   H     H_    0.811970 0.060180 0.815578 0.131563
H44   H     H_    0.188162 0.060648 0.185245 0.131960
C87   C     C_R   0.307223 0.499745 0.811026 0.145651
C88   C     C_R   0.692780 0.500229 0.188999 0.145673
C89   C     C_R   0.807222 0.999745 0.811011 0.145650
C90   C     C_R   0.192780 0.000229 0.188999 0.145674
C91   C     C_R   0.500190 0.692810 0.500077 0.146212
C92   C     C_R   0.000191 0.192810 0.500078 0.146212
C93   C     C_R   0.466133 0.633878 0.464832 -0.195769
C94   C     C_R   0.534127 0.633965 0.534899 -0.189995
C95   C     C_R   0.966133 0.133878 0.464854 -0.195768
C96   C     C_R   0.034127 0.133965 0.534878 -0.189996
C97   C     C_1   0.000209 0.266966 0.500390 -0.066048
C98   C     C_1   0.500209 0.766966 0.500390 -0.066048
C99   C     C_R   0.000172 0.307315 0.500382 0.146484
C100  C     C_R   0.500172 0.807315 0.500382 0.146484
H45   H     H_    0.439477 0.619261 0.437305 0.153565
H46   H     H_    0.560748 0.619414 0.562331 0.153840
H47   H     H_    0.939476 0.119261 0.437344 0.153565
H48   H     H_    0.060749 0.119414 0.562294 0.153839
O17   O     O_R   0.531450 0.445630 0.531430 -0.591364
O18   O     O_R   0.468550 0.445630 0.468570 -0.587926
O19   O     O_R   0.031450 0.945630 0.531430 -0.591369
O20   O     O_R   0.968550 0.945630 0.468570 -0.587928
C101  C     C_R   0.499962 0.427623 0.500065 0.787019
C102  C     C_R   0.999962 0.927622 0.500065 0.787023
O21   O     O_R   0.531450 0.499990 0.620480 -0.575682
O22   O     O_R   0.468550 0.499990 0.379520 -0.575694
O23   O     O_R   0.031450 0.999990 0.620480 -0.575681
O24   O     O_R   0.968550 0.999990 0.379520 -0.575693
O25   O     O_R   0.468510 0.499990 0.557540 -0.586833
O26   O     O_R   0.531490 0.499990 0.442460 -0.586830
O27   O     O_R   0.968510 0.999990 0.557540 -0.586841
O28   O     O_R   0.031490 0.999990 0.442460 -0.586833
C103  C     C_R   0.499758 0.498307 0.617350 0.862156
C104  C     C_R   0.500242 0.501674 0.382650 0.862160
C105  C     C_R   0.999759 0.998304 0.617350 0.862160
C106  C     C_R   0.000242 0.001675 0.382650 0.862162
Cu5   Cu    Cu3+1 0.537260 0.499990 0.537250 0.938500
Cu6   Cu    Cu3+1 0.462740 0.499990 0.462750 0.938482
Cu7   Cu    Cu3+1 0.037260 0.999990 0.537250 0.938491
Cu8   Cu    Cu3+1 0.962740 0.999990 0.462750 0.938478
O29   O     O_R   0.531470 0.554350 0.531480 -0.587835
O30   O     O_R   0.468530 0.554350 0.468520 -0.591291
O31   O     O_R   0.031470 0.054350 0.531480 -0.587834
O32   O     O_R   0.968530 0.054350 0.468520 -0.591291
C107  C     C_R   0.500038 0.572361 0.499936 0.786538
C108  C     C_R   0.000038 0.072361 0.499936 0.786548
O33   O     O_R   0.999980 0.445730 0.448470 -0.586901
O34   O     O_R   0.000020 0.445730 0.551530 -0.586797
O35   O     O_R   0.499980 0.945730 0.448470 -0.586900
O36   O     O_R   0.500020 0.945730 0.551530 -0.586800
C109  C     C_R   0.000007 0.427783 0.500071 0.791856
C110  C     C_R   0.500007 0.927783 0.500071 0.791848
O37   O     O_R   0.054370 0.500090 0.502830 -0.578645
O38   O     O_R   0.945630 0.500090 0.497170 -0.578714
O39   O     O_R   0.554370 0.000090 0.502830 -0.578641
O40   O     O_R   0.445630 0.000090 0.497170 -0.578714
O41   O     O_R   0.054360 0.500110 0.605880 -0.585063
O42   O     O_R   0.945640 0.500110 0.394120 -0.584978
O43   O     O_R   0.554360 0.000110 0.605880 -0.585049
O44   O     O_R   0.445640 0.000110 0.394120 -0.584977
C111  C     C_R   0.072284 0.500781 0.571966 0.801235
C112  C     C_R   0.927722 0.500804 0.428033 0.801204
C113  C     C_R   0.572284 0.000781 0.571966 0.801234
C114  C     C_R   0.427722 0.000804 0.428033 0.801204
Cu9   Cu    Cu3+1 0.000000 0.500090 0.438970 0.935192
Cu10  Cu    Cu3+1 0.000000 0.500090 0.561030 0.935106
Cu11  Cu    Cu3+1 0.500000 0.000090 0.438970 0.935201
Cu12  Cu    Cu3+1 0.500000 0.000090 0.561030 0.935113
O45   O     O_R   0.000010 0.554450 0.448450 -0.587105
O46   O     O_R   0.999990 0.554450 0.551550 -0.587261
O47   O     O_R   0.500010 0.054450 0.448450 -0.587102
O48   O     O_R   0.499990 0.054450 0.551550 -0.587261
C115  C     C_R   0.999989 0.572375 0.499925 0.784534
C116  C     C_R   0.499990 0.072375 0.499925 0.784525
C117  C     C_R   0.000845 0.673204 0.445396 -0.158352
C118  C     C_R   0.998838 0.673045 0.553882 -0.158687
C119  C     C_R   0.500847 0.173204 0.445398 -0.158353
C120  C     C_R   0.498838 0.173045 0.553882 -0.158687
H49   H     H_    0.001614 0.688245 0.403137 0.132130
H50   H     H_    0.998031 0.687957 0.596088 0.132077
H51   H     H_    0.501617 0.188245 0.403140 0.132131
H52   H     H_    0.498030 0.187957 0.596087 0.132077
C121  C     C_R   0.000903 0.633989 0.445411 -0.193117
C122  C     C_R   0.998902 0.633841 0.554040 -0.192967
C123  C     C_R   0.500904 0.133989 0.445413 -0.193119
C124  C     C_R   0.498902 0.133841 0.554040 -0.192964
H53   H     H_    0.001738 0.619469 0.402918 0.153591
H54   H     H_    0.998109 0.619211 0.596610 0.153814
H55   H     H_    0.501740 0.119469 0.402920 0.153595
H56   H     H_    0.498108 0.119211 0.596609 0.153814
C125  C     C_R   0.999936 0.613874 0.499777 -0.036961
C126  C     C_R   0.499937 0.113874 0.499777 -0.036965
C127  C     C_R   0.999812 0.692780 0.499602 0.146608
C128  C     C_R   0.499812 0.192780 0.499603 0.146608
C129  C     C_1   0.999780 0.733107 0.499600 -0.066002
C130  C     C_1   0.499780 0.233107 0.499601 -0.066002
C131  C     C_1   0.499775 0.266902 0.499713 -0.065933
C132  C     C_1   0.999775 0.766902 0.499712 -0.065933
C133  C     C_R   0.465867 0.326839 0.464953 -0.158940
C134  C     C_R   0.533782 0.326928 0.535094 -0.158698
C135  C     C_R   0.965866 0.826839 0.464962 -0.158939
C136  C     C_R   0.033782 0.826928 0.535082 -0.158697
H57   H     H_    0.439409 0.311828 0.437595 0.132466
H58   H     H_    0.560208 0.311988 0.562369 0.132158
H59   H     H_    0.939408 0.811828 0.437613 0.132466
H60   H     H_    0.060208 0.811987 0.562348 0.132158
C137  C     C_R   0.465869 0.366052 0.465029 -0.190138
C138  C     C_R   0.533867 0.366136 0.535244 -0.195926
C139  C     C_R   0.965869 0.866052 0.465038 -0.190138
C140  C     C_R   0.033867 0.866136 0.535233 -0.195930
H61   H     H_    0.439250 0.380606 0.437538 0.153878
H62   H     H_    0.560522 0.380754 0.562831 0.153603
H63   H     H_    0.939250 0.880606 0.437556 0.153878
H64   H     H_    0.060522 0.880753 0.562810 0.153600
C141  C     C_R   0.499892 0.386129 0.500128 -0.036199
C142  C     C_R   0.999892 0.886129 0.500127 -0.036191
C143  C     C_R   0.499805 0.307228 0.499922 0.146349
C144  C     C_R   0.999804 0.807228 0.499921 0.146349
C145  C     C_R   0.000228 0.326909 0.555680 -0.158740
C146  C     C_R   0.000055 0.327060 0.445008 -0.159100
C147  C     C_R   0.500221 0.826909 0.555674 -0.158741
C148  C     C_R   0.500061 0.827060 0.445014 -0.159102
H65   H     H_    0.000314 0.311874 0.598805 0.131944
H66   H     H_    0.000006 0.312148 0.401937 0.131885
H67   H     H_    0.500302 0.811874 0.598793 0.131944
H68   H     H_    0.500018 0.812148 0.401948 0.131886
C149  C     C_R   0.000168 0.366133 0.555663 -0.192424
C150  C     C_R   0.999995 0.366273 0.444854 -0.192044
C151  C     C_R   0.500162 0.866133 0.555657 -0.192428
C152  C     C_R   0.500001 0.866273 0.444861 -0.192042
H69   H     H_    0.000217 0.380656 0.599049 0.152913
H70   H     H_    0.999905 0.380898 0.401392 0.153124
H71   H     H_    0.500205 0.880656 0.599038 0.152913
H72   H     H_    0.499917 0.880898 0.401404 0.153126
C153  C     C_3   0.551346 0.449179 0.739143 -0.804810
H73   H     H_    0.565346 0.431260 0.787630 0.211528
H74   H     H_    0.538443 0.430512 0.691697 0.221649
H75   H     H_    0.573254 0.466921 0.739073 0.244787
C154  C     C_3   0.448660 0.550813 0.260871 -0.804661
H76   H     H_    0.434660 0.568735 0.212389 0.211589
H77   H     H_    0.426750 0.533071 0.260937 0.244798
H78   H     H_    0.461565 0.569477 0.308321 0.221631
C155  C     C_3   0.051408 0.949237 0.739217 -0.804736
H79   H     H_    0.065428 0.931336 0.787727 0.211507
H80   H     H_    0.038536 0.930553 0.691795 0.221673
H81   H     H_    0.073297 0.967009 0.739140 0.244781
C156  C     C_3   0.948639 0.050794 0.260846 -0.804624
H82   H     H_    0.934633 0.068710 0.212356 0.211582
H83   H     H_    0.926735 0.033042 0.260913 0.244793
H84   H     H_    0.961534 0.069464 0.308289 0.221639
C157  C     C_3   0.116850 0.540408 0.517694 -0.849611
H85   H     H_    0.137788 0.555919 0.510391 0.217473
H86   H     H_    0.102129 0.520490 0.472526 0.249149
H87   H     H_    0.096648 0.561223 0.516045 0.231789
C158  C     C_3   0.883509 0.540832 0.482019 -0.849263
H88   H     H_    0.862709 0.556496 0.489213 0.217563
H89   H     H_    0.898058 0.520942 0.527326 0.249046
H90   H     H_    0.903894 0.561520 0.483519 0.231881
C159  C     C_3   0.616840 0.040490 0.517773 -0.849674
H91   H     H_    0.637774 0.056027 0.510500 0.217498
H92   H     H_    0.602119 0.020597 0.472563 0.249159
H93   H     H_    0.596637 0.061285 0.516173 0.231759
C160  C     C_3   0.383509 0.040832 0.482019 -0.849262
H94   H     H_    0.362709 0.056496 0.489213 0.217563
H95   H     H_    0.398058 0.020941 0.527326 0.249046
H96   H     H_    0.403894 0.061520 0.483519 0.231881

loop_
_geom_bond_atom_site_label_1
_geom_bond_atom_site_label_2
_geom_bond_distance
_ccdc_geom_bond_type
O32   C108  1.292276 A    
C133  H57   1.083531 S    
C43   C47   1.421995 A    
O36   Cu12  1.949327 S    
C146  H66   1.083552 S    
C18   C95   1.407213 A    
C120  H52   1.083558 S    
C80   H38   1.082832 S    
O34   Cu10  1.949327 S    
C39   C43   1.407151 A    
C157  H85   1.110900 S    
C77   C81   1.407014 A    
C21   C29   1.477971 S    
C137  H61   1.082831 S    
O37   Cu9   1.950965 S    
C134  C143  1.398955 A    
C5    C31   1.455318 S    
C27   C31   1.340564 D    
C6    C32   1.455322 S    
C51   H25   1.084423 S    
C48   C158  1.507989 S    
C9    H1    1.083537 S    
C34   H16   1.086274 S    
C121  H53   1.082832 S    
C81   H39   1.082835 S    
C86   H44   1.083549 S    
O20   C102  1.292041 A    
C134  H58   1.083538 S    
C151  H71   1.082821 S    
O4    C4    1.292462 A    
C140  H64   1.082843 S    
C13   C150  1.407354 A    
C9    C91   1.399104 A    
C53   C57   1.397154 A    
O40   C114  1.296296 A    
C147  C151  1.398096 A    
C40   C44   1.407070 A    
C37   C41   1.395555 A    
C97   C99   1.438172 S    
O22   Cu6   1.960453 S    
C98   C100  1.438169 S    
C1    C75   1.479168 S    
Cu11  O47   1.949202 S    
C67   C71   1.397790 A    
C99   C146  1.398971 A    
O30   C107  1.292276 A    
C137  C141  1.407049 A    
O17   Cu5   1.948091 S    
C23   C103  1.457275 S    
C29   H11   1.086835 S    
C24   C104  1.457276 S    
O25   Cu6   1.963314 S    
O16   Cu4   1.962695 S    
O20   Cu8   1.949120 S    
C54   H28   1.084412 S    
O43   C113  1.298793 A    
O7    Cu4   1.950329 S    
O15   C7    1.288369 A    
Cu9   Cu10  2.674821 S    
O26   Cu5   1.963310 S    
O27   Cu8   1.963314 S    
C86   C90   1.399096 A    
O42   C112  1.298756 A    
O38   C112  1.296296 A    
O9    C5    1.283292 A    
C52   C56   1.397152 A    
C69   C89   1.398981 A    
O8    Cu4   1.949293 S    
C140  C142  1.407100 A    
C46   C114  1.481968 S    
C136  C140  1.397502 A    
O21   C103  1.288086 A    
C157  H87   1.110711 S    
O22   C104  1.288085 A    
O3    Cu2   1.948548 S    
C160  H96   1.110703 S    
C29   C33   1.340563 D    
O47   C116  1.298270 A    
C139  H63   1.082831 S    
C54   C58   1.397152 A    
C50   C160  1.507989 S    
C17   C107  1.479664 S    
C115  C125  1.479173 S    
C25   H7    1.086324 S    
O41   Cu10  1.947178 S    
C95   H47   1.082845 S    
C96   H48   1.082829 S    
O3    C3    1.292148 A    
C17   C94   1.407159 A    
O24   C106  1.288084 A    
C73   H35   1.082826 S    
C14   C151  1.407283 A    
C16   C97   1.205034 T    
C74   C78   1.407270 A    
O36   C110  1.297697 A    
C44   C112  1.481968 S    
C129  C132  1.204564 T    
C67   C87   1.398981 A    
C74   H36   1.082833 S    
C55   C59   1.437629 S    
C19   C23   1.350957 D    
C66   C90   1.437384 S    
O26   C104  1.283721 A    
C119  H51   1.083533 S    
C35   C39   1.395551 A    
C11   C92   1.399106 A    
C118  C127  1.398826 A    
O39   Cu11  1.950965 S    
C12   H4    1.083526 S    
C122  H54   1.082832 S    
C160  H95   1.109535 S    
C48   C52   1.405429 A    
C72   C76   1.407266 A    
C70   H32   1.083543 S    
C31   H13   1.086272 S    
C12   C92   1.399193 A    
C71   H33   1.082828 S    
C23   H5    1.086308 S    
C158  H89   1.109535 S    
C27   H9    1.086822 S    
O35   C110  1.297188 A    
C28   H10   1.086822 S    
C62   C66   1.204561 T    
O8    C4    1.291921 A    
C131  C143  1.437382 S    
C79   C83   1.397416 A    
C148  C152  1.397704 A    
C4    C78   1.479193 S    
C22   C30   1.477997 S    
O41   C111  1.298804 A    
C156  H83   1.109677 S    
O37   C111  1.296314 A    
C138  H62   1.082845 S    
C51   C55   1.397153 A    
C159  H92   1.109534 S    
C20   C154  1.509735 S    
C10   H2    1.083529 S    
O13   Cu3   1.961598 S    
C93   H45   1.082845 S    
C119  C128  1.399091 A    
C153  H74   1.110975 S    
O29   C107  1.292736 A    
Cu11  Cu12  2.674821 S    
C118  H50   1.083557 S    
C68   H30   1.083535 S    
C15   C91   1.438166 S    
O5    C1    1.292221 A    
C155  H79   1.110623 S    
C37   C57   1.395850 A    
C24   H6    1.086309 S    
C76   C80   1.406997 A    
O31   C108  1.292736 A    
C154  H76   1.110616 S    
C145  C149  1.398096 A    
C15   C98   1.205034 T    
O48   C116  1.297758 A    
O15   Cu4   1.961598 S    
C19   C27   1.477986 S    
C100  C147  1.399237 A    
O42   Cu9   1.947190 S    
C67   H29   1.083525 S    
C14   C110  1.480098 S    
O10   C6    1.288378 A    
C26   C106  1.457283 S    
C49   C53   1.405415 A    
C35   C55   1.395853 A    
C130  C131  1.204564 T    
C8    C34   1.455317 S    
O14   C6    1.283282 A    
C59   C63   1.204541 T    
C18   C96   1.407165 A    
Cu10  O46   1.948099 S    
O38   Cu10  1.950969 S    
C118  C122  1.397362 A    
Cu6   O30   1.948014 S    
C133  C143  1.399037 A    
C36   C40   1.395556 A    
C139  C142  1.407050 A    
C82   C86   1.397616 A    
C52   H26   1.084410 S    
C83   C87   1.398978 A    
C128  C130  1.437381 S    
C70   C90   1.398885 A    
C45   C49   1.421963 A    
C2    C76   1.479193 S    
O21   Cu5   1.960455 S    
Cu7   O31   1.949045 S    
C25   C105  1.457296 S    
C47   C157  1.508000 S    
O18   Cu6   1.949120 S    
O17   C101  1.291585 A    
C69   C73   1.397792 A    
O46   C115  1.297758 A    
C41   H23   1.083307 S    
C13   C149  1.407282 A    
C30   C34   1.340564 D    
O35   Cu11  1.948213 S    
C40   H22   1.083309 S    
C101  C141  1.478951 S    
C26   H8    1.086320 S    
O44   Cu11  1.947190 S    
C99   C145  1.399233 A    
C81   C85   1.397422 A    
C155  H81   1.109682 S    
O24   Cu8   1.960453 S    
C50   C54   1.405429 A    
C73   C77   1.407242 A    
C154  H78   1.110975 S    
O23   C105  1.288087 A    
O28   C106  1.283726 A    
C37   H19   1.083526 S    
C57   C61   1.437645 S    
C135  C139  1.397663 A    
C136  C144  1.398956 A    
C64   C88   1.437384 S    
C36   H18   1.083527 S    
C72   H34   1.082830 S    
C41   C45   1.407126 A    
O39   C113  1.296308 A    
C43   C111  1.482073 S    
C38   C42   1.395556 A    
C46   C50   1.421955 A    
C157  H86   1.109552 S    
O12   Cu2   1.961335 S    
O19   C102  1.291589 A    
O1    C1    1.292146 A    
C82   H40   1.082837 S    
C9    C93   1.397801 A    
C36   C56   1.395890 A    
C42   H24   1.083309 S    
C49   C159  1.507982 S    
C117  H49   1.083534 S    
C28   C32   1.340562 D    
C83   H41   1.083558 S    
C153  H73   1.110615 S    
Cu9   O45   1.949202 S    
C20   C28   1.478003 S    
C135  H59   1.083532 S    
C21   C25   1.350977 D    
C148  H68   1.083549 S    
C18   C108  1.479664 S    
C17   C93   1.407215 A    
C14   C152  1.407357 A    
C10   C91   1.399194 A    
C11   H3    1.083538 S    
C56   C60   1.437661 S    
C94   H46   1.082831 S    
C45   C113  1.482041 S    
C149  H69   1.082821 S    
C68   C72   1.397611 A    
C71   C75   1.407239 A    
C123  H55   1.082831 S    
C133  C137  1.397663 A    
O6    C2    1.291921 A    
O4    Cu2   1.949576 S    
C117  C127  1.399090 A    
C79   H37   1.082836 S    
C42   C46   1.407072 A    
C145  H65   1.083531 S    
C117  C121  1.397757 A    
C146  C150  1.397704 A    
Cu5   Cu6   2.656381 S    
C80   C84   1.397620 A    
C39   H21   1.083314 S    
C116  C126  1.479173 S    
C160  H94   1.110886 S    
O2    Cu1   1.949576 S    
O10   Cu1   1.961335 S    
Cu7   Cu8   2.656381 S    
O13   C5    1.288363 A    
O45   C115  1.298270 A    
C60   C64   1.204561 T    
C7    C33   1.455306 S    
C32   H14   1.086266 S    
C84   C88   1.399094 A    
C158  H88   1.110886 S    
C38   H20   1.083529 S    
C13   C109  1.480098 S    
C135  C144  1.399033 A    
C85   H43   1.083560 S    
O18   C101  1.292044 A    
C20   C24   1.350963 D    
C156  H82   1.110620 S    
C22   C156  1.509751 S    
C84   H42   1.083546 S    
C159  H91   1.110884 S    
O40   Cu12  1.950969 S    
O7    C3    1.292222 A    
O43   Cu12  1.947178 S    
C147  H67   1.083530 S    
C153  H75   1.109656 S    
C75   C79   1.407009 A    
C3    C77   1.479179 S    
O19   Cu7   1.948091 S    
C124  C126  1.407223 A    
C69   H31   1.083526 S    
C30   H12   1.086828 S    
O16   C8    1.283279 A    
C127  C129  1.437381 S    
C120  C128  1.398829 A    
O33   C109  1.297188 A    
O28   Cu7   1.963310 S    
Cu5   O29   1.949045 S    
O33   Cu9   1.948213 S    
C61   C65   1.204548 T    
C102  C142  1.478951 S    
C85   C89   1.398980 A    
O11   C7    1.283285 A    
C100  C148  1.398972 A    
O12   C8    1.288380 A    
O5    Cu3   1.950329 S    
O1    Cu1   1.948548 S    
O9    Cu1   1.962433 S    
Cu12  O48   1.948099 S    
O25   C103  1.283726 A    
O23   Cu7   1.960455 S    
C44   C48   1.421958 A    
O27   C105  1.283740 A    
O11   Cu2   1.962433 S    
O44   C114  1.298756 A    
C47   C51   1.405411 A    
C124  H56   1.082836 S    
C123  C126  1.407141 A    
C38   C58   1.395887 A    
O6    Cu3   1.949293 S    
C158  H90   1.110701 S    
O34   C109  1.297697 A    
C121  C125  1.407141 A    
C156  H84   1.110985 S    
O2    C2    1.292462 A    
C68   C88   1.398881 A    
C58   C62   1.437661 S    
C159  H93   1.110690 S    
C33   H15   1.086278 S    
C10   C94   1.397970 A    
C21   C155  1.509751 S    
O14   Cu3   1.962695 S    
C152  H72   1.082825 S    
C65   C89   1.437364 S    
C63   C87   1.437353 S    
C78   C82   1.407001 A    
C132  C144  1.437382 S    
Cu1   Cu3   2.656140 S    
C119  C123  1.397760 A    
C22   C26   1.350974 D    
Cu2   Cu4   2.656140 S    
C136  H60   1.083538 S    
C155  H80   1.110986 S    
C35   H17   1.083540 S    
C154  H77   1.109654 S    
C53   H27   1.084412 S    
C120  C124  1.397362 A    
Cu8   O32   1.948014 S    
C122  C125  1.407220 A    
C150  H70   1.082823 S    
C16   C92   1.438163 S    
C70   C74   1.397604 A    
C12   C96   1.397970 A    
C138  C141  1.407101 A    
C134  C138  1.397502 A    
C11   C95   1.397801 A    
C19   C153  1.509733 S    
