data_mof_unit_53114.cif
_audit_creation_date              2012-12-11T17:43:18-0500
_audit_creation_method            fapswitch 2.2
_symmetry_space_group_name_H-M    P1
_symmetry_Int_Tables_number       1
_space_group_crystal_system       triclinic
_cell_length_a                    14.912787
_cell_length_b                    15.206178
_cell_length_c                    17.118308
_cell_angle_alpha                 109.33662
_cell_angle_beta                  105.904967
_cell_angle_gamma                 108.686342
_cell_volume                      3140.3968332

loop_
_atom_site_label
_atom_site_type_symbol
_atom_type_description
_atom_site_fract_x
_atom_site_fract_y
_atom_site_fract_z
_atom_type_partial_charge
C1    C     C_R   0.086695 0.288744 0.075707 0.796638
C2    C     C_R   0.909579 0.723872 0.970586 0.784882
C3    C     C_R   0.024871 0.575449 0.744350 -0.316329
C4    C     C_R   0.965534 0.527016 0.272220 -0.284487
C5    C     C_R   0.756276 0.196035 0.726005 -0.077560
C6    C     C_R   0.338514 0.777333 0.253300 -0.112976
C7    C     C_R   0.295343 0.465245 0.971562 0.038987
C8    C     C_R   0.634372 0.423035 0.929992 -0.039317
C9    C     C_R   0.924628 0.947933 0.064594 0.855700
C10   C     C_R   0.082697 0.082756 0.041539 0.757954
C11   C     C_R   0.003610 0.923190 0.050252 -0.217009
C12   C     C_R   0.003121 0.106322 0.053631 -0.187965
C13   C     C_R   0.086949 0.995027 0.044277 -0.166391
C14   C     C_R   0.925833 0.041757 0.069426 -0.202224
C15   C     C_R   0.742625 0.020130 0.029459 0.826829
C16   C     C_R   0.271118 0.032414 0.126941 0.722885
C17   C     C_R   0.708517 0.151223 0.126180 0.057245
C18   C     C_R   0.356583 0.950119 0.048160 0.012605
C19   C     C_R   0.483041 0.495035 0.242469 -0.193239
C20   C     C_R   0.538242 0.401886 0.652068 -0.212975
C21   C     C_R   0.476088 0.489713 0.157361 0.765340
C22   C     C_R   0.500807 0.373085 0.711209 0.705987
C23   C     C_R   0.935108 0.522369 0.750336 0.852236
C24   C     C_R   0.060197 0.543180 0.264997 0.733707
C25   C     C_R   0.426073 0.392064 0.079025 -0.158051
C26   C     C_R   0.488478 0.445049 0.778963 -0.149925
C27   C     C_R   0.387782 0.300222 0.087279 -0.199514
C28   C     C_R   0.509596 0.544273 0.784276 -0.194706
C29   C     C_R   0.393713 0.305602 0.171486 0.014187
C30   C     C_R   0.548586 0.573698 0.726735 -0.039262
C31   C     C_R   0.439571 0.402135 0.248945 -0.039564
C32   C     C_R   0.565097 0.503906 0.661779 -0.049736
C33   C     C_R   0.484577 0.353044 0.959461 -0.225692
C34   C     C_R   0.382034 0.436920 0.867864 -0.251909
C35   C     C_R   0.521880 0.388992 0.904010 0.141771
C36   C     C_R   0.365115 0.427712 0.942183 0.111465
C37   C     C_R   0.462841 0.420868 0.849541 0.154445
C38   C     C_R   0.418418 0.385393 0.988934 0.122825
C39   C     C_R   0.673749 0.060580 0.045607 -0.394881
C40   C     C_R   0.358034 0.015227 0.128936 -0.414520
C41   C     C_R   0.947116 0.554611 0.354551 0.019051
C42   C     C_R   0.024921 0.602826 0.670695 -0.004608
C43   C     C_R   0.104858 0.709734 0.607544 -0.009636
C44   C     C_R   0.844696 0.490983 0.428591 -0.015455
C45   C     C_R   0.775149 0.203364 0.812666 -0.209866
C46   C     C_R   0.282103 0.782068 0.176659 -0.211318
C47   C     C_R   0.105035 0.691944 0.682579 -0.261506
C48   C     C_R   0.853752 0.487872 0.350328 -0.293445
C49   C     C_R   0.940707 0.534934 0.585507 0.781976
C50   C     C_R   0.025117 0.637930 0.438777 0.794551
C51   C     C_R   0.933418 0.556603 0.512377 -0.180447
C52   C     C_R   0.021020 0.638198 0.520012 -0.190255
C53   C     C_R   0.711960 0.098980 0.641024 0.034620
C54   C     C_R   0.446297 0.850504 0.322547 0.065451
C55   C     C_R   0.598149 0.018918 0.392733 0.797152
C56   C     C_R   0.599930 0.912768 0.559852 0.797271
C57   C     C_R   0.507647 0.937725 0.316519 -0.283812
C58   C     C_R   0.668689 0.002336 0.641141 -0.294070
C59   C     C_R   0.483217 0.839914 0.401773 -0.114908
C60   C     C_R   0.700377 0.101516 0.557619 -0.107486
C61   C     C_R   0.572207 0.920002 0.478035 -0.159130
C62   C     C_R   0.626837 0.013107 0.475549 -0.139867
C63   C     C_R   0.813030 0.202328 0.190233 -0.125111
C64   C     C_R   0.271281 0.908930 0.964460 -0.104672
C65   C     C_R   0.882820 0.164006 0.173036 -0.229539
C66   C     C_R   0.183969 0.925902 0.961992 -0.229297
C67   C     C_R   0.265416 0.537549 0.954343 -0.071227
C68   C     C_R   0.695052 0.395165 0.984249 0.081582
C69   C     C_R   0.848362 0.073131 0.092313 0.032910
C70   C     C_R   0.182173 0.984778 0.043728 0.068637
C71   C     C_R   0.779143 0.296255 0.735323 0.721757
C72   C     C_R   0.275539 0.685202 0.249275 0.832161
C73   C     C_R   0.250733 0.437785 0.025984 -0.099682
C74   C     C_R   0.702380 0.495020 0.915116 -0.021180
C75   C     C_R   0.107460 0.599319 0.821791 0.609925
C76   C     C_R   0.887678 0.461828 0.184881 0.615282
C77   C     C_R   0.914529 0.201813 0.994549 -0.264451
C78   C     C_R   0.080639 0.802111 0.057831 -0.228685
C79   C     C_R   0.000631 0.195535 0.042760 -0.008588
C80   C     C_R   0.995187 0.820322 0.034684 0.005863
H1    H     H_    0.351587 0.224503 0.028060 0.191290
H2    H     H_    0.501248 0.600973 0.836319 0.191499
H3    H     H_    0.361831 0.234328 0.176265 0.180662
H4    H     H_    0.568356 0.652101 0.734488 0.180006
H5    H     H_    0.523311 0.320931 0.996841 0.138743
H6    H     H_    0.337388 0.463268 0.827970 0.141452
H7    H     H_    0.789831 0.425594 0.286906 0.219041
H8    H     H_    0.169011 0.745764 0.749183 0.191304
H9    H     H_    0.593643 0.021957 0.994660 0.171173
H10   H     H_    0.424202 0.048728 0.193939 0.190159
H11   H     H_    0.740482 0.173455 0.556065 0.249531
H12   H     H_    0.437536 0.775095 0.409432 0.251085
H13   H     H_    0.680530 0.995932 0.703741 0.170389
H14   H     H_    0.483028 0.946198 0.255088 0.148919
H15   H     H_    0.841057 0.272802 0.252575 0.145615
H16   H     H_    0.271349 0.861331 0.901679 0.177376
H17   H     H_    0.964324 0.206398 0.221629 0.182270
H18   H     H_    0.116647 0.890200 0.897267 0.161559
H19   H     H_    0.764964 0.141118 0.831290 0.153698
H20   H     H_    0.312994 0.834645 0.150679 0.153470
H21   H     H_    0.286776 0.575589 0.914557 0.174612
H22   H     H_    0.667193 0.327731 0.995685 0.124846
H23   H     H_    0.249852 0.378453 0.046718 0.173670
H24   H     H_    0.683156 0.526352 0.868765 0.171572
H25   H     H_    0.833529 0.147050 0.967514 0.154527
H26   H     H_    0.158318 0.856321 0.109544 0.171852
N1    N     N_R   0.055660 0.348550 0.045620 -0.133864
N2    N     N_R   0.944340 0.651450 0.954380 -0.138594
N3    N     N_R   0.960830 0.507850 0.823700 -0.179479
N4    N     N_R   0.039170 0.492150 0.176300 -0.163856
N5    N     N_R   0.811290 0.303410 0.871650 -0.083557
N6    N     N_R   0.188710 0.696590 0.128350 -0.080917
N7    N     N_R   0.205200 0.552990 0.997670 -0.047759
N8    N     N_R   0.794800 0.447010 0.002330 -0.049216
N9    N     N_R   0.814800 0.361830 0.823700 -0.116213
N10   N     N_R   0.185200 0.638170 0.176300 -0.120401
N11   N     N_R   0.201680 0.494570 0.045620 -0.051479
N12   N     N_R   0.798320 0.505430 0.954380 -0.070030
N13   N     N_R   0.068420 0.560530 0.871650 -0.157849
N14   N     N_R   0.931580 0.439470 0.128350 -0.155455
N15   N     N_R   0.948070 0.295860 0.997670 -0.085274
N16   N     N_R   0.051930 0.704140 0.002330 -0.091487
Ni1   Ni    Ni4+2 0.119340 0.493420 0.109960 0.320442
Ni2   Ni    Ni4+2 0.880660 0.506580 0.890040 0.279272
Ni3   Ni    Ni4+2 0.872590 0.372590 0.000000 0.202031
Ni4   Ni    Ni4+2 0.127410 0.627410 0.000000 0.228016
F1    F     F_    0.180137 0.324991 0.145874 -0.677944
F2    F     F_    0.811886 0.707237 0.922335 -0.671389
F3    F     F_    0.708071 0.933791 0.949872 -0.667228
F4    F     F_    0.270114 0.088436 0.206836 -0.697139
C81   C     C_1   0.439176 0.403401 0.333502 0.215360
N17   N     N_1   0.437818 0.403563 0.400787 -0.062896
C82   C     C_1   0.612977 0.539873 0.608315 0.234576
N18   N     N_1   0.651956 0.569153 0.565993 -0.064424
C83   C     C_1   0.536330 0.595689 0.322433 0.283016
N19   N     N_1   0.579530 0.676197 0.386701 -0.036809
C84   C     C_1   0.549097 0.326265 0.582375 0.354446
N20   N     N_1   0.557329 0.265479 0.526346 -0.001702
F5    F     F_    0.517790 0.579036 0.150573 -0.680957
F6    F     F_    0.478601 0.276094 0.704249 -0.698274
F7    F     F_    0.107116 0.712164 0.440556 -0.661227
F8    F     F_    0.873267 0.439590 0.570413 -0.652113
C85   C     C_1   0.192857 0.799859 0.622971 0.284101
N21   N     N_1   0.263481 0.872148 0.635639 -0.022989
C86   C     C_1   0.745235 0.421112 0.419243 0.283602
N22   N     N_1   0.665653 0.365205 0.411379 -0.040033
F9    F     F_    0.841418 0.519746 0.710287 -0.642820
F10   F     F_    0.156526 0.592542 0.334877 -0.600885
F11   F     F_    0.651602 0.106359 0.387708 -0.685351
F12   F     F_    0.552260 0.821932 0.562579 -0.682841
C87   C     C_1   0.637339 0.192474 0.142595 0.137363
N23   N     N_1   0.580204 0.225720 0.155831 -0.087921
C88   C     C_1   0.437591 0.917565 0.052265 0.133684
N24   N     N_1   0.501741 0.889898 0.055906 -0.028744
F13   F     F_    0.763890 0.324384 0.667659 -0.674377
F14   F     F_    0.310278 0.629652 0.286288 -0.666999
F15   F     F_    0.208370 0.668665 0.853076 -0.731184
F16   F     F_    0.783915 0.430292 0.158014 -0.730873
F17   F     F_    0.848866 0.882512 0.076511 -0.631949
F18   F     F_    0.154604 0.142934 0.022482 -0.719131

loop_
_geom_bond_atom_site_label_1
_geom_bond_atom_site_label_2
_ccdc_geom_bond_type
C77   N15   A    
C63   C65   A    
C3    C42   S    
C72   F14   S    
N10   Ni1   S    
C46   N6    A    
C27   C29   A    
C34   C37   A    
C7    C36   S    
C3    C23   A    
N3    N13   A    
N1    Ni1   S    
C19   C31   A    
C86   N22   T    
C83   N19   T    
C7    C73   A    
C6    C72   A    
C76   F16   S    
C76   N14   A    
C21   C25   A    
C5    C53   S    
C35   C37   A    
C58   H13   S    
C6    C54   S    
C29   H3    S    
C34   H6    S    
C32   C82   S    
N4    Ni1   S    
C78   C80   A    
C43   C52   A    
C13   C70   S    
C9    F17   S    
C19   C83   S    
C85   N21   T    
C12   C79   S    
C22   F6    S    
C60   C62   A    
C17   C39   A    
C2    N2    A    
C33   H5    S    
C18   C40   A    
C43   C85   S    
C49   C51   A    
N5    Ni3   S    
C50   C52   A    
C87   N23   T    
C3    C75   A    
C16   C40   A    
N6    Ni4   S    
C50   F7    S    
C59   H12   S    
C75   F15   S    
C4    C41   S    
N2    N16   A    
C17   C87   S    
N2    Ni2   S    
C23   N3    A    
C53   C60   A    
C55   F11   S    
C54   C59   A    
C77   C79   A    
C15   C69   A    
C59   C61   A    
C73   N11   A    
C28   H2    S    
C51   C52   A    
C27   H1    S    
C63   H15   S    
C24   N4    A    
C64   H16   S    
C24   F10   S    
N4    N14   A    
N8    Ni3   S    
N14   Ni3   S    
C74   N12   A    
N7    Ni4   S    
C5    C45   A    
C8    C35   S    
C64   C66   A    
C20   C84   S    
N16   Ni4   S    
C9    C14   A    
C30   H4    S    
N15   Ni3   S    
C25   C38   S    
C15   F3    S    
C12   C14   A    
C71   N9    A    
C71   F13   S    
C49   F8    S    
C8    C74   A    
C44   C86   S    
C48   H7    S    
C16   C70   A    
C26   C37   S    
N12   Ni2   S    
C9    C11   A    
C15   C39   A    
N8    N12   A    
C18   C88   S    
C10   C12   A    
C1    N1    A    
N7    N11   A    
C44   C51   A    
C20   C22   A    
C8    C68   A    
C57   H14   S    
C55   C57   A    
C45   H19   S    
C82   N18   T    
C1    C79   A    
C14   C69   S    
C21   F5    S    
C56   F12   S    
C81   N17   T    
C10   F18   S    
C41   C50   A    
N6    N10   A    
C16   F4    S    
C67   H21   S    
C74   H24   S    
C20   C32   A    
C60   H11   S    
C65   C69   A    
C46   H20   S    
N9    Ni2   S    
C6    C46   A    
C19   C21   A    
C1    F1    S    
C68   H22   S    
C10   C13   A    
C53   C58   A    
C45   N5    A    
N3    Ni2   S    
C25   C27   A    
C84   N20   T    
C72   N10   A    
C26   C28   A    
C33   C38   A    
C78   H26   S    
C47   H8    S    
C66   H18   S    
C36   C38   A    
C67   N7    A    
C31   C81   S    
C28   C30   A    
C29   C31   A    
C75   N13   A    
C17   C63   A    
C30   C32   A    
C11   C13   A    
C18   C64   A    
C66   C70   A    
C23   F9    S    
C4    C24   A    
C77   H25   S    
C33   C35   A    
C41   C48   A    
C56   C58   A    
C34   C36   A    
C42   C47   A    
N11   Ni1   S    
C61   C62   A    
C78   N16   A    
C4    C76   A    
C2    C80   A    
C11   C80   S    
C42   C49   A    
C7    C67   A    
N13   Ni4   S    
C73   H23   S    
C55   C62   A    
C65   H17   S    
C5    C71   A    
C22   C26   A    
N1    N15   A    
C56   C61   A    
N5    N9    A    
C40   H10   S    
C88   N24   T    
C43   C47   A    
C39   H9    S    
C44   C48   A    
C68   N8    A    
C54   C57   A    
C2    F2    S    
