data_mof_unit_17407.cif
_audit_creation_date              2012-12-10T18:55:14-0500
_audit_creation_method            fapswitch 2.2
_symmetry_space_group_name_H-M    P1
_symmetry_Int_Tables_number       1
_space_group_crystal_system       triclinic
_cell_length_a                    10.686239
_cell_length_b                    9.824356
_cell_length_c                    27.768579
_cell_angle_alpha                 90.610467
_cell_angle_beta                  90.186055
_cell_angle_gamma                 90.00392
_cell_volume                      2915.11496628

loop_
_atom_site_label
_atom_site_type_symbol
_atom_type_description
_atom_site_fract_x
_atom_site_fract_y
_atom_site_fract_z
_atom_type_partial_charge
C1    C     C_R   0.259876 0.499997 0.499945 0.867619
C2    C     C_R   0.740119 0.500002 0.500001 0.867931
C3    C     C_R   0.514024 0.503897 0.101686 -0.103380
C4    C     C_R   0.496381 0.515500 0.898164 -0.103426
C5    C     C_R   0.401728 0.493623 0.127935 0.016915
C6    C     C_R   0.608597 0.524083 0.871787 0.016214
C7    C     C_R   0.288504 0.474706 0.103765 -0.180342
C8    C     C_R   0.721910 0.543797 0.895826 -0.181875
C9    C     C_R   0.629606 0.509902 0.126564 -0.148947
C10   C     C_R   0.380630 0.509186 0.873408 -0.148838
C11   C     C_R   0.508839 0.497738 0.353351 -0.104941
C12   C     C_R   0.490709 0.503489 0.646619 -0.119229
C13   C     C_R   0.387345 0.511715 0.975617 -0.117222
C14   C     C_R   0.623371 0.510082 0.024258 -0.117091
C15   C     C_R   0.618080 0.521286 0.973342 0.117449
C16   C     C_R   0.392598 0.499983 0.026466 0.117586
C17   C     C_R   0.500503 0.514941 0.949224 0.001112
C18   C     C_R   0.510121 0.506031 0.050627 0.001161
C19   C     C_R   0.272963 0.526824 0.950117 0.518331
C20   C     C_R   0.737759 0.495588 0.049839 0.518921
C21   C     C_R   0.268415 0.517578 0.899912 0.135795
C22   C     C_R   0.741975 0.503396 0.100094 0.136116
C23   C     C_R   0.502679 0.499026 0.406010 0.880328
C24   C     C_R   0.496936 0.500931 0.593966 0.874873
C25   C     C_R   0.284569 0.473598 0.054029 -0.128126
C26   C     C_R   0.726014 0.546767 0.945590 -0.128420
C27   C     C_R   0.063905 0.380922 0.486866 -0.150654
C28   C     C_R   0.936083 0.619165 0.512804 -0.149930
C29   C     C_R   0.935808 0.380910 0.486893 -0.170226
C30   C     C_R   0.064166 0.619158 0.512803 -0.164688
C31   C     C_R   0.872499 0.500019 0.499889 -0.032909
C32   C     C_R   0.127485 0.500017 0.499864 -0.031882
C33   C     C_R   0.576937 0.072908 0.530378 0.458025
C34   C     C_R   0.423004 0.927094 0.469645 0.463007
C35   C     C_R   0.423062 0.071122 0.469626 0.445850
C36   C     C_R   0.576844 0.928881 0.530411 0.469189
C37   C     C_R   0.405459 0.496285 0.178122 0.516863
C38   C     C_R   0.604613 0.518709 0.821595 0.516260
C39   C     C_R   0.628037 0.514858 0.177369 0.558787
C40   C     C_R   0.381916 0.501902 0.822659 0.554505
C41   C     C_R   0.568526 0.395732 0.276885 -0.107271
C42   C     C_R   0.443247 0.616250 0.722437 -0.126327
C43   C     C_R   0.565173 0.389465 0.326911 0.181579
C44   C     C_R   0.441114 0.617394 0.671964 0.205099
C45   C     C_R   0.460262 0.610321 0.328743 -0.218215
C46   C     C_R   0.537208 0.391174 0.671879 -0.221193
C47   C     C_R   0.464760 0.614976 0.278861 -0.096838
C48   C     C_R   0.537374 0.391700 0.721810 -0.103334
C49   C     C_R   0.518099 0.507354 0.252940 0.246852
C50   C     C_R   0.491069 0.504339 0.746996 0.259539
H1    H     H_    0.417362 0.694420 0.348100 0.216211
H2    H     H_    0.575302 0.303574 0.652968 0.215302
H3    H     H_    0.425792 0.701571 0.260231 0.160903
H4    H     H_    0.574033 0.304963 0.741030 0.156533
H5    H     H_    0.202270 0.457505 0.123200 0.191305
H6    H     H_    0.808064 0.560098 0.876247 0.190664
H7    H     H_    0.406470 0.700604 0.743349 0.149379
H8    H     H_    0.609786 0.312834 0.256355 0.159315
H9    H     H_    0.195983 0.445483 0.038298 0.230578
H10   H     H_    0.814692 0.575290 0.961125 0.231366
H11   H     H_    0.112814 0.288675 0.476392 0.203591
H12   H     H_    0.887193 0.711426 0.523278 0.203006
H13   H     H_    0.886683 0.288649 0.476444 0.174546
H14   H     H_    0.113277 0.711401 0.523283 0.174172
N1    N     N_R   0.517158 0.508574 0.201573 -0.354170
N2    N     N_R   0.492707 0.506036 0.798345 -0.354922
N3    N     N_R   0.500000 0.857200 0.500000 -0.246740
N4    N     N_R   0.500000 0.142800 0.500000 -0.245494
O1    O     O_R   0.316770 0.614620 0.500000 -0.592302
O2    O     O_R   0.683230 0.385380 0.500000 -0.588615
O3    O     O_R   0.683230 0.614620 0.500000 -0.589800
O4    O     O_R   0.316770 0.385380 0.500000 -0.588792
O5    O     O_R   0.500030 0.614650 0.428760 -0.578836
O6    O     O_R   0.499970 0.385350 0.571240 -0.580355
O7    O     O_R   0.499970 0.614650 0.571240 -0.563396
O8    O     O_R   0.500030 0.385350 0.428760 -0.588156
O9    O     O_2   0.298373 0.485253 0.203492 -0.550190
O10   O     O_2   0.711575 0.527235 0.796030 -0.548381
O11   O     O_2   0.274216 0.490495 0.797456 -0.526893
O12   O     O_2   0.735522 0.526108 0.202709 -0.525994
Zn1   Zn    Zn3+2 0.500000 0.653120 0.500000 1.061975
Zn2   Zn    Zn3+2 0.500000 0.346880 0.500000 1.051452
F1    F     F_    0.654127 0.142109 0.560740 -0.598435
F2    F     F_    0.345741 0.857895 0.439310 -0.599732
F3    F     F_    0.346059 0.138558 0.439215 -0.605582
F4    F     F_    0.653674 0.861449 0.560887 -0.591946
N5    N     N_2   0.385221 0.727527 0.646249 -0.273863
H15   H     H_    0.315047 0.699171 0.622597 0.222275
C51   C     C_3   0.366315 0.857869 0.669905 -0.706191
H16   H     H_    0.341718 0.935122 0.642551 0.239451
H17   H     H_    0.453567 0.891513 0.688362 0.254098
H18   H     H_    0.288202 0.851315 0.696068 0.231044
N6    N     N_2   0.621479 0.274867 0.349139 -0.307364
H19   H     H_    0.564426 0.220123 0.371614 0.277262
C52   C     C_3   0.746758 0.297710 0.367337 -0.720373
H20   H     H_    0.746049 0.374806 0.396858 0.220279
H21   H     H_    0.808676 0.333126 0.337940 0.264269
H22   H     H_    0.785144 0.201034 0.381531 0.238781
N7    N     N_2   0.149966 0.525012 0.876402 -0.237249
H23   H     H_    0.094680 0.604382 0.888427 0.261801
C53   C     C_3   0.082587 0.397303 0.874730 -0.615064
H24   H     H_    0.996865 0.408917 0.852460 0.240995
H25   H     H_    0.054829 0.366660 0.911605 0.244823
H26   H     H_    0.141399 0.316171 0.858196 0.246293
N8    N     N_2   0.860339 0.495900 0.123669 -0.237187
H27   H     H_    0.916075 0.417226 0.111380 0.262257
C54   C     C_3   0.927092 0.623935 0.125928 -0.612746
H28   H     H_    0.012954 0.611954 0.148097 0.240825
H29   H     H_    0.867917 0.704077 0.142872 0.247042
H30   H     H_    0.954596 0.656164 0.089201 0.244846
F5    F     F_    0.165014 0.561971 0.972685 -0.683800
F6    F     F_    0.846206 0.462214 0.027315 -0.684673

loop_
_geom_bond_atom_site_label_1
_geom_bond_atom_site_label_2
_ccdc_geom_bond_type
N5    H15   S    
C29   H13   S    
N6    H19   S    
C5    C37   A    
C27   C29   A    
C8    C26   A    
C14   C18   A    
C52   H20   S    
C7    H5    S    
C23   O8    A    
C8    H6    S    
C36   N3    A    
C47   C49   A    
C48   H4    S    
N8    C54   S    
C53   H24   S    
C49   N1    S    
C19   C21   A    
O6    Zn2   S    
C41   H8    S    
C30   H14   S    
C21   N7    S    
C9    C22   A    
C45   H1    S    
C46   H2    S    
C9    C39   A    
C33   C36   A    
C3    C18   A    
C10   C40   A    
C34   C35   A    
C41   C49   A    
C27   H11   S    
C20   F6    S    
C38   N2    A    
C37   N1    A    
C54   H28   S    
C6    C38   A    
C11   C43   A    
C51   H17   S    
C44   N5    S    
C41   C43   A    
C47   H3    S    
C48   C50   A    
N6    C52   S    
C40   N2    A    
C39   N1    A    
C34   F2    S    
C23   O5    A    
C42   H7    S    
O5    Zn1   S    
C45   C47   A    
C10   C21   A    
C46   C48   A    
C52   H22   S    
C1    O4    A    
C13   C19   A    
C14   C20   A    
C4    C6    A    
O8    Zn2   S    
C5    C7    A    
O7    Zn1   S    
C15   C26   A    
C6    C8    A    
C38   O10   S    
C36   F4    S    
C37   O9    S    
C1    C32   S    
C1    O1    A    
C2    C31   S    
C3    C9    A    
C33   F1    S    
N7    H23   S    
C40   O11   S    
C16   C18   A    
C51   H18   S    
C50   N2    S    
C42   C50   A    
C4    C17   A    
C12   C46   A    
N7    C53   S    
C20   C22   A    
N3    Zn1   S    
C53   H26   S    
N5    C51   S    
C54   H30   S    
C11   C45   A    
C4    C10   A    
C2    O3    A    
C16   C25   A    
C15   C17   A    
C27   C32   A    
C28   C31   A    
C3    C5    A    
C34   N3    A    
C52   H21   S    
C24   O7    A    
C19   F5    S    
C22   N8    S    
N8    H27   S    
C12   C24   S    
C7    C25   A    
C13   C17   A    
N4    Zn2   S    
C39   O12   S    
C28   C30   A    
C42   C44   A    
C29   C31   A    
C30   C32   A    
C35   F3    S    
C24   O6    A    
C54   H29   S    
C35   N4    A    
C11   C23   S    
C43   N6    S    
O2    Zn2   S    
O1    Zn1   S    
C53   H25   S    
C13   C16   A    
C14   C15   A    
C12   C44   A    
C25   H9    S    
C51   H16   S    
C2    O2    A    
C26   H10   S    
O4    Zn2   S    
C33   N4    A    
O3    Zn1   S    
C28   H12   S    
