data_mof_unit_15043.cif
_audit_creation_date              2012-12-11T17:00:22-0500
_audit_creation_method            fapswitch 2.2
_symmetry_space_group_name_H-M    P1
_symmetry_Int_Tables_number       1
_space_group_crystal_system       triclinic
_cell_length_a                    6.977013
_cell_length_b                    13.793944
_cell_length_c                    20.255477
_cell_angle_alpha                 103.360297
_cell_angle_beta                  89.679336
_cell_angle_gamma                 89.872759
_cell_volume                      1896.59765344

loop_
_atom_site_label
_atom_site_type_symbol
_atom_type_description
_atom_site_fract_x
_atom_site_fract_y
_atom_site_fract_z
_atom_type_partial_charge
O1    O     O_R   0.506770 0.599700 0.449550 -0.542530
O2    O     O_R   0.179980 0.595740 0.587960 -0.547953
O3    O     O_R   0.004580 0.400300 0.550450 -0.538876
C1    C     C_R   0.347452 0.616549 0.615472 0.690985
O4    O     O_R   0.177380 0.611700 0.452380 -0.543899
O5    O     O_R   0.001970 0.416370 0.413900 -0.543328
C2    C     C_R   0.345609 0.635736 0.434999 0.696666
O6    O     O_R   0.509390 0.583630 0.586100 -0.538209
O7    O     O_3   0.337530 0.435890 0.487530 -0.372058
V1    V     V_3+5 0.064660 0.511890 0.502310 1.409148
O8    O     O_R   0.671950 0.404260 0.412040 -0.541696
C3    C     C_R   0.841722 0.386005 0.383950 0.697125
O9    O     O_R   0.674540 0.388300 0.547620 -0.541357
C4    C     C_R   0.843333 0.363241 0.565088 0.691453
V2    V     V_3+5 0.564030 0.488110 0.497690 1.414170
O10   O     O_3   0.841030 0.564110 0.512470 -0.373819
C5    C     C_R   0.893463 0.114107 0.607816 -0.163134
H1    H     H_    0.890243 0.166080 0.515962 0.106374
H2    H     H_    0.916511 0.038385 0.579454 0.125622
C6    C     C_R   0.853142 0.286343 0.604132 -0.026836
C7    C     C_R   0.837035 0.312649 0.930738 -0.166024
C8    C     C_R   0.822172 0.387972 0.895892 -0.123451
C9    C     C_R   0.828557 0.365765 0.825209 -0.141301
C10   C     C_R   0.850897 0.266309 0.787022 0.072979
C11   C     C_R   0.867757 0.189572 0.823262 0.006592
C12   C     C_R   0.857506 0.240772 0.714358 0.034475
C13   C     C_R   0.881570 0.138978 0.679392 0.066868
C14   C     C_R   0.897143 0.064346 0.716576 0.265719
C15   C     C_R   0.891346 0.090320 0.787207 -0.221712
C16   C     C_R   0.842169 0.313196 0.674997 -0.193821
C17   C     C_R   0.879467 0.187077 0.570818 -0.171756
C18   C     C_R   0.859676 0.213657 0.895320 -0.045526
H3    H     H_    0.823142 0.391364 0.697526 0.085495
H4    H     H_    0.830288 0.331575 0.985699 0.094411
H5    H     H_    0.815579 0.428515 0.802322 0.100818
H6    H     H_    0.804782 0.464478 0.923924 0.116455
H7    H     H_    0.904764 0.031047 0.813814 0.128746
C19   C     C_R   0.691836 0.210812 0.219849 0.222921
C20   C     C_R   0.857377 0.199870 0.179033 -0.108588
C21   C     C_R   0.012326 0.262291 0.204002 -0.179314
H8    H     H_    0.128345 0.268678 0.169979 0.123509
C22   C     C_R   0.011768 0.321457 0.271106 -0.176018
H9    H     H_    0.129096 0.371901 0.287734 0.131171
C23   C     C_R   0.853406 0.321194 0.314539 -0.116888
C24   C     C_R   0.692313 0.268861 0.286708 0.114343
C25   C     C_3   0.507993 0.318308 0.280107 -0.418934
C26   C     C_3   0.509754 0.261794 0.207668 -0.492884
H10   H     H_    0.519146 0.400361 0.286066 0.169330
H11   H     H_    0.396831 0.293503 0.312024 0.183765
H12   H     H_    0.526243 0.309682 0.170697 0.166812
H13   H     H_    0.387748 0.212004 0.199517 0.207875
C27   C     C_R   0.505292 0.749788 0.704621 0.097966
C28   C     C_R   0.350602 0.686174 0.683346 -0.121271
C29   C     C_R   0.192903 0.693276 0.728101 -0.174360
H14   H     H_    0.071149 0.644884 0.714045 0.131834
C30   C     C_R   0.196120 0.757952 0.793142 -0.176718
H15   H     H_    0.076691 0.757961 0.827314 0.130312
C31   C     C_R   0.357922 0.816751 0.815645 -0.118426
C32   C     C_R   0.509278 0.813077 0.769289 0.110104
C33   C     C_3   0.715763 0.791625 0.777818 -0.400462
C34   C     C_3   0.711450 0.723540 0.707355 -0.394241
H16   H     H_    0.738684 0.751010 0.818589 0.161553
H17   H     H_    0.806831 0.858351 0.781064 0.199209
H18   H     H_    0.732799 0.643571 0.707218 0.158910
H19   H     H_    0.798635 0.751226 0.669517 0.188498
C35   C     C_R   0.371116 0.883418 0.394109 -0.146777
H20   H     H_    0.372155 0.831552 0.485713 0.099876
H21   H     H_    0.408136 0.007142 0.316177 0.124744
H22   H     H_    0.384596 0.960641 0.421232 0.113944
C36   C     C_R   0.352629 0.711183 0.396603 -0.020001
C37   C     C_R   0.326150 0.687367 0.070788 -0.165947
C38   C     C_R   0.301746 0.612422 0.105462 -0.115086
C39   C     C_R   0.305838 0.633957 0.176030 -0.144802
C40   C     C_R   0.336869 0.732184 0.214423 0.072641
C41   C     C_R   0.361795 0.809729 0.178924 0.002426
C42   C     C_R   0.345250 0.755877 0.287123 0.073544
C43   C     C_R   0.364371 0.856736 0.323076 0.123416
C44   C     C_R   0.385887 0.930650 0.288291 -0.233889
C45   C     C_R   0.393451 0.907585 0.218209 -0.014121
C46   C     C_R   0.340325 0.683252 0.325885 -0.216002
C47   C     C_R   0.365308 0.810619 0.430797 -0.176511
C48   C     C_R   0.355603 0.785924 0.105921 -0.076353
H23   H     H_    0.331208 0.604637 0.303044 0.085697
H24   H     H_    0.319577 0.668456 0.015845 0.095745
H25   H     H_    0.281650 0.571959 0.198999 0.102340
H26   H     H_    0.277416 0.536664 0.077298 0.114121
O11   O     O_R   0.203450 0.916320 0.913910 -0.544244
O12   O     O_R   0.535520 0.888300 0.047620 -0.533501
O13   O     O_R   0.710860 0.083650 0.086100 -0.534676
C49   C     C_R   0.366451 0.861162 0.064149 0.713207
O14   O     O_R   0.532860 0.904250 0.912040 -0.545489
O15   O     O_R   0.708190 0.099710 0.949550 -0.543283
C50   C     C_R   0.365067 0.882549 0.884844 0.684735
O16   O     O_R   0.206120 0.900260 0.050460 -0.520883
O17   O     O_3   0.375280 0.064080 0.012470 -0.392312
V3    V     V_3+5 0.648180 0.988110 0.997690 1.442187
O18   O     O_R   0.038220 0.111740 0.952370 -0.546533
C51   C     C_R   0.869429 0.136796 0.934869 0.660019
O19   O     O_R   0.040880 0.095790 0.087940 -0.530864
C52   C     C_R   0.870234 0.123674 0.112859 0.771300
V4    V     V_3+5 0.148800 0.011950 0.002300 1.435267
O20   O     O_3   0.871820 0.935920 0.987530 -0.371108
N1    N     N_2   0.915874 0.961548 0.684223 -0.536044
H27   H     H_    0.827510 0.936653 0.643240 0.248620
C53   C     C_3   0.111533 0.926674 0.673070 -0.552645
H28   H     H_    0.112377 0.845559 0.649735 0.198778
H29   H     H_    0.189102 0.939651 0.722057 0.215462
H30   H     H_    0.186738 0.965739 0.638291 0.189442
C54   C     C_2   0.456809 0.987441 0.189260 0.716795
O21   O     O_2   0.627989 0.003680 0.186859 -0.559767
O22   O     O_R   0.321496 0.041455 0.162916 -0.659608
H31   H     H_    0.381802 0.076554 0.129800 0.309320

loop_
_geom_bond_atom_site_label_1
_geom_bond_atom_site_label_2
_ccdc_geom_bond_type
O12   V3    S    
V4    O20   S    
V3    O20   S    
C1    C28   S    
C39   C40   A    
C29   H14   S    
O22   H31   S    
C1    O6    A    
C2    C36   S    
O18   C51   A    
O15   C51   A    
C6    C16   A    
C28   C29   A    
C23   C24   A    
C53   H29   S    
C25   H11   S    
C12   C13   A    
C40   C42   A    
C33   H17   S    
C14   C15   A    
C31   C50   S    
C10   C12   A    
C27   C34   S    
C54   O22   S    
O5    C3    A    
C19   C20   A    
C35   H22   S    
V2    O10   S    
O15   V3    S    
C30   H15   S    
C33   H16   S    
C36   C47   A    
C19   C24   A    
O14   V3    S    
O11   V4    S    
O8    V2    S    
O17   V3    S    
O16   V4    S    
C18   C51   S    
C9    C10   A    
O1    V2    S    
O7    V1    S    
C37   C48   A    
C11   C18   A    
C21   C22   A    
C32   C33   S    
O9    C4    A    
C11   C15   A    
C22   C23   A    
C46   H23   S    
C53   H30   S    
C49   O16   A    
C26   H12   S    
C25   H10   S    
H21   C44   S    
C7    C18   A    
C29   C30   A    
C40   C41   A    
C45   C54   S    
O13   C52   A    
C36   C46   A    
C5    C13   A    
C4    C6    S    
C10   C11   A    
C20   C21   A    
O4    C2    A    
C44   C45   A    
C26   H13   S    
C7    H4    S    
C31   C32   A    
C43   C44   A    
C33   C34   S    
C34   H18   S    
O2    C1    A    
C27   C32   A    
C34   H19   S    
O14   C50   A    
O19   C52   A    
N1    C53   S    
C42   C43   A    
C39   H25   S    
C19   C26   S    
O3    C4    A    
C21   H8    S    
O19   V4    S    
O12   C49   A    
H20   C47   S    
O6    V2    S    
C9    H5    S    
O9    V2    S    
C5    C17   A    
C22   H9    S    
O2    V1    S    
C13   C14   A    
C27   C28   A    
C37   H24   S    
C35   C43   A    
C25   C26   S    
C16   H3    S    
O1    C2    A    
C42   C46   A    
C38   C39   A    
O5    V1    S    
C38   H26   S    
O8    C3    A    
C41   C48   A    
C12   C16   A    
C8    H6    S    
C53   H28   S    
C48   C49   S    
O13   V3    S    
O7    V2    S    
O4    V1    S    
C3    C23   S    
O3    V1    S    
V1    O10   S    
C54   O21   D    
C35   C47   A    
C14   N1    S    
C20   C52   S    
O11   C50   A    
C5    H2    S    
C30   C31   A    
C24   C25   S    
C37   C38   A    
C15   H7    S    
N1    H27   S    
C8    C9    A    
H1    C17   S    
C7    C8    A    
C41   C45   A    
O18   V4    S    
O17   V4    S    
C6    C17   A    
