data_mof_unit_5667.cif
_audit_creation_date              2012-10-26T17:12:48-0400
_audit_creation_method            fapswitch 2.2
_symmetry_space_group_name_H-M    P1
_symmetry_Int_Tables_number       1
_space_group_crystal_system       triclinic
_cell_length_a                    27.858078
_cell_length_b                    18.697852
_cell_length_c                    16.845378
_cell_angle_alpha                 89.96908
_cell_angle_beta                  62.728014
_cell_angle_gamma                 89.860264
_cell_volume                      7799.13627269

loop_
_atom_site_label
_atom_site_type_symbol
_atom_type_description
_atom_site_fract_x
_atom_site_fract_y
_atom_site_fract_z
_atom_type_partial_charge
C1    C     C_R   0.296200 0.731253 0.328575 0.829630
C2    C     C_R   0.703946 0.269015 0.671593 0.833275
C3    C     C_R   0.703852 0.731124 0.671603 0.810085
C4    C     C_R   0.296223 0.268768 0.328385 0.829554
C5    C     C_R   0.796134 0.231133 0.328388 0.825458
C6    C     C_R   0.207680 0.776934 0.668944 0.819003
C7    C     C_R   0.208415 0.221768 0.668123 0.828144
C8    C     C_R   0.796003 0.769115 0.328431 0.837881
C9    C     C_R   0.414104 0.001555 0.451079 -0.077387
C10   C     C_R   0.615880 0.000970 0.453980 -0.069706
C11   C     C_R   0.902082 0.501017 0.487227 -0.081771
C12   C     C_R   0.097005 0.498850 0.514969 -0.078123
C13   C     C_R   0.620601 0.872448 0.435845 0.358705
C14   C     C_R   0.427365 0.125518 0.400034 0.349421
C15   C     C_R   0.403927 0.878917 0.504232 0.371569
C16   C     C_R   0.627128 0.127214 0.418400 0.350142
C17   C     C_R   0.073681 0.382628 0.589379 0.342382
C18   C     C_R   0.926088 0.616013 0.410486 0.350392
C19   C     C_R   0.875114 0.389382 0.570472 0.349228
C20   C     C_R   0.123346 0.611199 0.432828 0.348718
C21   C     C_R   0.230367 0.786779 0.946062 0.021878
C22   C     C_R   0.782626 0.239694 0.043489 0.024543
C23   C     C_R   0.780900 0.763433 0.044714 0.024120
C24   C     C_R   0.233287 0.208018 0.942421 0.022905
C25   C     C_R   0.718266 0.261878 0.955932 0.022322
C26   C     C_R   0.290982 0.755696 0.037942 0.022078
C27   C     C_R   0.293228 0.241027 0.035072 0.024022
C28   C     C_R   0.716576 0.740739 0.957163 0.022155
C29   C     C_R   0.284667 0.762969 0.898373 0.051468
C30   C     C_R   0.733718 0.278315 0.086529 0.048285
C31   C     C_R   0.732330 0.724341 0.087544 0.049457
C32   C     C_R   0.287606 0.231297 0.894424 0.045495
C33   C     C_R   0.767252 0.223412 0.912820 0.043267
C34   C     C_R   0.240324 0.790228 0.082285 0.044894
C35   C     C_R   0.243006 0.205932 0.079123 0.046993
C36   C     C_R   0.764950 0.780199 0.914537 0.046590
C37   C     C_R   0.313918 0.742900 0.945258 0.046908
C38   C     C_R   0.700100 0.285999 0.044560 0.048416
C39   C     C_R   0.698738 0.716318 0.045559 0.046510
C40   C     C_R   0.316313 0.253019 0.941999 0.044951
C41   C     C_R   0.800843 0.215679 0.954823 0.047515
C42   C     C_R   0.207721 0.798741 0.038808 0.045814
C43   C     C_R   0.210602 0.196900 0.035429 0.044145
C44   C     C_R   0.798575 0.788174 0.956461 0.045852
C45   C     C_R   0.145253 0.825356 0.947526 0.065693
C46   C     C_R   0.861828 0.185036 0.047091 0.060484
C47   C     C_R   0.860458 0.817220 0.047763 0.061270
C48   C     C_R   0.147546 0.171270 0.945108 0.065822
C49   C     C_R   0.638715 0.315772 0.952675 0.061800
C50   C     C_R   0.366454 0.692907 0.045449 0.061552
C51   C     C_R   0.367319 0.306275 0.043856 0.062094
C52   C     C_R   0.637964 0.685013 0.953097 0.060978
C53   C     C_R   0.117441 0.848311 0.898726 -0.124821
C54   C     C_R   0.886033 0.156663 0.098954 -0.122671
C55   C     C_R   0.885370 0.844306 0.099218 -0.125085
C56   C     C_R   0.118902 0.149589 0.897273 -0.126528
C57   C     C_R   0.614189 0.343611 0.901001 -0.122694
C58   C     C_R   0.387412 0.658813 0.098838 -0.124047
C59   C     C_R   0.387655 0.340965 0.098018 -0.126332
C60   C     C_R   0.613938 0.656513 0.901058 -0.123375
C61   C     C_R   0.138219 0.829701 0.808839 -0.274261
C62   C     C_R   0.864843 0.175769 0.189112 -0.276313
C63   C     C_R   0.864538 0.824576 0.189125 -0.269452
C64   C     C_R   0.139496 0.168279 0.807504 -0.258881
C65   C     C_R   0.635239 0.324280 0.810945 -0.277271
C66   C     C_R   0.364706 0.675408 0.189886 -0.273826
C67   C     C_R   0.364665 0.324588 0.189243 -0.265530
C68   C     C_R   0.635183 0.675596 0.810851 -0.274684
C69   C     C_R   0.189156 0.798469 0.762988 -0.114924
C70   C     C_R   0.820191 0.221328 0.229924 -0.116215
C71   C     C_R   0.819771 0.779442 0.230017 -0.114018
C72   C     C_R   0.190851 0.198094 0.760977 -0.117988
C73   C     C_R   0.680074 0.279050 0.770009 -0.117969
C74   C     C_R   0.321074 0.722724 0.230191 -0.115721
C75   C     C_R   0.321363 0.277025 0.229458 -0.115339
C76   C     C_R   0.679555 0.721437 0.770222 -0.121627
C77   C     C_R   0.221969 0.790369 0.807246 0.056184
C78   C     C_R   0.795414 0.248751 0.178178 0.071762
C79   C     C_R   0.794569 0.752971 0.178545 0.071124
C80   C     C_R   0.224608 0.203710 0.803769 0.054654
C81   C     C_R   0.705200 0.252205 0.821525 0.064795
C82   C     C_R   0.298266 0.753891 0.177615 0.062547
C83   C     C_R   0.299404 0.244982 0.176103 0.058999
C84   C     C_R   0.703836 0.749363 0.822341 0.061375
C85   C     C_R   0.200841 0.630692 0.513290 0.889384
C86   C     C_R   0.798959 0.369264 0.487225 0.875364
C87   C     C_R   0.803682 0.631781 0.471066 0.866392
C88   C     C_R   0.196190 0.368167 0.529290 0.881146
C89   C     C_R   0.702488 0.131496 0.507601 0.861639
C90   C     C_R   0.301100 0.869363 0.481856 0.827732
C91   C     C_R   0.304030 0.132125 0.470023 0.851108
C92   C     C_R   0.701635 0.868868 0.510085 0.850981
C93   C     C_R   0.198997 0.800314 0.900377 0.077075
C94   C     C_R   0.813300 0.224359 0.089770 0.074491
C95   C     C_R   0.811932 0.778140 0.090586 0.073115
C96   C     C_R   0.201704 0.194712 0.897128 0.077368
C97   C     C_R   0.687402 0.276797 0.909840 0.073152
C98   C     C_R   0.318592 0.733940 0.087139 0.075509
C99   C     C_R   0.320059 0.264288 0.085101 0.077092
C100  C     C_R   0.686104 0.724907 0.910692 0.075856
C101  C     C_R   0.121642 0.826847 0.041471 -0.175215
C102  C     C_R   0.884320 0.176762 0.953641 -0.172546
C103  C     C_R   0.882291 0.826373 0.954502 -0.175203
C104  C     C_R   0.124206 0.170347 0.038979 -0.173176
C105  C     C_R   0.616384 0.324226 0.046094 -0.176697
C106  C     C_R   0.391696 0.688572 0.951652 -0.183911
C107  C     C_R   0.392554 0.310775 0.949797 -0.182848
C108  C     C_R   0.615657 0.676384 0.046490 -0.176709
C109  C     C_R   0.152471 0.815651 0.086002 -0.215218
C110  C     C_R   0.853837 0.189323 0.909011 -0.214465
C111  C     C_R   0.851328 0.814887 0.910545 -0.212354
C112  C     C_R   0.155310 0.180861 0.082994 -0.212846
C113  C     C_R   0.647064 0.312167 0.090495 -0.214044
C114  C     C_R   0.365723 0.711581 0.902866 -0.205440
C115  C     C_R   0.367415 0.285822 0.900249 -0.206734
C116  C     C_R   0.646084 0.689149 0.091129 -0.212474
C117  C     C_R   0.277522 0.775173 0.761436 -0.174424
C118  C     C_R   0.753824 0.300569 0.210045 -0.173333
C119  C     C_R   0.753120 0.701221 0.210226 -0.160555
C120  C     C_R   0.280737 0.215741 0.756532 -0.179427
C121  C     C_R   0.747033 0.200723 0.789537 -0.169165
C122  C     C_R   0.256201 0.805225 0.210761 -0.170716
C123  C     C_R   0.257916 0.193197 0.209033 -0.180259
C124  C     C_R   0.744775 0.801787 0.790848 -0.179639
C125  C     C_R   0.307897 0.760781 0.805179 -0.215141
C126  C     C_R   0.722211 0.312704 0.167312 -0.236457
C127  C     C_R   0.721297 0.689496 0.167848 -0.225054
C128  C     C_R   0.311167 0.231132 0.800645 -0.206004
C129  C     C_R   0.778790 0.188979 0.832069 -0.228905
C130  C     C_R   0.225538 0.819096 0.166929 -0.228525
C131  C     C_R   0.228090 0.177781 0.164198 -0.219027
C132  C     C_R   0.776022 0.814759 0.834011 -0.213640
C133  C     C_R   0.927771 0.900598 0.064935 0.811479
C134  C     C_R   0.072849 0.098695 0.934595 0.808396
C135  C     C_R   0.072376 0.900747 0.935054 0.809316
C136  C     C_R   0.928000 0.099695 0.064768 0.813779
C137  C     C_R   0.428420 0.399696 0.064441 0.807338
C138  C     C_R   0.572038 0.599603 0.935177 0.809350
C139  C     C_R   0.572054 0.400363 0.935210 0.810618
C140  C     C_R   0.428353 0.600239 0.064606 0.809048
C141  C     C_R   0.073850 0.613093 0.428155 0.003550
C142  C     C_R   0.924179 0.388008 0.576765 0.003854
C143  C     C_R   0.975216 0.615564 0.416925 0.007049
C144  C     C_R   0.023584 0.384416 0.586018 0.016910
C145  C     C_R   0.577607 0.128379 0.412481 -0.003467
C146  C     C_R   0.459589 0.874447 0.476961 -0.004203
C147  C     C_R   0.477475 0.127493 0.403866 -0.000929
C148  C     C_R   0.567536 0.871436 0.446172 -0.008825
C149  C     C_R   0.060378 0.671305 0.389285 -0.202637
C150  C     C_R   0.935950 0.332289 0.621171 -0.201560
C151  C     C_R   0.011889 0.672716 0.384244 -0.199506
C152  C     C_R   0.984222 0.331079 0.626895 -0.188203
C153  C     C_R   0.556974 0.191229 0.393024 -0.201680
C154  C     C_R   0.484728 0.809085 0.477031 -0.211573
C155  C     C_R   0.508069 0.190677 0.388162 -0.202558
C156  C     C_R   0.538977 0.807304 0.458042 -0.209425
C157  C     C_R   0.987234 0.557848 0.459445 0.024195
C158  C     C_R   0.011955 0.441614 0.542275 0.020503
C159  C     C_R   0.036334 0.556879 0.465679 0.025520
C160  C     C_R   0.962590 0.442949 0.536763 0.023574
C161  C     C_R   0.497103 0.064927 0.425526 0.027585
C162  C     C_R   0.542075 0.936639 0.447394 0.031512
C163  C     C_R   0.547469 0.065141 0.427964 0.028060
C164  C     C_R   0.489826 0.937396 0.454361 0.028533
C165  C     C_R   0.466855 0.001509 0.443955 -0.064797
C166  C     C_R   0.568948 0.001024 0.441687 -0.065899
C167  C     C_R   0.950688 0.500596 0.494383 -0.058553
C168  C     C_R   0.048584 0.498846 0.507131 -0.059029
C169  C     C_R   0.382786 0.937912 0.476975 0.035723
C170  C     C_R   0.640829 0.066186 0.455310 0.032894
C171  C     C_R   0.638872 0.935135 0.461213 0.034595
C172  C     C_R   0.392355 0.065412 0.435171 0.030930
C173  C     C_R   0.867566 0.440912 0.515475 0.026857
C174  C     C_R   0.131480 0.559118 0.486677 0.027289
C175  C     C_R   0.111879 0.438071 0.549148 0.035625
C176  C     C_R   0.887315 0.561783 0.452945 0.032102
C177  C     C_R   0.331454 0.936550 0.476398 -0.084420
C178  C     C_R   0.680254 0.065661 0.488285 -0.084366
C179  C     C_R   0.679307 0.935274 0.491280 -0.091680
C180  C     C_R   0.336709 0.065744 0.453499 -0.076346
C181  C     C_R   0.824830 0.437177 0.491369 -0.079893
C182  C     C_R   0.174591 0.562775 0.509940 -0.087271
C183  C     C_R   0.165131 0.435590 0.541411 -0.072137
C184  C     C_R   0.834367 0.564274 0.459808 -0.072844
C185  C     C_R   0.309071 0.000913 0.467406 -0.314460
C186  C     C_R   0.697943 0.000484 0.506264 -0.314349
C187  C     C_R   0.806777 0.500205 0.469559 -0.316015
C188  C     C_R   0.192727 0.499712 0.531508 -0.307504
Cu1   Cu    Cu3+1 0.209920 0.785290 0.495070 0.963671
Cu2   Cu    Cu3+1 0.790080 0.214710 0.504930 0.965584
Cu3   Cu    Cu3+1 0.790080 0.785290 0.504930 0.970068
Cu4   Cu    Cu3+1 0.209920 0.214710 0.495070 0.935806
Cu5   Cu    Cu3+1 0.709920 0.285290 0.495070 0.964865
Cu6   Cu    Cu3+1 0.290080 0.714710 0.504930 0.962465
Cu7   Cu    Cu3+1 0.290080 0.285290 0.504930 0.969611
Cu8   Cu    Cu3+1 0.709920 0.714710 0.495070 0.958565
Cu9   Cu    Cu3+1 0.495240 0.500000 0.924150 0.932543
Cu10  Cu    Cu3+1 0.504760 0.500000 0.075850 0.927039
Cu11  Cu    Cu3+1 0.995240 1.000000 0.924150 0.928912
Cu12  Cu    Cu3+1 0.004760 1.000000 0.075850 0.933572
H1    H     H_    0.557067 0.756277 0.459397 0.142339
H2    H     H_    0.493495 0.241014 0.375699 0.144909
H3    H     H_    0.462690 0.759188 0.490538 0.146113
H4    H     H_    0.577438 0.241945 0.384214 0.141946
H5    H     H_    0.989829 0.287331 0.663749 0.142754
H6    H     H_    0.003051 0.720135 0.356439 0.149069
H7    H     H_    0.908549 0.287952 0.650505 0.149963
H8    H     H_    0.086319 0.717637 0.365050 0.149401
H9    H     H_    0.268373 0.000820 0.474638 0.190125
H10   H     H_    0.727162 0.000475 0.532024 0.185138
H11   H     H_    0.769779 0.499896 0.463257 0.189244
H12   H     H_    0.229922 0.500003 0.537195 0.191451
H13   H     H_    0.115305 0.842201 0.773158 0.188674
H14   H     H_    0.882255 0.152755 0.229135 0.190885
H15   H     H_    0.882388 0.846697 0.228883 0.192223
H16   H     H_    0.115890 0.157401 0.772615 0.189599
H17   H     H_    0.617559 0.346859 0.771087 0.190148
H18   H     H_    0.380079 0.649076 0.230916 0.190696
H19   H     H_    0.379572 0.351343 0.230559 0.190916
H20   H     H_    0.618030 0.652360 0.770659 0.190544
H21   H     H_    0.078785 0.834312 0.082401 0.166328
H22   H     H_    0.926050 0.162701 0.912476 0.171858
H23   H     H_    0.923958 0.839965 0.912665 0.173150
H24   H     H_    0.081305 0.164178 0.080344 0.168561
H25   H     H_    0.574613 0.337960 0.087465 0.170752
H26   H     H_    0.432503 0.669511 0.913425 0.170838
H27   H     H_    0.432833 0.331360 0.911830 0.171975
H28   H     H_    0.574088 0.661933 0.087723 0.172673
H29   H     H_    0.131849 0.817698 0.158180 0.136515
H30   H     H_    0.873245 0.180441 0.837681 0.134249
H31   H     H_    0.870348 0.824462 0.839385 0.140368
H32   H     H_    0.134780 0.179433 0.155193 0.141894
H33   H     H_    0.627743 0.321150 0.161807 0.134866
H34   H     H_    0.387103 0.702264 0.831955 0.136122
H35   H     H_    0.388535 0.294912 0.829208 0.138069
H36   H     H_    0.626842 0.679837 0.162352 0.137488
H37   H     H_    0.299814 0.776268 0.690809 0.226744
H38   H     H_    0.745564 0.334628 0.266372 0.174491
H39   H     H_    0.745320 0.666573 0.265858 0.170608
H40   H     H_    0.302827 0.211101 0.684855 0.172444
H41   H     H_    0.755265 0.166365 0.733484 0.173609
H42   H     H_    0.246360 0.837188 0.269292 0.175335
H43   H     H_    0.247843 0.162184 0.268337 0.177688
H44   H     H_    0.752684 0.835685 0.734513 0.173989
H45   H     H_    0.350144 0.750086 0.763344 0.132248
H46   H     H_    0.690145 0.351736 0.196818 0.139955
H47   H     H_    0.689551 0.650213 0.197103 0.136657
H48   H     H_    0.353667 0.240522 0.759293 0.138242
H49   H     H_    0.810917 0.150035 0.802542 0.140274
H50   H     H_    0.191961 0.855861 0.198057 0.140888
H51   H     H_    0.194880 0.140650 0.195147 0.140344
H52   H     H_    0.807519 0.854395 0.804934 0.139144
O1    O     O_R   0.255040 0.869590 0.478480 -0.610039
O2    O     O_R   0.744960 0.130410 0.521520 -0.610634
O3    O     O_R   0.744960 0.869590 0.521520 -0.607028
O4    O     O_R   0.255040 0.130410 0.478480 -0.612698
O5    O     O_R   0.755040 0.369590 0.478480 -0.613050
O6    O     O_R   0.244960 0.630410 0.521520 -0.600694
O7    O     O_R   0.244960 0.369590 0.521520 -0.596235
O8    O     O_R   0.755040 0.630410 0.478480 -0.610503
O9    O     O_R   0.182050 0.796550 0.624440 -0.590798
O10   O     O_R   0.817950 0.203450 0.375560 -0.596778
O11   O     O_R   0.817950 0.796550 0.375560 -0.576936
O12   O     O_R   0.182050 0.203450 0.624440 -0.579659
O13   O     O_R   0.682050 0.296550 0.624440 -0.593317
O14   O     O_R   0.317950 0.703450 0.375560 -0.596251
O15   O     O_R   0.317950 0.296550 0.375560 -0.564097
O16   O     O_R   0.682050 0.703450 0.624440 -0.585303
O17   O     O_R   0.250530 0.763330 0.367210 -0.575175
O18   O     O_R   0.749470 0.236670 0.632790 -0.573043
O19   O     O_R   0.749470 0.763330 0.632790 -0.600484
O20   O     O_R   0.250530 0.236670 0.367210 -0.609561
O21   O     O_R   0.750530 0.263330 0.367210 -0.566501
O22   O     O_R   0.249470 0.736670 0.632790 -0.591892
O23   O     O_R   0.249470 0.263330 0.632790 -0.600402
O24   O     O_R   0.750530 0.736670 0.367210 -0.575712
O25   O     O_R   0.177260 0.690030 0.513710 -0.536019
O26   O     O_R   0.822740 0.309970 0.486290 -0.541088
O27   O     O_R   0.822740 0.690030 0.486290 -0.532527
O28   O     O_R   0.177260 0.309970 0.513710 -0.562152
O29   O     O_R   0.677260 0.190030 0.513710 -0.538537
O30   O     O_R   0.322740 0.809970 0.486290 -0.536617
O31   O     O_R   0.322740 0.190030 0.486290 -0.546194
O32   O     O_R   0.677260 0.809970 0.513710 -0.538195
O33   O     O_R   0.051640 0.926880 0.885090 -0.585538
O34   O     O_R   0.948360 0.073120 0.114910 -0.585428
O35   O     O_R   0.948360 0.926880 0.114910 -0.585627
O36   O     O_R   0.051640 0.073120 0.885090 -0.585593
O37   O     O_R   0.551640 0.426880 0.885090 -0.587329
O38   O     O_R   0.448360 0.573120 0.114910 -0.586825
O39   O     O_R   0.448360 0.426880 0.114910 -0.586555
O40   O     O_R   0.551640 0.573120 0.885090 -0.587519
O41   O     O_R   0.940620 0.926560 0.986760 -0.594060
O42   O     O_R   0.059380 0.073440 0.013240 -0.591836
O43   O     O_R   0.059380 0.926560 0.013240 -0.591380
O44   O     O_R   0.940620 0.073440 0.986760 -0.593208
O45   O     O_R   0.440620 0.426560 0.986760 -0.590091
O46   O     O_R   0.559380 0.573440 0.013240 -0.593282
O47   O     O_R   0.559380 0.426560 0.013240 -0.593154
O48   O     O_R   0.440620 0.573440 0.986760 -0.589666
O49   O     O_3   0.657103 0.819197 0.388586 -0.703611
H53   H     H_    0.641870 0.788517 0.357789 0.315861
O50   O     O_3   0.414189 0.177589 0.354980 -0.727718
H54   H     H_    0.447656 0.199839 0.309209 0.313945
O51   O     O_3   0.369012 0.836063 0.572760 -0.746588
H55   H     H_    0.388442 0.811954 0.602027 0.304042
O52   O     O_3   0.665580 0.179486 0.377640 -0.709307
H56   H     H_    0.660501 0.201418 0.328509 0.319221
O53   O     O_3   0.083236 0.332626 0.640804 -0.724003
H57   H     H_    0.073558 0.284993 0.626954 0.319141
O54   O     O_3   0.917079 0.664407 0.356648 -0.736050
H58   H     H_    0.951867 0.674992 0.303879 0.312673
O55   O     O_3   0.832029 0.346445 0.624035 -0.722749
H59   H     H_    0.832103 0.339657 0.682275 0.319360
O56   O     O_3   0.166315 0.654022 0.378401 -0.723528
H60   H     H_    0.164103 0.664289 0.322495 0.319266

loop_
_geom_bond_atom_site_label_1
_geom_bond_atom_site_label_2
_ccdc_geom_bond_type
C4    O20   A    
C85   C182  S    
C90   O30   A    
C9    C169  A    
C34   C42   A    
C154  H3    S    
C181  C187  A    
C114  H34   S    
Cu9   O45   S    
O49   H53   S    
C27   C99   A    
C170  C178  A    
Cu1   O17   S    
C68   H20   S    
C42   C109  A    
C24   C96   A    
C126  H46   S    
C33   C129  A    
C17   O53   S    
C62   C70   A    
Cu3   Cu8   S    
C89   O29   A    
C110  H30   S    
C103  H23   S    
Cu1   Cu6   S    
Cu4   O4    S    
C134  O36   A    
C135  O33   A    
C124  H44   S    
C155  H2    S    
C147  C155  A    
C143  C151  A    
C90   C177  S    
C117  H37   S    
Cu11  Cu12  S    
C11   C167  A    
C82   C98   A    
C149  C151  A    
C76   C84   A    
C73   C81   A    
C161  C163  A    
C162  C164  A    
Cu11  O33   S    
C129  H49   S    
Cu6   O22   S    
C84   C100  A    
Cu4   Cu7   S    
C140  O48   A    
C57   C65   A    
C37   C114  A    
C108  H28   S    
C27   C35   A    
C10   C171  A    
C55   C133  S    
C21   C29   A    
C81   C121  A    
C23   C31   A    
C24   C32   A    
C86   O5    A    
C5    C70   S    
O50   H54   S    
C146  C154  A    
Cu9   O40   S    
Cu10  O39   S    
C8    O24   A    
C63   C71   A    
C185  H9    S    
C36   C44   A    
C5    O21   A    
C139  O37   A    
C102  H22   S    
C12   C174  A    
C58   C140  S    
C176  C184  A    
C8    C71   S    
Cu5   O29   S    
C3    O16   A    
C48   C96   A    
Cu12  O42   S    
Cu7   O7    S    
Cu8   O32   S    
C56   C134  S    
C148  C162  A    
C183  C188  A    
C65   H17   S    
C188  H12   S    
C108  C116  A    
C21   C93   A    
C78   C94   A    
C23   C95   A    
C49   C97   A    
C21   C42   A    
C22   C41   A    
C92   O3    A    
C51   C107  A    
C24   C43   A    
Cu1   O1    S    
C82   C122  A    
C161  C165  A    
C17   C175  A    
C60   C138  S    
C18   C176  A    
C6    C69   S    
C29   C125  A    
C111  H31   S    
C69   C77   A    
Cu6   O14   S    
C31   C127  A    
C45   C93   A    
C174  C182  A    
C71   C79   A    
C179  C186  A    
C4    O15   A    
C121  H41   S    
C30   C38   A    
C11   C176  A    
C17   C144  A    
C1    C74   S    
C105  C113  A    
C18   C143  A    
C78   C118  A    
C36   C132  A    
C1    O17   A    
C66   C74   A    
C49   C57   A    
C124  C132  A    
C135  O43   A    
C136  O44   A    
C88   O7    A    
C59   C67   A    
C53   C61   A    
C141  C159  A    
C20   C174  A    
C55   C63   A    
C86   C181  S    
C56   C64   A    
C91   O31   A    
C105  H25   S    
C138  O46   A    
C35   C43   A    
Cu10  O46   S    
C45   C53   A    
C22   C94   A    
C171  C179  A    
C61   H13   S    
Cu2   O18   S    
C156  H1    S    
C149  H8    S    
C169  C177  A    
C131  H51   S    
C50   C98   A    
C7    C72   S    
C104  C112  A    
C145  C163  A    
C187  H11   S    
C146  C164  A    
C14   C147  A    
C52   C100  A    
C92   O32   A    
C79   C119  A    
C16   C145  A    
C178  C186  A    
C134  O42   A    
C25   C38   A    
C46   C94   A    
C27   C40   A    
C10   C166  A    
C91   C180  S    
C182  C188  A    
C89   C178  S    
C60   C68   A    
C2    C73   S    
C25   C97   A    
Cu9   O37   S    
O51   H55   S    
C89   O2    A    
Cu7   O23   S    
Cu8   O16   S    
C67   C75   A    
Cu7   O15   S    
C50   C106  A    
C22   C30   A    
C20   C141  A    
C15   C146  A    
C68   C76   A    
Cu4   O20   S    
C184  C187  A    
C41   C110  A    
C63   H15   S    
C32   C128  A    
C67   H19   S    
C72   C80   A    
C172  C180  A    
C86   O26   A    
Cu9   Cu10  S    
C6    O22   A    
C137  O45   A    
C140  O38   A    
C13   C171  A    
Cu11  O41   S    
Cu6   O30   S    
Cu3   O19   S    
C117  C125  A    
C104  H24   S    
C25   C33   A    
C119  C127  A    
C62   H14   S    
C125  H45   S    
Cu10  O47   S    
C157  C167  A    
C80   C120  A    
C158  C168  A    
C113  H33   S    
Cu11  O36   S    
Cu12  O35   S    
C164  C165  A    
C40   C115  A    
C101  C109  A    
C177  C185  A    
C57   C139  S    
C103  C111  A    
C4    C75   S    
C138  O40   A    
Cu2   Cu5   S    
C162  C166  A    
C109  H29   S    
C1    O14   A    
C53   C135  S    
Cu5   O5    S    
C14   O50   S    
C153  C155  A    
C137  O39   A    
C154  C156  A    
Cu8   O24   S    
C118  H38   S    
C173  C181  A    
O56   H60   S    
C157  C159  A    
C83   C99   A    
C158  C160  A    
C74   C82   A    
C123  H43   S    
C2    O18   A    
C47   C103  A    
C141  C149  A    
O52   H56   S    
C50   C58   A    
C163  C166  A    
C122  H42   S    
C147  C161  A    
C38   C113  A    
C49   C105  A    
C54   C62   A    
C28   C39   A    
Cu4   O28   S    
Cu3   O3    S    
C23   C44   A    
C3    O19   A    
C19   C173  A    
C79   C95   A    
C92   C179  S    
C15   O51   S    
C16   O52   S    
C46   C54   A    
Cu1   O9    S    
C87   O27   A    
C8    O11   A    
C88   O28   A    
Cu3   O27   S    
C45   C101  A    
C120  H40   S    
C19   C142  A    
C186  H10   S    
C5    O10   A    
C102  C110  A    
C127  H47   S    
C35   C131  A    
C101  H21   S    
C123  C131  A    
C121  C129  A    
C87   O8    A    
C120  C128  A    
C26   C37   A    
C10   C170  A    
C7    O23   A    
C112  H32   S    
C33   C41   A    
C142  C150  A    
C9    C165  A    
C66   H18   S    
C75   C83   A    
O55   H59   S    
Cu10  O38   S    
C77   C93   A    
C44   C111  A    
C16   C170  A    
C28   C36   A    
C144  C152  A    
C39   C116  A    
C29   C37   A    
Cu2   O2    S    
C9    C172  A    
C148  C156  A    
C83   C123  A    
Cu9   O48   S    
O54   H58   S    
C30   C126  A    
C115  H35   S    
C70   C78   A    
C136  O34   A    
Cu4   O12   S    
C65   C73   A    
C119  H39   S    
O53   H57   S    
C20   O56   S    
C139  O47   A    
C46   C102  A    
C18   O54   S    
C106  C114  A    
C150  H7    S    
C77   C117  A    
C91   O4    A    
C59   C137  S    
Cu5   O21   S    
C48   C104  A    
Cu12  O34   S    
C159  C168  A    
C15   C169  A    
Cu7   O31   S    
C160  C167  A    
Cu8   O8    S    
C26   C34   A    
C133  O35   A    
C106  H26   S    
C133  O41   A    
C85   O6    A    
C80   C96   A    
C52   C60   A    
C153  H4    S    
C145  C153  A    
C28   C100  A    
C32   C40   A    
C52   C108  A    
C13   O49   S    
C116  H36   S    
C58   C66   A    
C143  C157  A    
C130  H50   S    
C51   C99   A    
C11   C173  A    
C128  H48   S    
C152  H5    S    
C14   C172  A    
C87   C184  S    
C88   C183  S    
C2    O13   A    
Cu1   O25   S    
C107  H27   S    
Cu6   O6    S    
Cu3   O11   S    
Cu2   O26   S    
C54   C136  S    
C7    O12   A    
C19   O55   S    
C3    C76   S    
C107  C115  A    
C26   C98   A    
C12   C175  A    
C90   O1    A    
Cu11  O44   S    
Cu12  O43   S    
C150  C152  A    
C51   C59   A    
C43   C112  A    
C144  C158  A    
C132  H52   S    
C47   C55   A    
C61   C69   A    
C48   C56   A    
C175  C183  A    
C64   H16   S    
C142  C160  A    
C12   C168  A    
C84   C124  A    
Cu5   O13   S    
Cu2   O10   S    
C81   C97   A    
C31   C39   A    
C6    O9    A    
C85   O25   A    
C64   C72   A    
C151  H6    S    
C180  C185  A    
C34   C130  A    
C47   C95   A    
C118  C126  A    
C13   C148  A    
C122  C130  A    
