data_mof_unit_51628.cif
_audit_creation_date              2012-12-10T18:32:55-0500
_audit_creation_method            fapswitch 2.2
_symmetry_space_group_name_H-M    P1
_symmetry_Int_Tables_number       1
_space_group_crystal_system       triclinic
_cell_length_a                    14.941713
_cell_length_b                    15.08321
_cell_length_c                    15.735565
_cell_angle_alpha                 90.156128
_cell_angle_beta                  104.595849
_cell_angle_gamma                 81.706975
_cell_volume                      3393.88037434

loop_
_atom_site_label
_atom_site_type_symbol
_atom_type_description
_atom_site_fract_x
_atom_site_fract_y
_atom_site_fract_z
_atom_type_partial_charge
C1    C     C_R   0.441498 0.663618 0.486259 0.872074
C2    C     C_R   0.593979 0.241944 0.501214 -0.063537
C3    C     C_R   0.287785 0.873537 0.375918 0.381147
C4    C     C_R   0.501012 0.500547 0.661773 0.908406
C5    C     C_R   0.313582 0.787153 0.414771 -0.240308
C6    C     C_R   0.472199 0.816209 0.469191 -0.283129
C7    C     C_R   0.451885 0.896045 0.419351 0.047669
C8    C     C_R   0.357089 0.928984 0.378323 0.080848
C9    C     C_R   0.523476 0.947726 0.417447 0.018629
C10   C     C_R   0.496776 0.040562 0.403472 0.047729
C11   C     C_R   0.402969 0.073187 0.358657 -0.227269
C12   C     C_3   0.423344 0.450768 0.028218 -0.402279
C13   C     C_R   0.334765 0.016908 0.343296 -0.166509
C14   C     C_R   0.620055 0.911140 0.432308 0.024879
C15   C     C_R   0.688589 0.967500 0.467502 0.060437
C16   C     C_R   0.558420 0.336477 0.509859 0.857828
C17   C     C_R   0.657896 0.059970 0.478052 0.101897
C18   C     C_R   0.562607 0.096932 0.441385 0.056811
C19   C     C_R   0.719245 0.116804 0.525317 -0.188197
C20   C     C_R   0.687719 0.206664 0.535986 -0.192433
C21   C     C_R   0.532775 0.187494 0.453711 -0.229954
C22   C     C_R   0.834523 0.652524 0.618966 -0.332846
C23   C     C_3   0.499975 0.501463 0.082792 0.322409
C24   C     C_R   0.750370 0.619400 0.605728 0.006968
C25   C     C_R   0.793084 0.515805 0.503956 -0.057802
C26   C     C_R   0.879430 0.547758 0.513350 0.016538
C27   C     C_R   0.899389 0.616810 0.572831 0.152551
C28   C     C_R   0.498804 0.500126 0.338213 0.908850
C29   C     C_R   0.946106 0.513090 0.466744 -0.012155
C30   C     C_R   0.036980 0.539902 0.488439 0.037072
C31   C     C_R   0.050323 0.617549 0.540702 0.090701
C32   C     C_R   0.981843 0.652661 0.583154 -0.250221
C33   C     C_R   0.923348 0.454378 0.397262 -0.277626
C34   C     C_3   0.596837 0.454795 0.075348 -0.398386
C35   C     C_R   0.989389 0.415014 0.355307 0.387009
C36   C     C_R   0.082802 0.428351 0.385834 0.084086
C37   C     C_R   0.108044 0.488520 0.454798 -0.057803
C38   C     C_R   0.152004 0.381831 0.349535 -0.247468
C39   C     C_R   0.244426 0.393958 0.382077 0.004957
C40   C     C_3   0.427462 0.450545 0.931315 -0.429063
C41   C     C_R   0.204364 0.490238 0.490191 -0.048507
C42   C     C_3   0.484772 0.599788 0.948115 -0.397884
C43   C     C_3   0.484074 0.599211 0.046048 -0.396248
C44   C     C_1   0.496488 0.500465 0.248741 -0.181386
C45   C     C_3   0.601795 0.454914 0.977700 -0.038454
C46   C     C_3   0.506031 0.502437 0.919004 0.319380
C47   C     C_3   0.792252 0.928747 0.498558 -0.436443
C48   C     C_3   0.850427 0.962924 0.440765 -0.338513
C49   C     C_3   0.946828 0.906299 0.456934 -0.842026
C50   C     C_3   0.647158 0.815255 0.404178 -0.408915
C51   C     C_3   0.696553 0.811050 0.329242 -0.348100
C52   C     C_3   0.702373 0.717812 0.290716 -0.864220
C53   C     C_3   0.125964 0.675835 0.542917 -0.420832
C54   C     C_3   0.190825 0.677363 0.636010 -0.355359
C55   C     C_3   0.274460 0.724443 0.635941 -0.859313
C56   C     C_1   0.496872 0.501034 0.173487 -0.107439
C57   C     C_3   0.687542 0.496573 0.966436 -0.447278
C58   C     C_3   0.780147 0.435239 0.006630 -0.332050
C59   C     C_3   0.863661 0.477758 0.996317 -0.821450
C60   C     C_1   0.505234 0.502506 0.827118 -0.132933
C61   C     C_1   0.503516 0.501804 0.751337 -0.189275
C62   C     C_R   0.406504 0.758040 0.460804 -0.130433
Cl1   Cl    Cl    0.168875 0.908208 0.323571 -0.660606
Cl2   Cl    Cl    0.951577 0.345609 0.266819 -0.668701
H1    H     H_    0.353099 0.483485 0.032872 0.180462
H2    H     H_    0.358535 0.481823 0.889145 0.182032
H3    H     H_    0.380913 0.141844 0.334491 0.141472
H4    H     H_    0.791519 0.092884 0.557016 0.142098
H5    H     H_    0.991634 0.711043 0.622944 0.143628
H6    H     H_    0.230391 0.524966 0.548679 0.151137
H7    H     H_    0.297511 0.361684 0.351815 0.129195
H8    H     H_    0.848082 0.706615 0.663695 0.144425
H9    H     H_    0.698424 0.648481 0.638817 0.133870
H10   H     H_    0.772374 0.462229 0.461582 0.133642
H11   H     H_    0.537315 0.640787 0.937278 0.165021
H12   H     H_    0.440334 0.380106 0.910850 0.170437
H13   H     H_    0.853127 0.440143 0.371588 0.174361
H14   H     H_    0.135634 0.337081 0.295827 0.200583
H15   H     H_    0.415366 0.632264 0.907914 0.173433
H16   H     H_    0.415925 0.634949 0.053223 0.176926
H17   H     H_    0.539924 0.636057 0.083766 0.169009
H18   H     H_    0.610993 0.383963 0.957496 0.145153
H19   H     H_    0.609587 0.384363 0.101610 0.161374
H20   H     H_    0.984963 0.907113 0.527280 0.254157
H21   H     H_    0.939904 0.836012 0.438439 0.254961
H22   H     H_    0.988062 0.933854 0.416387 0.296261
H23   H     H_    0.433354 0.380494 0.054270 0.172783
H24   H     H_    0.813951 0.961501 0.370067 0.227256
H25   H     H_    0.860210 0.033442 0.454668 0.230450
H26   H     H_    0.820221 0.945130 0.568136 0.184661
H27   H     H_    0.803179 0.854620 0.500445 0.215428
H28   H     H_    0.740414 0.666427 0.342720 0.272631
H29   H     H_    0.631229 0.701280 0.261234 0.257578
H30   H     H_    0.740632 0.716050 0.238559 0.250750
H31   H     H_    0.657912 0.861221 0.276258 0.229480
H32   H     H_    0.768909 0.825111 0.353228 0.240991
H33   H     H_    0.689914 0.772446 0.461515 0.196886
H34   H     H_    0.651999 0.489685 0.117228 0.181521
H35   H     H_    0.584065 0.783492 0.377572 0.230478
H36   H     H_    0.319837 0.685215 0.599193 0.266821
H37   H     H_    0.250835 0.792944 0.605468 0.272236
H38   H     H_    0.316105 0.729651 0.704523 0.241078
H39   H     H_    0.151535 0.713703 0.679991 0.217799
H40   H     H_    0.216508 0.608296 0.664435 0.220264
H41   H     H_    0.165525 0.658128 0.493020 0.209288
H42   H     H_    0.091432 0.745599 0.522998 0.211527
H43   H     H_    0.859114 0.489979 0.925661 0.250966
H44   H     H_    0.865875 0.542251 0.030494 0.260290
H45   H     H_    0.263852 0.044679 0.309416 0.204607
H46   H     H_    0.929383 0.431937 0.025729 0.268101
H47   H     H_    0.788080 0.421833 0.077716 0.259685
H48   H     H_    0.780660 0.370106 0.973390 0.223337
H49   H     H_    0.682640 0.507691 0.895560 0.217702
H50   H     H_    0.688738 0.562797 0.997564 0.214934
H51   H     H_    0.460380 0.216371 0.429877 0.152829
H52   H     H_    0.736417 0.248147 0.572812 0.156970
H53   H     H_    0.261550 0.742702 0.407865 0.188203
H54   H     H_    0.541821 0.796638 0.511245 0.171888
N1    N     N_R   0.731690 0.552720 0.548990 -0.097246
N2    N     N_R   0.268300 0.447240 0.450950 -0.095762
O1    O     O_R   0.383120 0.605620 0.475300 -0.616365
O2    O     O_R   0.531890 0.639510 0.506740 -0.617839
O3    O     O_R   0.425580 0.483050 0.607130 -0.610221
O4    O     O_R   0.574360 0.516930 0.638570 -0.615526
O5    O     O_R   0.468110 0.360490 0.493260 -0.613663
O6    O     O_R   0.616880 0.394380 0.524700 -0.609195
O7    O     O_R   0.425640 0.483070 0.361430 -0.613781
O8    O     O_R   0.574420 0.516950 0.392870 -0.610595
Zn1   Zn    Zn3+2 0.400660 0.477370 0.479010 0.938978
Zn2   Zn    Zn3+2 0.599340 0.522630 0.520990 0.932630

loop_
_geom_bond_atom_site_label_1
_geom_bond_atom_site_label_2
_ccdc_geom_bond_type
C8    C13   A    
C18   C21   A    
C19   C20   A    
C15   C47   S    
C21   H51   S    
C1    C62   S    
N1    Zn2   S    
C23   C56   S    
C14   C50   S    
C53   C54   S    
C40   C46   S    
C55   H38   S    
C45   C57   S    
C50   H35   S    
C58   H48   S    
C49   H20   S    
C54   H40   S    
C36   C37   A    
C30   C31   A    
C24   H9    S    
O6    Zn2   S    
C39   N2    A    
C29   C33   A    
C59   H46   S    
C23   C43   S    
C4    O4    A    
C15   C17   A    
C25   H10   S    
C42   C46   S    
C1    O2    A    
C13   H45   S    
C34   H34   S    
C53   H42   S    
C45   H18   S    
C40   H12   S    
C50   H33   S    
C55   H36   S    
C48   H24   S    
C52   H30   S    
C35   Cl2   S    
C2    C16   S    
C9    C10   A    
C28   O7    A    
C51   H32   S    
C42   H15   S    
C40   H2    S    
O3    Zn1   S    
C25   N1    A    
C22   H8    S    
C11   H3    S    
C17   C18   A    
C2    C20   A    
C58   H47   S    
C49   H21   S    
C54   H39   S    
C7    C8    A    
C3    C8    A    
C20   H52   S    
C17   C19   A    
C57   H49   S    
C38   H14   S    
C25   C26   A    
C45   C46   S    
C4    C61   S    
C28   C44   S    
C59   H43   S    
N2    Zn1   S    
C30   C37   A    
C5    H53   S    
C60   C61   T    
C35   C36   A    
C12   C40   S    
C9    C14   A    
O7    Zn1   S    
C29   C30   A    
O5    Zn1   S    
C44   C56   T    
C47   C48   S    
C12   C23   S    
C23   C34   S    
C2    C21   A    
C50   C51   S    
C42   H11   S    
O4    Zn2   S    
C19   H4    S    
C34   C45   S    
C31   C53   S    
C32   H5    S    
C48   C49   S    
C48   H25   S    
C26   C27   A    
C43   H17   S    
C47   H26   S    
C22   C24   A    
C52   H28   S    
C42   C43   S    
C43   H16   S    
C16   O5    A    
C7    C9    A    
C54   C55   S    
C24   N1    A    
C12   H23   S    
C46   C60   S    
C27   C32   A    
C47   H27   S    
C49   H22   S    
C31   C32   A    
O1    Zn1   S    
C3    C5    A    
O8    Zn2   S    
C6    C7    A    
C3    Cl1   S    
C12   H1    S    
C55   H37   S    
C59   H44   S    
C52   H29   S    
C22   C27   A    
C6    C62   A    
C36   C38   A    
C58   C59   S    
C51   C52   S    
C11   C13   A    
C33   H13   S    
C57   C58   S    
C38   C39   A    
C57   H50   S    
C10   C18   A    
C33   C35   A    
O2    Zn2   S    
C5    C62   A    
C41   N2    A    
C37   C41   A    
C1    O1    A    
C10   C11   A    
C53   H41   S    
C4    O3    A    
C26   C29   A    
C34   H19   S    
C39   H7    S    
C14   C15   A    
C16   O6    A    
C6    H54   S    
C28   O8    A    
C51   H31   S    
C41   H6    S    
