data_mof_unit_66926.cif
_audit_creation_date              2013-03-05T15:57:28-0500
_audit_creation_method            fapswitch 2.2
_symmetry_space_group_name_H-M    P1
_symmetry_Int_Tables_number       1
_space_group_crystal_system       triclinic
_cell_length_a                    17.135648
_cell_length_b                    18.449481
_cell_length_c                    8.431426
_cell_angle_alpha                 89.999978
_cell_angle_beta                  101.793665
_cell_angle_gamma                 90.001808
_cell_volume                      2609.27352241

loop_
_atom_site_label
_atom_site_type_symbol
_atom_site_description
_atom_site_fract_x
_atom_site_fract_y
_atom_site_fract_z
_atom_type_partial_charge
P1    P     P_3+3 0.834140 0.419320 0.003900 0.446728
P2    P     P_3+3 0.834140 0.580680 0.503900 0.446742
P3    P     P_3+3 0.334140 0.919320 0.003900 0.446690
P4    P     P_3+3 0.334140 0.080680 0.503900 0.446700
O1    O     O_2   0.841960 0.394640 0.833410 -0.381656
O2    O     O_2   0.841960 0.605360 0.333410 -0.381770
O3    O     O_2   0.341960 0.894640 0.833410 -0.381674
O4    O     O_2   0.341960 0.105360 0.333410 -0.381713
O5    O     O_3   0.907950 0.463080 0.102990 -0.376304
O6    O     O_3   0.907950 0.536920 0.602990 -0.376241
O7    O     O_3   0.407950 0.963080 0.102990 -0.376313
O8    O     O_3   0.407950 0.036920 0.602990 -0.376289
O9    O     O_3   0.972780 0.329600 0.629720 -0.360901
O10   O     O_3   0.972780 0.670400 0.129720 -0.360867
O11   O     O_3   0.472780 0.829600 0.629720 -0.360932
O12   O     O_3   0.472780 0.170400 0.129720 -0.360832
O13   O     O_2   0.832076 0.282179 0.674643 -0.371710
O14   O     O_2   0.832091 0.717831 0.174687 -0.371725
O15   O     O_2   0.332068 0.782183 0.674614 -0.371654
O16   O     O_2   0.332076 0.217815 0.174621 -0.371637
O17   O     O_3   0.748871 0.472926 0.985879 -0.609870
O18   O     O_3   0.748891 0.527042 0.485902 -0.609788
O19   O     O_3   0.248850 0.972897 0.985865 -0.609904
O20   O     O_3   0.248857 0.027088 0.485878 -0.609866
O21   O     O_3   0.932074 0.181567 0.653079 -0.526286
O22   O     O_3   0.932088 0.818437 0.153082 -0.526255
O23   O     O_3   0.432061 0.681564 0.653050 -0.526298
O24   O     O_3   0.432071 0.318440 0.153106 -0.526213
C1    C     C_3   0.968924 0.071708 0.543941 -1.032287
C2    C     C_3   0.968901 0.928313 0.043954 -1.032191
C3    C     C_3   0.468922 0.571697 0.543946 -1.032297
C4    C     C_3   0.468844 0.428377 0.044150 -1.032001
H1    H     H_    0.510828 0.545933 0.476770 0.231243
H2    H     H_    0.510689 0.454187 0.976892 0.231221
H3    H     H_    0.010847 0.045939 0.476815 0.231312
H4    H     H_    0.010800 0.954096 0.976787 0.231287
H5    H     H_    0.976411 0.046939 0.666046 0.274251
H6    H     H_    0.976423 0.953064 0.166080 0.274247
H7    H     H_    0.476454 0.546937 0.666071 0.274228
H8    H     H_    0.476466 0.453069 0.166351 0.274182
P5    P     P_3+3 0.165830 0.418670 0.685610 0.452538
P6    P     P_3+3 0.165830 0.581330 0.185610 0.452536
P7    P     P_3+3 0.665830 0.918670 0.685610 0.452530
P8    P     P_3+3 0.665830 0.081330 0.185610 0.452569
P9    P     P_3+3 0.101084 0.263360 0.110126 0.450170
P10   P     P_3+3 0.101087 0.736641 0.610120 0.450222
P11   P     P_3+3 0.601082 0.763359 0.110126 0.450172
P12   P     P_3+3 0.601091 0.236638 0.610116 0.450297
O25   O     O_2   0.157990 0.394030 0.856030 -0.368131
O26   O     O_2   0.157990 0.605970 0.356030 -0.368113
O27   O     O_2   0.657990 0.894030 0.856030 -0.368129
O28   O     O_2   0.657990 0.105970 0.356030 -0.368103
O29   O     O_3   0.027110 0.329490 0.059550 -0.389755
O30   O     O_3   0.027110 0.670510 0.559550 -0.389730
O31   O     O_3   0.527110 0.829490 0.059550 -0.389774
O32   O     O_3   0.527110 0.170510 0.559550 -0.389736
O33   O     O_2   0.159069 0.271142 0.992726 -0.358819
O34   O     O_2   0.159070 0.728858 0.492718 -0.358801
O35   O     O_2   0.659058 0.771130 0.992705 -0.358817
O36   O     O_2   0.659068 0.228858 0.492699 -0.358737
O37   O     O_3   0.248883 0.475939 0.722145 -0.583618
O38   O     O_3   0.248879 0.524060 0.222148 -0.583636
O39   O     O_3   0.748884 0.975938 0.722146 -0.583627
O40   O     O_3   0.748880 0.024061 0.222144 -0.583639
O41   O     O_3   0.056096 0.179222 0.060408 -0.545273
O42   O     O_3   0.056106 0.820779 0.560401 -0.545263
O43   O     O_3   0.556083 0.679223 0.060436 -0.545280
O44   O     O_3   0.556109 0.320777 0.560412 -0.545223
C5    C     C_3   0.976016 0.183802 0.075107 0.490345
C6    C     C_3   0.976026 0.816202 0.575102 0.490392
C7    C     C_3   0.475997 0.683825 0.075088 0.490348
C8    C     C_3   0.476034 0.316200 0.575146 0.490439
H9    H     H_    0.939876 0.209627 0.965255 0.159780
H10   H     H_    0.939883 0.790380 0.465249 0.159789
H11   H     H_    0.439878 0.709660 0.965226 0.159792
H12   H     H_    0.439880 0.290382 0.465297 0.159747
H13   H     H_    0.968708 0.215147 0.183389 0.025683
H14   H     H_    0.968714 0.784856 0.683380 0.025649
H15   H     H_    0.468687 0.715170 0.183366 0.025717
H16   H     H_    0.468734 0.284849 0.683426 0.025650
C9    C     C_3   0.944932 0.108038 0.091748 -1.076805
C10   C     C_3   0.944951 0.891968 0.591748 -1.076802
C11   C     C_3   0.444882 0.608071 0.091698 -1.076693
C12   C     C_3   0.444963 0.391965 0.591824 -1.076817
H17   H     H_    0.380827 0.609793 0.097956 0.250712
H18   H     H_    0.380908 0.390265 0.598093 0.250761
H19   H     H_    0.880879 0.109742 0.098028 0.250748
H20   H     H_    0.880899 0.890267 0.598033 0.250754
H21   H     H_    0.953040 0.075220 0.986481 0.287981
H22   H     H_    0.953062 0.924788 0.486483 0.287979
H23   H     H_    0.452985 0.575255 0.986425 0.287960
H24   H     H_    0.453081 0.424793 0.486578 0.287988
C13   C     C_3   0.229668 0.457056 0.281842 0.367276
C14   C     C_3   0.229687 0.542938 0.781880 0.367215
C15   C     C_3   0.729676 0.957059 0.281858 0.367267
C16   C     C_3   0.729684 0.042941 0.781856 0.367237
H25   H     H_    0.234445 0.461831 0.414082 0.112125
H26   H     H_    0.234535 0.538165 0.914141 0.112099
H27   H     H_    0.734479 0.961835 0.414105 0.112117
H28   H     H_    0.734495 0.038169 0.914106 0.112115
H29   H     H_    0.169408 0.437368 0.223431 0.125115
H30   H     H_    0.169403 0.562607 0.723591 0.125079
H31   H     H_    0.669406 0.937377 0.223495 0.125089
H32   H     H_    0.669413 0.062619 0.723503 0.125090
C17   C     C_3   0.289760 0.401580 0.248548 -0.888619
C18   C     C_3   0.289732 0.598432 0.748442 -0.888518
C19   C     C_3   0.789750 0.901577 0.248512 -0.888556
C20   C     C_3   0.789755 0.098424 0.748488 -0.888514
H33   H     H_    0.350204 0.425544 0.272830 0.274144
H34   H     H_    0.350181 0.574481 0.772556 0.274168
H35   H     H_    0.850195 0.925540 0.272706 0.274148
H36   H     H_    0.850199 0.074464 0.772667 0.274152
H37   H     H_    0.289825 0.353073 0.325951 0.225525
H38   H     H_    0.289835 0.646932 0.825883 0.225516
H39   H     H_    0.789837 0.853078 0.325948 0.225509
H40   H     H_    0.789848 0.146926 0.825921 0.225506
H41   H     H_    0.274897 0.385042 0.119752 0.273927
H42   H     H_    0.274789 0.614980 0.619662 0.273962
H43   H     H_    0.774850 0.885025 0.119729 0.273935
H44   H     H_    0.774847 0.114973 0.619704 0.273938
Ba1   Ba    Ba6+2 0.000000 0.447380 0.844850 1.539014
Ba2   Ba    Ba6+2 0.000000 0.552620 0.344850 1.539016
Ba3   Ba    Ba6+2 0.500000 0.947380 0.844850 1.538975
Ba4   Ba    Ba6+2 0.500000 0.052620 0.344850 1.539010
C21   C     C_3   0.734830 0.517663 0.850212 0.703039
C22   C     C_3   0.734802 0.482364 0.350135 0.703145
C23   C     C_3   0.234803 0.017642 0.850216 0.702782
C24   C     C_3   0.234785 0.982371 0.350180 0.702892
H45   H     H_    0.781661 0.514174 0.777689 0.141567
H46   H     H_    0.781601 0.485902 0.277542 0.141629
H47   H     H_    0.281567 0.014076 0.777540 0.141649
H48   H     H_    0.281531 0.985962 0.277467 0.141678
C25   C     C_3   0.653777 0.496492 0.748262 -0.940762
C26   C     C_3   0.653722 0.503552 0.248331 -0.941043
C27   C     C_3   0.153678 0.996571 0.748420 -0.941408
C28   C     C_3   0.153644 0.003449 0.248460 -0.941639
H49   H     H_    0.653316 0.438286 0.716770 0.251062
H50   H     H_    0.653206 0.561793 0.217062 0.251030
H51   H     H_    0.153041 0.938319 0.717134 0.251128
H52   H     H_    0.152968 0.061723 0.217334 0.251124
H53   H     H_    0.640265 0.528239 0.635136 0.261627
H54   H     H_    0.640211 0.471889 0.135071 0.261660
H55   H     H_    0.140245 0.028236 0.635162 0.261715
H56   H     H_    0.140220 0.971844 0.135112 0.261747
H57   H     H_    0.606029 0.505599 0.817390 0.243737
H58   H     H_    0.605998 0.494330 0.317487 0.243818
H59   H     H_    0.105970 0.005894 0.817576 0.243903
H60   H     H_    0.105946 0.994047 0.317612 0.243948
O45   O     O_3   0.092100 0.536880 0.086720 -0.395151
O46   O     O_3   0.092100 0.463120 0.586720 -0.395128
O47   O     O_3   0.592100 0.036880 0.086720 -0.395141
O48   O     O_3   0.592100 0.963120 0.586720 -0.395143
P13   P     P_3+3 0.896407 0.734437 0.076186 0.449167
P14   P     P_3+3 0.896403 0.265566 0.576172 0.449168
P15   P     P_3+3 0.396409 0.234439 0.076170 0.449184
P16   P     P_3+3 0.396400 0.765568 0.576159 0.449138
C29   C     C_3   0.983612 0.152975 0.559134 0.738569
C30   C     C_3   0.983587 0.847047 0.059074 0.738543
C31   C     C_3   0.483592 0.652969 0.559088 0.738533
C32   C     C_3   0.483510 0.347101 0.059022 0.738435
H61   H     H_    0.973739 0.174799 0.434236 0.023159
H62   H     H_    0.973671 0.825240 0.934161 0.023183
H63   H     H_    0.473702 0.674781 0.434174 0.023184
H64   H     H_    0.473508 0.325365 0.934042 0.023222
H65   H     H_    0.407046 0.561333 0.476948 0.264239
H66   H     H_    0.406941 0.438766 0.977352 0.264222
H67   H     H_    0.907058 0.061361 0.476872 0.264211
H68   H     H_    0.907024 0.938663 0.976961 0.264207
H69   H     H_    0.479103 0.582707 0.203448 0.268973
H70   H     H_    0.479204 0.417303 0.703591 0.268879
H71   H     H_    0.979172 0.082688 0.203496 0.268974
H72   H     H_    0.979197 0.917316 0.703496 0.268947
C33   C     C_R   0.138677 0.676721 0.921925 -0.511292
C34   C     C_R   0.138673 0.323274 0.421935 -0.511283
C35   C     C_R   0.638685 0.176714 0.921918 -0.511423
C36   C     C_R   0.638675 0.823276 0.421937 -0.511302
C37   C     C_R   0.865299 0.321732 0.262121 -0.486144
C38   C     C_R   0.865279 0.678259 0.762145 -0.486115
C39   C     C_R   0.365306 0.821727 0.262104 -0.486312
C40   C     C_R   0.365300 0.178274 0.762114 -0.486241
C41   C     C_R   0.793306 0.211823 0.296590 -0.193323
C42   C     C_R   0.793296 0.788171 0.796609 -0.193381
C43   C     C_R   0.293306 0.711824 0.296581 -0.193301
C44   C     C_R   0.293301 0.288175 0.796594 -0.193362
C45   C     C_R   0.849521 0.264792 0.359239 0.180745
C46   C     C_R   0.849507 0.735201 0.859261 0.180756
C47   C     C_R   0.349524 0.764791 0.359225 0.180754
C48   C     C_R   0.349521 0.235211 0.859236 0.180646
C49   C     C_R   0.819957 0.331516 0.106167 0.284232
C50   C     C_R   0.819943 0.668478 0.606185 0.284143
C51   C     C_R   0.319960 0.831514 0.106157 0.284390
C52   C     C_R   0.319953 0.168484 0.606166 0.284349
C53   C     C_R   0.759358 0.279180 0.042518 -0.080170
C54   C     C_R   0.759350 0.720816 0.542532 -0.080172
C55   C     C_R   0.259356 0.779182 0.042513 -0.080175
C56   C     C_R   0.259352 0.220816 0.542522 -0.080174
C57   C     C_R   0.246313 0.718009 0.139256 -0.057642
C58   C     C_R   0.246308 0.281988 0.639267 -0.057582
C59   C     C_R   0.746315 0.218007 0.139261 -0.057555
C60   C     C_R   0.746306 0.781987 0.639278 -0.057556
C61   C     C_R   0.184598 0.666619 0.077572 0.264662
C62   C     C_R   0.184595 0.333377 0.577581 0.264663
C63   C     C_R   0.684602 0.166616 0.077571 0.264717
C64   C     C_R   0.684596 0.833378 0.577585 0.264672
C65   C     C_R   0.154370 0.733320 0.823653 0.230779
C66   C     C_R   0.154367 0.266678 0.323661 0.230797
C67   C     C_R   0.654380 0.233313 0.823647 0.230789
C68   C     C_R   0.654373 0.766683 0.323659 0.230846
C69   C     C_R   0.211625 0.785623 0.885461 -0.200151
C70   C     C_R   0.211624 0.214377 0.385465 -0.200223
C71   C     C_R   0.711633 0.285616 0.885460 -0.200107
C72   C     C_R   0.711631 0.714384 0.385466 -0.200229
H73   H     H_    0.285718 0.667242 0.374220 0.174672
H74   H     H_    0.285713 0.332755 0.874235 0.174648
H75   H     H_    0.785719 0.167240 0.374227 0.174654
H76   H     H_    0.785713 0.832756 0.874244 0.174662
H77   H     H_    0.718491 0.330359 0.807804 0.186392
H78   H     H_    0.718501 0.669651 0.307798 0.186386
H79   H     H_    0.218480 0.830369 0.807805 0.186382
H80   H     H_    0.218486 0.169637 0.307802 0.186378
H81   H     H_    0.092642 0.637922 0.873227 0.169660
H82   H     H_    0.092642 0.362073 0.373235 0.169646
H83   H     H_    0.592652 0.137914 0.873217 0.169676
H84   H     H_    0.592642 0.862074 0.373237 0.169652
H85   H     H_    0.908869 0.362173 0.313885 0.178658
H86   H     H_    0.908847 0.637819 0.813909 0.178640
H87   H     H_    0.408881 0.862165 0.313865 0.178655
H88   H     H_    0.408874 0.137838 0.813873 0.178632
C73   C     C_3   0.069173 0.168879 0.642765 -0.865363
H89   H     H_    0.081288 0.144247 0.765044 0.284450
H90   H     H_    0.110890 0.147335 0.569744 0.197705
H91   H     H_    0.078737 0.228065 0.656525 0.259379
C74   C     C_3   0.069162 0.831140 0.142584 -0.865518
H92   H     H_    0.081302 0.855721 0.264910 0.284470
H93   H     H_    0.078733 0.771954 0.156216 0.259283
H94   H     H_    0.110854 0.852733 0.069560 0.197796
C75   C     C_3   0.569155 0.668889 0.642680 -0.865385
H95   H     H_    0.581265 0.644260 0.764962 0.284412
H96   H     H_    0.610869 0.647343 0.569649 0.197717
H97   H     H_    0.578716 0.728079 0.656445 0.259396
C76   C     C_3   0.569110 0.331150 0.142297 -0.865716
H98   H     H_    0.581298 0.355642 0.264708 0.284491
H99   H     H_    0.578681 0.271956 0.155706 0.259160
H100  H     H_    0.610761 0.352807 0.069251 0.197865
C77   C     C_3   0.732572 0.595012 0.910848 -0.898611
H101  H     H_    0.790697 0.607465 0.990586 0.263408
H102  H     H_    0.721092 0.633324 0.808242 0.220917
H103  H     H_    0.685410 0.601962 0.981896 0.271204
C78   C     C_3   0.732574 0.404985 0.410612 -0.898368
H104  H     H_    0.790716 0.392513 0.490267 0.263296
H105  H     H_    0.685438 0.397979 0.481706 0.271178
H106  H     H_    0.721070 0.366723 0.307916 0.220833
C79   C     C_3   0.232719 0.094999 0.910914 -0.897498
H107  H     H_    0.290987 0.107403 0.990235 0.263026
H108  H     H_    0.221086 0.133310 0.808300 0.220821
H109  H     H_    0.185746 0.101997 0.982462 0.271142
C80   C     C_3   0.232715 0.904999 0.410803 -0.897459
H110  H     H_    0.290981 0.892591 0.490120 0.262999
H111  H     H_    0.185741 0.897970 0.482337 0.271122
H112  H     H_    0.221086 0.866711 0.308150 0.220791

loop_
_geom_bond_atom_site_label_1
_geom_bond_atom_site_label_2
_geom_bond_distance
_ccdc_geom_bond_type
C43   H73   1.075514 S    
P10   C65   1.845768 S    
C67   C71   1.398654 A    
C77   H102  1.103253 S    
P1    O17   1.745123 S    
P9    C66   1.845777 S    
O10   Ba2   2.807791 S    
O16   P15   1.540259 D    
C13   H25   1.104685 S    
C6    H14   1.109220 S    
O27   Ba3   2.864054 S    
C5    H13   1.109216 S    
C20   H44   1.106399 S    
C21   C77   1.519017 S    
O7    Ba4   2.839086 S    
C34   H82   1.082042 S    
P5    O37   1.748538 S    
C25   H49   1.105853 S    
C8    H12   1.110824 S    
O6    Ba1   2.839143 S    
C33   H81   1.082040 S    
C4    C32   1.521357 S    
C7    H15   1.109207 S    
P7    O39   1.748538 S    
Ba3   Ba4   4.641351 S    
C20   H40   1.107491 S    
P8    O40   1.748544 S    
C27   H51   1.106143 S    
C26   H54   1.102900 S    
P9    O33   1.545866 D    
C78   H104  1.105945 S    
C43   C57   1.408677 A    
P1    C49   1.874137 S    
O11   Ba3   2.807769 S    
P11   C68   1.845801 S    
C18   H38   1.107489 S    
C22   C78   1.519033 S    
P1    O1    1.539598 D    
Ba2   O46   2.839114 S    
C17   H37   1.107485 S    
C12   H18   1.110072 S    
C55   C69   1.412024 A    
C73   H91   1.106736 S    
P3    O3    1.539598 D    
P15   C48   1.841324 S    
C24   C28   1.527277 S    
C30   C74   1.519913 S    
C79   H107  1.106157 S    
P4    O20   1.745129 S    
C54   C72   1.412023 A    
O41   C5    1.405357 S    
O18   C22   1.391077 S    
C39   C47   1.391986 A    
P13   C46   1.841310 S    
C14   H26   1.104691 S    
C15   H27   1.104685 S    
O23   C31   1.404154 S    
O1    Ba1   2.860602 S    
O24   C32   1.404137 S    
C37   C45   1.391994 A    
Ba1   O46   2.952250 S    
P4    Ba4   3.420825 S    
C33   C61   1.397861 A    
C76   H98   1.106756 S    
C42   C46   1.397839 A    
C29   H61   1.107649 S    
P5    O25   1.538909 D    
P6    O45   1.591624 S    
P4    C52   1.874166 S    
C40   C48   1.391996 A    
C13   C17   1.518171 S    
O38   C13   1.399124 S    
P3    O19   1.745114 S    
C28   H52   1.106194 S    
C54   C60   1.436506 A    
P1    O5    1.586658 S    
C3    H65   1.111312 S    
C15   H31   1.110330 S    
C53   C71   1.412019 A    
O26   Ba2   2.863994 S    
C6    H10   1.110818 S    
O24   P15   1.741813 S    
C3    H1    1.108454 S    
C57   C61   1.436265 A    
C35   C67   1.392947 A    
C32   C76   1.519925 S    
P4    O8    1.586699 S    
C74   H92   1.106783 S    
P6    O38   1.748541 S    
O32   Ba4   2.807058 S    
C49   C53   1.439011 A    
P4    O4    1.539596 D    
C56   C70   1.412029 A    
P8    O28   1.538913 D    
C27   H55   1.102865 S    
C2    C30   1.521344 S    
O30   Ba2   2.807058 S    
P9    O29   1.748236 S    
C9    H21   1.106375 S    
C7    H11   1.110824 S    
C75   H95   1.106829 S    
P10   O34   1.545865 D    
C42   H76   1.075517 S    
O15   P16   1.540260 D    
C17   H41   1.106412 S    
P2    O2    1.539596 D    
C59   C63   1.436268 A    
C71   H77   1.074884 S    
O13   P14   1.540250 D    
C24   H48   1.105733 S    
C19   H43   1.106400 S    
C68   C72   1.398669 A    
P3    Ba3   3.420798 S    
P12   O36   1.545867 D    
C50   C54   1.439028 A    
C7    C11   1.512522 S    
P2    Ba2   3.420825 S    
C26   H58   1.110230 S    
P14   C45   1.841295 S    
O31   Ba3   2.807080 S    
C78   H105  1.107397 S    
P8    O47   1.591624 S    
C37   C49   1.395582 A    
C4    H66   1.111267 S    
C29   C73   1.519960 S    
C69   H79   1.074916 S    
Ba2   O45   2.952260 S    
C18   H42   1.106391 S    
C36   C64   1.397857 A    
C5    C9    1.512533 S    
C56   C58   1.436514 A    
C40   C52   1.395569 A    
C70   H80   1.074906 S    
C13   H29   1.110336 S    
O20   C24   1.391050 S    
C79   H108  1.103343 S    
C22   H46   1.105715 S    
C41   C45   1.397823 A    
O37   C14   1.399127 S    
O4    Ba4   2.860660 S    
C1    C29   1.521373 S    
P5    O46   1.591665 S    
C51   C55   1.439005 A    
C36   C68   1.392941 A    
C53   C59   1.436497 A    
P11   O35   1.545870 D    
O39   C16   1.399123 S    
C40   H88   1.082292 S    
C20   H36   1.106112 S    
C8    C12   1.512551 S    
C44   C48   1.397833 A    
C80   H111  1.107675 S    
C4    H2    1.108449 S    
P2    O18   1.745155 S    
C73   H89   1.106824 S    
C43   C47   1.397816 A    
C60   C64   1.436290 A    
P8    C63   1.878526 S    
O9    Ba1   2.807769 S    
C66   C70   1.398674 A    
C44   H74   1.075519 S    
C14   H30   1.110328 S    
C52   C56   1.439026 A    
C34   C62   1.397854 A    
C65   C69   1.398656 A    
O44   C8    1.405357 S    
O25   Ba1   2.864054 S    
P10   O30   1.748217 S    
O12   P15   1.752411 S    
O5    Ba2   2.839086 S    
C31   C75   1.519958 S    
C42   C60   1.408695 A    
P11   O43   1.745706 S    
C9    H19   1.110068 S    
P12   O44   1.745708 S    
C44   C58   1.408684 A    
C5    H9    1.110821 S    
C74   H93   1.106697 S    
C19   H39   1.107487 S    
O11   P16   1.752381 S    
C28   H60   1.110351 S    
O14   P13   1.540245 D    
C15   C19   1.518180 S    
P6    O26   1.538913 D    
C10   H72   1.106695 S    
C58   C62   1.436288 A    
P1    Ba1   3.420798 S    
C11   H17   1.110064 S    
Ba4   O47   2.952260 S    
C27   H59   1.110304 S    
C75   H96   1.108180 S    
O10   P13   1.752384 S    
P9    O41   1.745701 S    
C28   H56   1.102893 S    
C31   H63   1.107671 S    
C75   H97   1.106808 S    
C25   H57   1.110110 S    
O2    Ba2   2.860660 S    
P7    Ba3   3.423093 S    
O17   C21   1.391076 S    
P2    O6    1.586699 S    
C32   H64   1.107601 S    
C80   H110  1.106152 S    
C4    H8    1.109579 S    
P6    Ba2   3.423066 S    
P11   O31   1.748229 S    
P5    Ba1   3.423093 S    
C18   H34   1.106113 S    
P16   C47   1.841280 S    
C21   C25   1.527213 S    
O23   P16   1.741782 S    
P12   O32   1.748224 S    
C17   H33   1.106108 S    
Ba3   O48   2.952250 S    
C14   C18   1.518174 S    
C78   H106  1.103241 S    
C36   H84   1.082042 S    
C76   H100  1.108156 S    
O21   P14   1.741785 S    
C23   C79   1.519063 S    
C19   H35   1.106114 S    
C38   C50   1.395577 A    
Ba1   O45   2.839057 S    
Ba3   O47   2.839057 S    
P2    C50   1.874176 S    
O40   C15   1.399124 S    
C23   C27   1.527246 S    
O22   P13   1.741789 S    
C26   H50   1.105998 S    
C79   H109  1.107693 S    
C41   H75   1.075515 S    
P10   O42   1.745706 S    
C11   H23   1.106365 S    
C1    H3    1.108435 S    
O19   C23   1.391047 S    
C12   H70   1.106704 S    
C10   H22   1.106383 S    
C2    H4    1.108439 S    
Ba4   O48   2.839114 S    
C80   H112  1.103321 S    
C24   C80   1.519079 S    
C1    H67   1.111292 S    
C16   H32   1.110327 S    
O12   Ba4   2.807791 S    
C35   C63   1.397864 A    
C8    H16   1.109221 S    
O29   Ba1   2.807080 S    
O21   C29   1.404125 S    
O28   Ba4   2.863994 S    
P7    O27   1.538909 D    
O42   C6    1.405357 S    
O8    Ba3   2.839143 S    
C72   H78   1.074866 S    
C10   H20   1.110072 S    
C34   C66   1.392947 A    
C11   H69   1.106691 S    
P12   C67   1.845782 S    
P8    Ba4   3.423066 S    
O22   C30   1.404103 S    
O43   C7    1.405357 S    
C9    H71   1.106693 S    
C39   H87   1.082292 S    
P3    C51   1.874115 S    
C6    C10   1.512546 S    
C74   H94   1.108128 S    
C23   H47   1.105739 S    
O9    P14   1.752359 S    
C38   H86   1.082293 S    
Ba1   Ba2   4.641351 S    
P3    O7    1.586658 S    
C30   H62   1.107605 S    
C37   H85   1.082289 S    
C38   C46   1.391994 A    
C21   H45   1.105718 S    
C16   H28   1.104687 S    
C39   C51   1.395566 A    
C22   C26   1.527238 S    
C73   H90   1.108134 S    
C77   H103  1.107380 S    
C1    H5    1.109598 S    
P7    C64   1.878544 S    
C3    H7    1.109630 S    
C35   H83   1.082040 S    
C16   C20   1.518172 S    
P6    C61   1.878554 S    
C33   C65   1.392953 A    
C25   H53   1.102798 S    
C12   H24   1.106377 S    
C2    H6    1.109579 S    
C76   H99   1.106705 S    
P5    C62   1.878569 S    
C77   H101  1.105920 S    
C3    C31   1.521394 S    
P7    O48   1.591665 S    
C2    H68   1.111280 S    
O3    Ba3   2.860602 S    
C55   C57   1.436503 A    
C41   C59   1.408688 A    
