data_mof_unit_62235.cif
_audit_creation_date              2012-12-10T16:58:18-0500
_audit_creation_method            fapswitch 2.2
_symmetry_space_group_name_H-M    P1
_symmetry_Int_Tables_number       1
_space_group_crystal_system       triclinic
_cell_length_a                    21.74067
_cell_length_b                    21.740954
_cell_length_c                    22.155945
_cell_angle_alpha                 60.353083
_cell_angle_beta                  119.020816
_cell_angle_gamma                 89.985646
_cell_volume                      7550.58077474

loop_
_atom_site_label
_atom_site_type_symbol
_atom_type_description
_atom_site_fract_x
_atom_site_fract_y
_atom_site_fract_z
_atom_type_partial_charge
C1    C     C_R   0.619180 0.499544 0.500956 0.819153
C2    C     C_R   0.809520 0.505880 0.689855 -0.156668
C3    C     C_R   0.868648 0.519122 0.681989 0.207069
C4    C     C_R   0.419807 0.580309 0.339682 0.827928
C5    C     C_R   0.870154 0.521041 0.618887 -0.186086
C6    C     C_R   0.812394 0.508958 0.562651 0.063120
C7    C     C_R   0.749497 0.501598 0.566521 0.063918
C8    C     C_R   0.687615 0.498424 0.504280 -0.135346
C9    C     C_R   0.689754 0.499172 0.441564 0.137628
C10   C     C_R   0.753285 0.501640 0.441433 -0.213958
C11   C     C_R   0.814718 0.505621 0.501468 -0.133689
C12   C     C_3   0.290494 0.709137 0.082401 0.177144
C13   C     C_3   0.707015 0.231098 0.028390 -0.215459
C14   C     C_3   0.704057 0.311888 0.971469 -0.122029
C15   C     C_1   0.625719 0.374389 0.750162 -0.172520
C16   C     C_R   0.379588 0.501605 0.496634 0.776052
C17   C     C_1   0.875609 0.124878 0.249859 -0.159508
C18   C     C_3   0.711893 0.210185 0.972880 -0.236122
C19   C     C_3   0.710037 0.290430 0.917449 0.116870
C20   C     C_3   0.796972 0.188736 0.027478 0.567201
C21   C     C_3   0.792189 0.208676 0.082549 0.114881
C22   C     C_3   0.795451 0.268356 0.971426 -0.236775
C23   C     C_3   0.201295 0.716602 0.972991 -0.144372
C24   C     C_3   0.789911 0.288793 0.026971 -0.215581
C25   C     C_1   0.663855 0.336431 0.825646 -0.041099
C26   C     C_1   0.838083 0.162639 0.174379 -0.008120
C27   C     C_R   0.252648 0.484927 0.376687 -0.170889
C28   C     C_R   0.580287 0.419687 0.660295 0.805533
C29   C     C_R   0.196326 0.467692 0.327306 -0.131127
C30   C     C_R   0.138061 0.455530 0.337126 -0.139607
C31   C     C_R   0.134374 0.463165 0.394251 -0.171952
C32   C     C_R   0.189465 0.483278 0.442939 0.099984
C33   C     C_R   0.251602 0.490216 0.437350 0.095081
C34   C     C_3   0.207846 0.791299 0.917598 0.176481
C35   C     C_R   0.310265 0.503354 0.491749 -0.096876
C36   C     C_R   0.304896 0.513840 0.546559 -0.194618
C37   C     C_R   0.242803 0.510104 0.549555 -0.201624
C38   C     C_R   0.184946 0.495466 0.498080 -0.101550
C39   C     C_R   0.999578 0.881648 0.499213 0.817613
C40   C     C_3   0.292759 0.758279 0.971397 -0.150248
C41   C     C_R   0.079940 0.919774 0.660313 0.825901
C42   C     C_R   0.001560 0.117044 0.503228 0.774271
C43   C     C_R   0.920073 0.080016 0.339717 0.803810
C44   C     C_R   0.002898 0.619177 0.499664 0.802820
C45   C     C_3   0.205577 0.742145 0.028615 -0.163596
C46   C     C_R   0.881170 0.502946 0.500359 0.802106
C47   C     C_R   0.997860 0.380859 0.500294 0.784312
C48   C     C_R   0.118821 0.497786 0.499642 0.784548
C49   C     C_R   0.996389 0.882977 0.366045 -0.143269
C50   C     C_R   0.004187 0.881323 0.308007 -0.117784
C51   C     C_R   0.017277 0.814513 0.315593 -0.145919
C52   C     C_3   0.297034 0.783832 0.026996 -0.149017
C53   C     C_R   0.019698 0.749601 0.379268 -0.152997
C54   C     C_R   0.008324 0.750596 0.436572 0.099167
C55   C     C_R   0.001031 0.817277 0.432876 0.059461
C56   C     C_3   0.211423 0.817544 0.971811 -0.160982
C57   C     C_R   0.998407 0.816566 0.495892 -0.151954
C58   C     C_R   0.999644 0.751479 0.559286 0.148336
C59   C     C_R   0.002118 0.687813 0.559399 -0.208667
C60   C     C_R   0.005591 0.686731 0.498580 -0.150319
C61   C     C_R   0.984824 0.123892 0.623902 -0.167524
C62   C     C_R   0.967709 0.130654 0.673807 -0.136187
C63   C     C_R   0.955652 0.198676 0.664099 -0.130920
C64   C     C_1   0.374629 0.625529 0.249771 -0.147700
C65   C     C_R   0.963227 0.259638 0.606518 -0.163811
C66   C     C_R   0.983259 0.253411 0.557315 0.095756
C67   C     C_1   0.336657 0.663309 0.174259 -0.053488
C68   C     C_R   0.990150 0.185707 0.562856 0.097126
C69   C     C_R   0.003271 0.181554 0.508028 -0.094777
C70   C     C_R   0.013657 0.241896 0.452712 -0.192340
C71   C     C_R   0.009904 0.307008 0.449696 -0.199624
C72   C     C_R   0.995417 0.313220 0.501723 -0.095836
C73   C     C_1   0.124426 0.874849 0.750225 -0.146821
C74   C     C_3   0.286909 0.682892 0.028183 -0.144278
C75   C     C_3   0.840677 0.117674 0.998301 -0.324993
C76   C     C_1   0.161958 0.837135 0.825740 -0.052235
C77   C     C_R   0.750326 0.497431 0.632748 -0.199200
Cu1   Cu    Cu3+1 0.500040 0.438210 0.499990 0.987564
Cu2   Cu    Cu3+1 0.499960 0.561790 0.500010 0.970156
Cu3   Cu    Cu3+1 0.061810 0.999860 0.500010 0.968471
Cu4   Cu    Cu3+1 0.938190 0.999990 0.499990 0.994628
Cu5   Cu    Cu3+1 0.958570 0.541460 0.417120 0.953723
Cu6   Cu    Cu3+1 0.041430 0.458560 0.582880 0.966184
H1    H     H_    0.336894 0.811017 0.050148 0.140757
H2    H     H_    0.328159 0.765369 0.946926 0.142232
H3    H     H_    0.296099 0.494995 0.365789 0.146337
H4    H     H_    0.198201 0.463228 0.281641 0.140534
H5    H     H_    0.095197 0.440665 0.299869 0.135687
H6    H     H_    0.088569 0.452127 0.400389 0.143968
H7    H     H_    0.239476 0.519615 0.591667 0.158481
H8    H     H_    0.986277 0.936251 0.357516 0.143182
H9    H     H_    0.001076 0.931903 0.257627 0.153551
H10   H     H_    0.025354 0.812981 0.271774 0.138316
H11   H     H_    0.032113 0.698881 0.383678 0.153548
H12   H     H_    0.916160 0.533632 0.613869 0.166645
H13   H     H_    0.179884 0.873409 0.947665 0.134980
H14   H     H_    0.000929 0.638701 0.607395 0.190637
H15   H     H_    0.023638 0.238983 0.410637 0.154592
H16   H     H_    0.994760 0.069602 0.634681 0.145513
H17   H     H_    0.963245 0.083023 0.719786 0.137072
H18   H     H_    0.940886 0.204120 0.701782 0.139136
H19   H     H_    0.952183 0.311560 0.600427 0.151844
H20   H     H_    0.019285 0.352572 0.407139 0.144473
H21   H     H_    0.170194 0.735032 0.053111 0.137020
H22   H     H_    0.161432 0.689430 0.949810 0.153653
H23   H     H_    0.754741 0.500095 0.393984 0.181621
H24   H     H_    0.318448 0.627033 0.052319 0.148655
H25   H     H_    0.705746 0.487142 0.641575 0.151321
H26   H     H_    0.808864 0.503091 0.739684 0.159681
H27   H     H_    0.853248 0.164383 0.958277 0.159483
H28   H     H_    0.784472 0.116350 0.959633 0.160286
H29   H     H_    0.881269 0.064939 0.027060 0.192695
H30   H     H_    0.664886 0.363604 0.947021 0.144467
H31   H     H_    0.671352 0.215783 0.052765 0.156814
H32   H     H_    0.821945 0.320597 0.050186 0.154804
H33   H     H_    0.831273 0.283766 0.947274 0.142435
H34   H     H_    0.679784 0.178267 0.949937 0.141990
H35   H     H_    0.349617 0.523879 0.588267 0.157683
I1    I     I_    0.956430 0.535589 0.766033 -0.360036
I2    I     I_    0.001814 0.743286 0.660125 -0.312513
I3    I     I_    0.597890 0.500710 0.341585 -0.361523
O1    O     O_R   0.590210 0.447820 0.500000 -0.557322
O2    O     O_R   0.034940 0.555150 0.570020 -0.583666
O3    O     O_R   0.874830 0.535020 0.430000 -0.576157
O4    O     O_R   0.590150 0.552170 0.500020 -0.584216
O5    O     O_R   0.944810 0.465010 0.569970 -0.596788
O6    O     O_R   0.965060 0.444870 0.429980 -0.588229
O7    O     O_R   0.035040 0.374860 0.569950 -0.585452
O8    O     O_R   0.055190 0.535000 0.430030 -0.599757
O9    O     O_R   0.125170 0.465000 0.570000 -0.576273
O10   O     O_R   0.439580 0.508290 0.379070 -0.571842
O11   O     O_R   0.439510 0.612640 0.379090 -0.578209
O12   O     O_R   0.947780 0.909820 0.499990 -0.554989
O13   O     O_R   0.409850 0.447830 0.499980 -0.587882
O14   O     O_R   0.409790 0.552180 0.500000 -0.583445
O15   O     O_R   0.560490 0.387360 0.620910 -0.576632
O16   O     O_R   0.560420 0.491710 0.620930 -0.586055
O17   O     O_R   0.052170 0.909710 0.500000 -0.588049
O18   O     O_3   0.848170 0.121926 0.062814 -0.580659
O19   O     O_R   0.112650 0.939420 0.620930 -0.578076
O20   O     O_R   0.008260 0.939530 0.620910 -0.573065
O21   O     O_R   0.052220 0.090030 0.500010 -0.583273
O22   O     O_R   0.947830 0.090140 0.500000 -0.586994
O23   O     O_R   0.991740 0.060320 0.379090 -0.585454
O24   O     O_R   0.887350 0.060430 0.379070 -0.574079
O25   O     O_R   0.964960 0.625150 0.430050 -0.587398

loop_
_geom_bond_atom_site_label_1
_geom_bond_atom_site_label_2
_ccdc_geom_bond_type
C66   C68   A    
C21   C26   S    
C63   C65   A    
C2    H26   S    
C34   C56   S    
C23   C45   S    
C12   C74   S    
C27   C29   A    
C1    C8    S    
C35   C36   A    
Cu6   O7    S    
C63   H18   S    
C16   O13   A    
C46   O3    A    
C15   C28   S    
C7    C8    A    
C4    O11   A    
C54   C60   A    
C53   C54   A    
C27   C33   A    
C75   H29   S    
C37   C38   A    
C13   C18   S    
C34   C40   S    
C17   C26   T    
C20   O18   S    
C36   C37   A    
C1    O4    A    
C69   C70   A    
C16   C35   S    
C30   C31   A    
C15   C25   T    
C39   C57   S    
C18   C19   S    
C14   C24   S    
C52   H1    S    
C1    O1    A    
C41   O19   A    
C12   C52   S    
C74   H24   S    
C66   C72   A    
C45   C56   S    
C8    C9    A    
C31   H6    S    
C42   O21   A    
C44   O25   A    
C70   C71   A    
C32   C38   A    
C29   C30   A    
C36   H35   S    
C9    C10   A    
C38   C48   S    
C13   H31   S    
C7    C77   A    
C22   H33   S    
Cu2   O4    S    
C39   O17   A    
C59   C60   A    
C13   C14   S    
C48   O9    A    
C43   O23   A    
C61   H16   S    
C65   H19   S    
C49   H8    S    
Cu1   O1    S    
Cu5   O3    S    
C5    H12   S    
C4    O10   A    
C47   C72   S    
C12   C67   S    
C64   C67   T    
C47   O7    A    
C19   C22   S    
Cu6   O9    S    
C6    C11   A    
Cu1   Cu2   S    
C68   C69   A    
Cu3   O23   S    
C58   C59   A    
C40   C52   S    
Cu5   Cu6   S    
C42   C69   S    
C51   C53   A    
C40   H2    S    
C27   H3    S    
Cu1   O10   S    
C17   C43   S    
C41   O20   A    
C62   C63   A    
C43   O24   A    
C45   H21   S    
C9    I3    S    
C31   C32   A    
C23   C34   S    
C49   C55   A    
C58   I2    S    
C50   C51   A    
C13   C21   S    
Cu5   O8    S    
Cu4   O12   S    
Cu1   O13   S    
C18   H34   S    
C3    I1    S    
C51   H10   S    
C62   H17   S    
C37   H7    S    
C50   H9    S    
Cu2   O16   S    
C20   C22   S    
C65   C66   A    
Cu4   O24   S    
C55   C57   A    
C59   H14   S    
C73   C76   T    
C22   C24   S    
C48   O8    A    
C10   H23   S    
Cu5   O25   S    
Cu6   O5    S    
C30   H5    S    
C39   O12   A    
C56   H13   S    
C71   H20   S    
C54   C55   A    
C75   H27   S    
C53   H11   S    
C28   O15   A    
C75   H28   S    
C14   C19   S    
C46   O5    A    
C77   H25   S    
C28   O16   A    
Cu3   Cu4   S    
C3    C5    A    
C47   O6    A    
C6    C7    A    
C12   C45   S    
C14   H30   S    
Cu2   O14   S    
C4    C64   S    
C44   O2    A    
Cu3   O21   S    
C32   C33   A    
C2    C3    A    
C71   C72   A    
C2    C77   A    
Cu3   O19   S    
C61   C68   A    
C57   C58   A    
C5    C6    A    
C44   C60   S    
Cu3   O17   S    
Cu2   O11   S    
Cu4   O20   S    
C33   C35   A    
C40   C74   S    
C18   C20   S    
C61   C62   A    
C19   C25   S    
Cu5   O6    S    
C29   H4    S    
C10   C11   A    
C41   C73   S    
C70   H15   S    
Cu4   O22   S    
C20   C21   S    
C24   H32   S    
C49   C50   A    
C21   C24   S    
C42   O22   A    
C11   C46   S    
C75   O18   S    
C23   C74   S    
Cu6   O2    S    
C16   O14   A    
Cu1   O15   S    
C52   C56   S    
C34   C76   S    
C23   H22   S    
