data_mof_unit_18238.cif
_audit_creation_date              2012-12-10T18:58:12-0500
_audit_creation_method            fapswitch 2.2
_symmetry_space_group_name_H-M    P1
_symmetry_Int_Tables_number       1
_space_group_crystal_system       triclinic
_cell_length_a                    10.970132
_cell_length_b                    10.833744
_cell_length_c                    9.677781
_cell_angle_alpha                 90.311257
_cell_angle_beta                  102.594333
_cell_angle_gamma                 95.582154
_cell_volume                      1116.76223294

loop_
_atom_site_label
_atom_site_type_symbol
_atom_type_description
_atom_site_fract_x
_atom_site_fract_y
_atom_site_fract_z
_atom_type_partial_charge
C1    C     C_R   0.508958 0.263764 0.502083 0.851778
C2    C     C_R   0.521457 0.131123 0.505580 -0.056443
C3    C     C_R   0.526602 0.065186 0.382701 -0.196535
C4    C     C_R   0.512175 0.936359 0.378572 -0.101606
C5    C     C_R   0.502211 0.871111 0.501110 -0.026095
C6    C     C_R   0.502916 0.937106 0.625873 0.094404
C7    C     C_3   0.591339 0.927931 0.765272 -0.475588
C8    C     C_3   0.618096 0.067511 0.763840 0.228678
C9    C     C_R   0.567799 0.591928 0.090108 0.189225
C10   C     C_R   0.420207 0.414713 0.054531 0.081681
C11   C     C_R   0.418524 0.414544 0.903367 0.490652
C12   C     C_R   0.263394 0.503563 0.442472 0.932914
C13   C     C_R   0.566725 0.591958 0.943707 0.098074
C14   C     C_3   0.703979 0.624653 0.967916 -0.475838
C15   C     C_3   0.707612 0.620741 0.124943 0.251029
C16   C     C_R   0.501208 0.737349 0.500597 0.852921
C17   C     C_R   0.738810 0.504685 0.558114 0.774995
C18   C     C_2   0.127206 0.497790 0.413344 -0.381261
C19   C     C_2   0.068646 0.569795 0.486068 0.514049
C20   C     C_2   0.878299 0.523171 0.589029 0.221371
C21   C     C_2   0.934559 0.535967 0.477922 -0.247635
C22   C     C_R   0.517910 0.065965 0.629189 0.099190
Cu1   Cu    Cu3+1 0.499990 0.499980 0.640670 1.082509
Cu2   Cu    Cu3+1 0.500010 0.500020 0.359330 0.998732
H1    H     H_    0.880164 0.515715 0.372141 0.133751
H2    H     H_    0.751680 0.549607 0.931842 0.240086
H3    H     H_    0.727584 0.717785 0.928037 0.226207
H4    H     H_    0.756182 0.542257 0.174659 0.086542
H5    H     H_    0.075113 0.419617 0.348392 0.130304
H6    H     H_    0.543190 0.113068 0.290374 0.166635
H7    H     H_    0.513224 0.888226 0.280749 0.213021
H8    H     H_    0.540615 0.896319 0.848418 0.230098
H9    H     H_    0.671532 0.874660 0.758800 0.195954
H10   H     H_    0.595519 0.116152 0.854879 0.147859
N1    N     N_R   0.500780 0.500930 0.148120 -0.253333
N2    N     N_R   0.500790 0.500890 0.852210 -0.255068
O1    O     O_R   0.500000 0.319640 0.618810 -0.508390
O2    O     O_R   0.500010 0.319680 0.381230 -0.618495
O3    O     O_R   0.320680 0.500000 0.575130 -0.471355
O4    O     O_R   0.320690 0.500040 0.337550 -0.610494
O5    O     O_R   0.499990 0.680320 0.618770 -0.575002
O6    O     O_R   0.500000 0.680360 0.381190 -0.551025
O7    O     O_R   0.679310 0.499960 0.662450 -0.562291
O8    O     O_R   0.679320 0.500000 0.424870 -0.588596
S1    S     S_3+6 0.773626 0.113359 0.738874 0.051095
O9    O     O_2   0.780547 0.243918 0.688516 -0.249160
O10   O     O_2   0.866675 0.107187 0.877356 -0.228842
O11   O     O_3   0.809504 0.020152 0.616858 -0.484997
H11   H     H_    0.854080 0.954525 0.671174 0.369435
C23   C     C_3   0.325430 0.323974 0.109255 -0.265157
C24   C     C_3   0.342713 0.185427 0.102535 -0.672893
H12   H     H_    0.268394 0.134837 0.020218 0.314302
H13   H     H_    0.437021 0.171423 0.085079 0.245951
H14   H     H_    0.330162 0.140765 0.202155 0.210143
H15   H     H_    0.327303 0.338082 0.218275 0.241160
H16   H     H_    0.228085 0.343197 0.062262 0.239476
S2    S     S_3+6 0.314852 0.289689 0.792440 0.046763
O12   O     O_2   0.375833 0.172300 0.826407 -0.380264
O13   O     O_2   0.189415 0.275446 0.831947 -0.233276
O14   O     O_3   0.275219 0.287812 0.615273 -0.512663
H17   H     H_    0.228939 0.205216 0.586803 0.369234
S3    S     S_3+6 0.762324 0.768187 0.212643 0.036440
O15   O     O_2   0.748921 0.763912 0.363698 -0.285578
O16   O     O_2   0.898563 0.797644 0.210175 -0.199813
O17   O     O_3   0.679783 0.878897 0.128002 -0.573383
H18   H     H_    0.720538 0.957797 0.176583 0.384560
S4    S     S_3+6 0.138116 0.719183 0.554169 0.084213
O18   O     O_2   0.234703 0.708598 0.688883 -0.237438
O19   O     O_2   0.200561 0.782666 0.446343 -0.311151
O20   O     O_3   0.026683 0.804603 0.585911 -0.479578
H19   H     H_    0.072045 0.885970 0.621779 0.390570
S5    S     S_3+6 0.965365 0.533409 0.767948 0.101303
O21   O     O_2   0.907907 0.440298 0.855529 -0.233342
O22   O     O_2   0.098729 0.507568 0.776843 -0.184461
O23   O     O_3   0.965054 0.676522 0.836084 -0.451894
H20   H     H_    0.887210 0.707931 0.782298 0.321633

loop_
_geom_bond_atom_site_label_1
_geom_bond_atom_site_label_2
_ccdc_geom_bond_type
Cu2   O6    S    
C15   H4    S    
C7    C8    S    
S1    O9    D    
C11   N2    A    
C19   C21   S    
C18   C19   D    
C5    C6    A    
S2    O13   D    
C6    C22   A    
C17   C20   S    
Cu1   O7    S    
C1    C2    S    
C9    C13   A    
C8    S1    S    
C5    C16   S    
S3    O16   D    
C2    C22   A    
Cu2   O2    S    
Cu1   Cu2   S    
C19   S4    S    
C10   N1    A    
C14   H3    S    
C1    O1    A    
C13   C14   S    
C7    H9    S    
S5    O23   S    
S1    O10   D    
Cu2   N1    S    
C24   H12   S    
C13   N2    A    
S5    O22   D    
S5    O21   D    
S2    O14   S    
Cu1   O1    S    
C23   H16   S    
S4    O18   D    
O14   H17   S    
C24   H13   S    
C12   O4    A    
C3    H6    S    
O23   H20   S    
C17   O7    A    
S3    O15   D    
C8    C22   S    
C23   C24   S    
C18   H5    S    
C8    H10   S    
C14   H2    S    
O20   H19   S    
C1    O2    A    
O11   H11   S    
O17   H18   S    
Cu2   O8    S    
C3    C4    A    
C10   C23   S    
C16   O6    A    
S1    O11   S    
C21   H1    S    
C7    H8    S    
S3    O17   S    
C4    C5    A    
C6    C7    S    
C23   H15   S    
Cu1   O5    S    
C24   H14   S    
S4    O20   S    
C12   O3    A    
C2    C3    A    
C9    C15   S    
C17   O8    A    
S2    O12   D    
Cu1   O3    S    
Cu2   O4    S    
C15   S3    S    
C4    H7    S    
C10   C11   A    
C20   C21   D    
Cu1   N2    S    
C12   C18   S    
C9    N1    A    
C14   C15   S    
C20   S5    S    
S4    O19   D    
C11   S2    S    
C16   O5    A    
