data_mof_unit_18043.cif
_audit_creation_date              2012-12-11T15:50:34-0500
_audit_creation_method            fapswitch 2.2
_symmetry_space_group_name_H-M    P1
_symmetry_Int_Tables_number       1
_space_group_crystal_system       triclinic
_cell_length_a                    18.899596
_cell_length_b                    11.051594
_cell_length_c                    18.732933
_cell_angle_alpha                 90.048013
_cell_angle_beta                  91.24775
_cell_angle_gamma                 89.911077
_cell_volume                      3911.82635356

loop_
_atom_site_label
_atom_site_type_symbol
_atom_type_description
_atom_site_fract_x
_atom_site_fract_y
_atom_site_fract_z
_atom_type_partial_charge
C1    C     C_R   0.273340 0.040453 0.854386 0.545895
C2    C     C_R   0.758499 0.577231 0.927256 0.017813
C3    C     C_R   0.229654 0.548908 0.352268 0.544160
C4    C     C_R   0.463747 0.822551 0.643667 0.537650
C5    C     C_R   0.527720 0.822420 0.351239 0.524509
C6    C     C_R   0.972588 0.322181 0.649108 0.525596
C7    C     C_R   0.034161 0.322944 0.355091 0.537113
C8    C     C_R   0.274603 0.690944 0.636876 0.574231
C9    C     C_R   0.725522 0.691349 0.363104 0.566448
C10   C     C_R   0.774425 0.191448 0.636911 0.567319
C11   C     C_R   0.225459 0.190715 0.363146 0.574090
C12   C     C_3   0.470990 0.929311 0.028190 -0.129433
C13   C     C_R   0.736674 0.059724 0.069626 0.016794
C14   C     C_3   0.529777 0.927846 0.971849 -0.126047
C15   C     C_3   0.986126 0.442578 0.025527 -0.119911
C16   C     C_3   0.042582 0.410538 0.969764 -0.133819
C17   C     C_3   0.430147 0.830339 0.985994 -0.104401
C18   C     C_3   0.569366 0.827562 0.014213 -0.099060
C19   C     C_3   0.931976 0.360760 0.985628 -0.111467
C20   C     C_3   0.066092 0.300527 0.015215 -0.099757
C21   C     C_3   0.489682 0.828586 0.931095 0.054108
C22   C     C_3   0.509848 0.828713 0.069127 0.054197
C23   C     C_3   0.989148 0.328383 0.931474 0.054006
C24   C     C_R   0.258566 0.077155 0.927062 0.015085
C25   C     C_3   0.008856 0.331626 0.069591 0.056669
C26   C     C_R   0.210655 0.848330 0.373408 0.049560
C27   C     C_R   0.282594 0.881028 0.381945 -0.080692
C28   C     C_R   0.321918 0.914286 0.322724 -0.086396
C29   C     C_R   0.290976 0.912286 0.254492 -0.076342
C30   C     C_R   0.220012 0.880068 0.245382 -0.064204
C31   C     C_R   0.179780 0.850235 0.304435 -0.037418
C32   C     C_R   0.909411 0.722888 0.570948 0.064829
C33   C     C_R   0.864436 0.799298 0.609764 -0.053884
C34   C     C_R   0.892168 0.872734 0.664257 -0.097315
C35   C     C_R   0.305799 0.551306 0.040058 -0.002890
C36   C     C_R   0.965103 0.880200 0.676129 -0.114115
C37   C     C_R   0.010561 0.815679 0.632467 -0.139538
C38   C     C_R   0.982898 0.739771 0.579075 -0.109526
C39   C     C_R   0.592414 0.228830 0.426591 0.064396
C40   C     C_R   0.639000 0.303068 0.388533 -0.054517
C41   C     C_R   0.613441 0.374484 0.332115 -0.090766
C42   C     C_R   0.540927 0.383018 0.317749 -0.108924
C43   C     C_R   0.493717 0.320906 0.360510 -0.141131
C44   C     C_R   0.519279 0.246485 0.415643 -0.111084
C45   C     C_R   0.297037 0.343707 0.622784 0.045791
C46   C     C_R   0.694735 0.551632 0.960485 -0.001328
C47   C     C_R   0.225298 0.378312 0.614353 -0.081959
C48   C     C_R   0.186371 0.413382 0.673520 -0.086536
C49   C     C_R   0.217741 0.412678 0.741576 -0.070333
C50   C     C_R   0.288797 0.380353 0.750468 -0.059272
C51   C     C_R   0.328536 0.348053 0.691426 -0.040554
C52   C     C_R   0.793469 0.012688 0.032431 0.017109
C53   C     C_R   0.194454 0.053538 0.960047 0.001593
C54   C     C_R   0.311184 0.561711 0.966394 0.028927
C55   C     C_R   0.689166 0.561745 0.034187 0.027924
C56   C     C_R   0.798187 0.023296 0.960562 0.021617
C57   C     C_R   0.725625 0.037072 0.144562 0.544604
C58   C     C_R   0.189145 0.062361 0.033730 0.020814
C59   C     C_R   0.189346 0.625621 0.958049 -0.182804
C60   C     C_R   0.812317 0.617360 0.043557 -0.171566
C61   C     C_R   0.684727 0.118102 0.954547 -0.179614
C62   C     C_R   0.312033 0.118676 0.043322 -0.180692
C63   C     C_R   0.185401 0.622755 0.031456 -0.165466
C64   C     C_R   0.816191 0.616950 0.969993 -0.168017
C65   C     C_R   0.680681 0.110515 0.028452 -0.171773
C66   C     C_R   0.316376 0.116094 0.969855 -0.168067
C67   C     C_3   0.348564 0.438111 0.042740 -0.269329
C68   C     C_R   0.773403 0.540296 0.854523 0.542754
C69   C     C_3   0.651418 0.439314 0.957416 -0.274049
C70   C     C_3   0.862127 0.947160 0.040002 -0.274618
C71   C     C_3   0.148884 0.944009 0.956062 -0.268335
C72   C     C_3   0.354691 0.448939 0.962502 -0.283097
C73   C     C_3   0.644612 0.450364 0.037556 -0.281339
C74   C     C_3   0.868768 0.963640 0.958693 -0.277977
C75   C     C_3   0.142990 0.952935 0.036461 -0.282285
C76   C     C_R   0.251965 0.593602 0.924143 0.006453
C77   C     C_R   0.748690 0.590178 0.076847 0.017743
C78   C     C_R   0.746499 0.081935 0.919447 0.018985
C79   C     C_R   0.226848 0.540781 0.145785 0.547586
C80   C     C_R   0.248554 0.090541 0.076607 0.004731
C81   C     C_R   0.489199 0.823860 0.417846 0.005882
C82   C     C_R   0.475268 0.827662 0.567194 0.012510
C83   C     C_R   0.018924 0.328789 0.430338 0.012929
C84   C     C_R   0.007074 0.322319 0.580551 0.008352
C85   C     C_R   0.470270 0.821571 0.855470 0.548597
C86   C     C_R   0.529507 0.821647 0.144674 0.539965
C87   C     C_R   0.969439 0.321391 0.855922 0.542676
C88   C     C_R   0.029384 0.322119 0.144806 0.546198
C89   C     C_R   0.482328 0.716668 0.456846 0.027452
C90   C     C_3   0.528639 0.728512 0.972386 -0.118022
C91   C     C_R   0.478802 0.719589 0.529068 0.021379
C92   C     C_R   0.004433 0.222563 0.466919 0.014880
C93   C     C_R   0.003744 0.217936 0.538578 0.025082
C94   C     C_R   0.463145 0.934178 0.526756 -0.176701
C95   C     C_R   0.469168 0.931280 0.451699 -0.196846
C96   C     C_R   0.030823 0.427930 0.547464 -0.197133
C97   C     C_R   0.036232 0.432027 0.472301 -0.177638
C98   C     C_3   0.514356 0.592080 0.458153 -0.256256
C99   C     C_3   0.510787 0.596835 0.539218 -0.275066
C100  C     C_3   0.984106 0.092106 0.457720 -0.274563
C101  C     C_3   0.469649 0.729964 0.028027 -0.120333
C102  C     C_3   0.981545 0.087840 0.539282 -0.255176
C103  C     C_R   0.251174 0.606036 0.418059 0.018022
C104  C     C_R   0.754818 0.591183 0.577874 0.020573
C105  C     C_R   0.745065 0.091772 0.422096 0.019699
C106  C     C_R   0.249816 0.104143 0.581259 0.017285
C107  C     C_R   0.198564 0.668684 0.453823 0.021595
C108  C     C_R   0.807295 0.573938 0.528130 0.010340
C109  C     C_R   0.692040 0.076296 0.471490 0.012625
C110  C     C_R   0.304005 0.160104 0.544348 0.023935
C111  C     C_R   0.208497 0.701722 0.523905 -0.001741
C112  C     C_3   0.012133 0.218451 0.976021 -0.112077
C113  C     C_R   0.796202 0.601660 0.458118 0.017893
C114  C     C_R   0.702933 0.104753 0.541510 0.019395
C115  C     C_R   0.294311 0.192241 0.474199 0.002891
C116  C     C_R   0.323837 0.609988 0.524573 -0.162341
C117  C     C_R   0.683684 0.691604 0.487526 -0.181095
C118  C     C_R   0.815937 0.192080 0.512563 -0.180619
C119  C     C_R   0.174320 0.120878 0.477105 -0.167435
C120  C     C_R   0.316525 0.585650 0.451688 -0.179739
C121  C     C_R   0.694100 0.656291 0.558835 -0.183872
C122  C     C_R   0.805747 0.156732 0.441262 -0.186054
C123  C     C_3   0.955300 0.250608 0.030914 -0.131125
C124  C     C_R   0.182758 0.093077 0.549516 -0.181032
C125  C     C_3   0.168992 0.789168 0.432672 -0.125478
C126  C     C_3   0.883438 0.614452 0.526804 -0.125881
C127  C     C_3   0.616499 0.120825 0.472148 -0.125940
C128  C     C_3   0.337089 0.278628 0.564275 -0.126643
C129  C     C_3   0.183943 0.827190 0.508985 -0.260810
C130  C     C_3   0.871041 0.643771 0.449082 -0.256752
C131  C     C_3   0.628863 0.151638 0.549608 -0.257077
C132  C     C_3   0.322930 0.315406 0.487811 -0.266249
C133  C     C_R   0.261087 0.637142 0.851902 0.537287
C134  C     C_R   0.242404 0.578914 0.073603 0.016566
C135  C     C_R   0.739358 0.635529 0.148760 0.549551
C136  C     C_R   0.759816 0.133549 0.850046 0.551759
C137  C     C_R   0.239070 0.136500 0.148350 0.538150
C138  C     C_R   0.269854 0.668564 0.560950 0.009581
C139  C     C_R   0.733893 0.659202 0.436646 0.028102
C140  C     C_R   0.765820 0.159821 0.563295 0.026269
C141  C     C_R   0.230822 0.167181 0.438822 0.009115
C142  C     C_R   0.270409 0.048658 0.647681 0.544608
C143  C     C_R   0.729781 0.049936 0.351631 0.531992
C144  C     C_R   0.770240 0.549729 0.648333 0.532127
Cr1   Cr    Cr6+3 0.229640 0.835880 0.747370 0.988760
Cr2   Cr    Cr6+3 0.614230 0.677220 0.250660 0.981615
Cr3   Cr    Cr6+3 0.885770 0.177220 0.749340 0.980203
Cr4   Cr    Cr6+3 0.114230 0.177220 0.250660 0.996337
Cr5   Cr    Cr6+3 0.770360 0.835880 0.252630 0.999224
Cr6   Cr    Cr6+3 0.729640 0.335880 0.747370 0.997028
Cr7   Cr    Cr6+3 0.270360 0.335880 0.252630 0.989053
Cr8   Cr    Cr6+3 0.387390 0.989720 0.750850 0.991182
Cr9   Cr    Cr6+3 0.612610 0.989720 0.249150 1.010696
Cr10  Cr    Cr6+3 0.887390 0.489720 0.750850 1.011413
Cr11  Cr    Cr6+3 0.112610 0.489720 0.249150 0.990697
Cr12  Cr    Cr6+3 0.385770 0.677220 0.749340 0.996793
H1    H     H_    0.372576 0.831640 0.972661 0.122987
H2    H     H_    0.927871 0.072346 0.559967 0.177638
H3    H     H_    0.568755 0.585831 0.437893 0.179161
H4    H     H_    0.475859 0.526726 0.561435 0.127215
H5    H     H_    0.477703 0.524231 0.434793 0.134300
H6    H     H_    0.562598 0.598307 0.566401 0.144113
H7    H     H_    0.932463 0.077475 0.431277 0.143013
H8    H     H_    0.022841 0.028734 0.563222 0.133381
H9    H     H_    0.369155 0.577789 0.553678 0.149632
H10   H     H_    0.638599 0.747236 0.472623 0.117978
H11   H     H_    0.860765 0.247576 0.527749 0.122296
H12   H     H_    0.626937 0.826586 0.027536 0.126060
H13   H     H_    0.125638 0.102715 0.449813 0.149721
H14   H     H_    0.357822 0.538552 0.424030 0.122742
H15   H     H_    0.658438 0.685932 0.599683 0.111294
H16   H     H_    0.841841 0.185801 0.400703 0.113516
H17   H     H_    0.139983 0.053553 0.578675 0.121895
H18   H     H_    0.111202 0.782454 0.420410 0.108962
H19   H     H_    0.916610 0.533956 0.535045 0.145869
H20   H     H_    0.582098 0.041841 0.464616 0.142985
H21   H     H_    0.394646 0.267340 0.576521 0.108577
H22   H     H_    0.228743 0.889993 0.516473 0.142745
H23   H     H_    0.876235 0.383599 0.971464 0.125022
H24   H     H_    0.874804 0.742024 0.436573 0.156088
H25   H     H_    0.626941 0.250412 0.561260 0.155409
H26   H     H_    0.279598 0.380950 0.479874 0.143445
H27   H     H_    0.135254 0.849577 0.538169 0.119273
H28   H     H_    0.901025 0.583689 0.412883 0.134379
H29   H     H_    0.597498 0.094501 0.586082 0.133706
H30   H     H_    0.371817 0.332751 0.457914 0.117773
H31   H     H_    0.448755 0.010900 0.053603 0.105245
H32   H     H_    0.553015 0.008196 0.946179 0.111280
H33   H     H_    0.975256 0.533867 0.047454 0.104869
H34   H     H_    0.121960 0.278842 0.029275 0.124737
H35   H     H_    0.077747 0.473412 0.941554 0.108998
H36   H     H_    0.551922 0.647285 0.947467 0.121794
H37   H     H_    0.445434 0.649948 0.053175 0.121433
H38   H     H_    0.023961 0.127305 0.954719 0.112668
H39   H     H_    0.917670 0.191466 0.058481 0.113447
H40   H     H_    0.143240 0.656632 0.927883 0.129074
H41   H     H_    0.859074 0.642771 0.074463 0.125015
H42   H     H_    0.640921 0.160255 0.925772 0.130559
H43   H     H_    0.358069 0.148167 0.074015 0.128010
H44   H     H_    0.134967 0.646284 0.054158 0.143100
H45   H     H_    0.451369 0.019249 0.552674 0.137737
H46   H     H_    0.867094 0.637715 0.947546 0.141243
H47   H     H_    0.632707 0.143076 0.052633 0.144459
H48   H     H_    0.367324 0.136809 0.947480 0.144880
H49   H     H_    0.854534 0.852064 0.056354 0.157733
H50   H     H_    0.178761 0.863608 0.938452 0.175163
H51   H     H_    0.316696 0.359391 0.059268 0.176651
H52   H     H_    0.683291 0.360227 0.941199 0.173127
H53   H     H_    0.399750 0.449646 0.072210 0.123035
H54   H     H_    0.600580 0.451519 0.927415 0.124756
H55   H     H_    0.902532 0.996226 0.072390 0.125425
H56   H     H_    0.464439 0.013118 0.420936 0.124034
H57   H     H_    0.098177 0.960572 0.926618 0.123775
H58   H     H_    0.409542 0.467780 0.945377 0.138783
H59   H     H_    0.589761 0.471087 0.054113 0.139990
H60   H     H_    0.911071 0.027396 0.943434 0.152382
H61   H     H_    0.088642 0.975378 0.053831 0.141616
H62   H     H_    0.327255 0.375003 0.932759 0.129686
H63   H     H_    0.671007 0.375738 0.067783 0.138083
H64   H     H_    0.867198 0.877145 0.928425 0.135816
H65   H     H_    0.168683 0.876393 0.065407 0.129158
H66   H     H_    0.309507 0.876059 0.433358 0.117272
H67   H     H_    0.040788 0.507564 0.579253 0.123488
H68   H     H_    0.376968 0.938856 0.329263 0.113377
H69   H     H_    0.322147 0.935077 0.208625 0.100288
H70   H     H_    0.196202 0.877101 0.192429 0.097934
H71   H     H_    0.125274 0.822772 0.295820 0.088640
H72   H     H_    0.807894 0.798328 0.601532 0.118162
H73   H     H_    0.856869 0.920825 0.698797 0.148376
H74   H     H_    0.986361 0.937279 0.718374 0.114369
H75   H     H_    0.067190 0.823654 0.640608 0.123712
H76   H     H_    0.018994 0.692212 0.545046 0.092430
H77   H     H_    0.695244 0.301523 0.398761 0.116814
H78   H     H_    0.053565 0.515068 0.447562 0.141045
H79   H     H_    0.650178 0.419907 0.297988 0.147099
H80   H     H_    0.521353 0.438759 0.274110 0.114260
H81   H     H_    0.437361 0.329788 0.350470 0.120148
H82   H     H_    0.481864 0.200676 0.448866 0.089623
H83   H     H_    0.198030 0.372458 0.563144 0.117153
H84   H     H_    0.131260 0.438058 0.667037 0.111683
H85   H     H_    0.186827 0.436620 0.787460 0.098735
H86   H     H_    0.313004 0.378784 0.803270 0.097783
H87   H     H_    0.382948 0.319723 0.699946 0.086377
H88   H     H_    0.024641 0.031774 0.435170 0.130251
O1    O     O_R   0.214300 0.709080 0.827500 -0.532448
O2    O     O_R   0.543340 0.717710 0.330180 -0.533161
O3    O     O_R   0.956660 0.217710 0.669820 -0.532157
O4    O     O_R   0.043340 0.217710 0.330180 -0.530831
O5    O     O_R   0.320590 0.625770 0.672930 -0.502752
O6    O     O_R   0.679410 0.625770 0.327070 -0.523566
O7    O     O_R   0.820590 0.125770 0.672930 -0.523403
O8    O     O_R   0.179410 0.125770 0.327070 -0.501429
O9    O     O_3   0.334270 0.834280 0.749190 -0.270301
O10   O     O_3   0.665730 0.834280 0.250810 -0.268204
O11   O     O_3   0.834270 0.334280 0.749190 -0.267560
O12   O     O_R   0.785700 0.709080 0.172500 -0.525875
O13   O     O_3   0.165730 0.334280 0.250810 -0.268999
O14   O     O_R   0.236190 0.958390 0.823150 -0.502768
O15   O     O_R   0.763810 0.958390 0.176850 -0.501247
O16   O     O_R   0.736190 0.458390 0.823150 -0.504375
O17   O     O_R   0.263810 0.458390 0.176850 -0.502546
O18   O     O_R   0.332090 0.075280 0.831290 -0.534302
O19   O     O_R   0.667910 0.075280 0.168710 -0.529624
O20   O     O_R   0.832090 0.575280 0.831290 -0.528971
O21   O     O_R   0.167910 0.575280 0.168710 -0.534438
O22   O     O_R   0.446280 0.918040 0.826620 -0.501731
O23   O     O_R   0.714300 0.209080 0.827500 -0.532082
O24   O     O_R   0.553720 0.918040 0.173380 -0.504135
O25   O     O_R   0.946280 0.418040 0.826620 -0.503853
O26   O     O_R   0.053720 0.418040 0.173380 -0.502425
O27   O     O_R   0.457080 0.716270 0.831760 -0.521278
O28   O     O_R   0.542920 0.716270 0.168240 -0.525319
O29   O     O_R   0.957080 0.216270 0.831760 -0.530207
O30   O     O_R   0.042920 0.216270 0.168240 -0.521004
O31   O     O_R   0.320980 0.624440 0.823040 -0.497191
O32   O     O_R   0.679020 0.624440 0.176960 -0.501064
O33   O     O_R   0.820980 0.124440 0.823040 -0.501097
O34   O     O_R   0.285700 0.209080 0.172500 -0.531731
O35   O     O_R   0.179020 0.124440 0.176960 -0.497047
O36   O     O_R   0.213880 0.710510 0.665560 -0.518980
O37   O     O_R   0.786120 0.710510 0.334440 -0.523975
O38   O     O_R   0.713880 0.210510 0.665560 -0.522895
O39   O     O_R   0.286120 0.210510 0.334440 -0.517704
O40   O     O_R   0.235800 0.959720 0.673040 -0.529052
O41   O     O_R   0.764200 0.959720 0.326960 -0.519161
O42   O     O_R   0.735800 0.459720 0.673040 -0.518573
O43   O     O_R   0.264200 0.459720 0.326960 -0.529178
O44   O     O_R   0.331670 0.076720 0.669350 -0.525351
O45   O     O_R   0.445900 0.919370 0.676500 -0.509748
O46   O     O_R   0.668330 0.076720 0.330650 -0.509070
O47   O     O_R   0.831670 0.576720 0.669350 -0.509705
O48   O     O_R   0.168330 0.576720 0.330650 -0.526744
O49   O     O_R   0.554100 0.919370 0.323500 -0.503899
O50   O     O_R   0.945900 0.419370 0.676500 -0.502470
O51   O     O_R   0.054100 0.419370 0.323500 -0.510842
O52   O     O_R   0.456660 0.717710 0.669820 -0.529505

loop_
_geom_bond_atom_site_label_1
_geom_bond_atom_site_label_2
_ccdc_geom_bond_type
C115  C141  A    
C82   C94   A    
C86   O24   A    
Cr5   O12   S    
C23   C112  S    
C136  O23   A    
C95   H56   S    
C14   C21   S    
Cr2   O32   S    
C81   C95   A    
C80   C137  S    
C73   H63   S    
C8    C138  S    
C114  C131  S    
C4    O45   A    
C142  O40   A    
C109  C127  S    
C46   C55   A    
C70   C74   S    
C129  H27   S    
Cr2   O10   S    
C117  C139  A    
C10   C140  S    
C118  C140  A    
C35   C134  A    
Cr3   O33   S    
C106  C142  S    
C21   C90   S    
C45   C47   A    
C144  O47   A    
C8    O5    A    
Cr4   O8    S    
C60   C77   A    
C68   O16   A    
Cr12  O5    S    
Cr8   O22   S    
C25   C88   S    
C17   C21   S    
C82   C91   A    
Cr7   O43   S    
C108  C113  A    
C93   C102  S    
C15   C19   S    
C43   C44   A    
C37   C38   A    
C99   H6    S    
C65   H47   S    
Cr9   O46   S    
C16   C20   S    
C94   H45   S    
Cr11  O21   S    
C119  C141  A    
Cr4   O30   S    
C53   C71   S    
C19   H23   S    
C1    O14   A    
C3    C103  S    
C127  H20   S    
Cr10  O50   S    
C69   H52   S    
C7    O51   A    
C40   H77   S    
C44   H82   S    
C49   H85   S    
C53   C58   A    
Cr8   O44   S    
C104  C121  A    
C72   H62   S    
C129  H22   S    
C59   C63   A    
Cr4   O35   S    
Cr1   O1    S    
C60   C64   A    
C58   C80   A    
C10   O38   A    
C30   C31   A    
Cr3   O11   S    
C67   H53   S    
C100  H7    S    
C84   C93   A    
C127  C131  S    
C61   C65   A    
C98   C99   S    
C106  C124  A    
Cr5   O37   S    
C103  C107  A    
C108  C126  S    
C110  C128  S    
C7    C83   S    
C131  H25   S    
C30   H70   S    
C5    O2    A    
C102  H2    S    
Cr12  O27   S    
C90   H36   S    
C19   C123  S    
C62   C80   A    
C36   C37   A    
C62   H43   S    
C2    C68   S    
C15   C25   S    
C13   C57   S    
C75   H61   S    
C12   C22   S    
C118  H11   S    
C56   C78   A    
C67   C72   S    
C118  C122  A    
C32   C126  S    
C43   H81   S    
C113  C139  A    
C114  C140  A    
C135  O12   A    
C89   C91   A    
C17   H1    S    
C100  H88   S    
C66   H48   S    
C15   H33   S    
C3    O48   A    
C125  H18   S    
C115  C132  S    
C113  C130  S    
C62   C66   A    
C144  O42   A    
Cr9   O24   S    
C107  C125  S    
C39   C40   A    
C41   H79   S    
C12   H31   S    
C57   O15   A    
C116  C120  A    
C29   C30   A    
C16   H35   S    
C125  C129  S    
C11   C141  S    
C35   C67   S    
C28   H68   S    
C96   H67   S    
Cr10  O47   S    
C25   C123  S    
C112  H38   S    
Cr3   O29   S    
C130  H24   S    
C109  C114  A    
C119  H13   S    
C47   H83   S    
C131  H29   S    
C16   C23   S    
C34   H73   S    
C74   H64   S    
C68   O20   A    
Cr11  O26   S    
Cr12  O9    S    
Cr7   O13   S    
Cr8   O18   S    
C37   H75   S    
C79   C134  S    
C105  C109  A    
C137  O35   A    
C18   C22   S    
C107  C111  A    
C85   O22   A    
C51   H87   S    
C39   C44   A    
C117  C121  A    
C11   O8    A    
C89   C98   S    
C9    O6    A    
Cr6   O11   S    
C97   H78   S    
C105  C122  A    
C34   C36   A    
Cr9   O19   S    
Cr10  O20   S    
C1    O18   A    
C55   C73   S    
C1    C24   S    
C102  H8    S    
C49   C50   A    
C69   H54   S    
C87   O29   A    
C91   C99   S    
C59   C76   A    
C126  H19   S    
C133  O1    A    
C72   H58   S    
C133  O31   A    
Cr11  O48   S    
C41   C42   A    
C103  C120  A    
C11   O39   A    
Cr4   O13   S    
Cr1   O9    S    
C70   H49   S    
C3    O43   A    
Cr3   O7    S    
C26   C27   A    
C22   C101  S    
C28   C29   A    
Cr7   O34   S    
C20   H34   S    
Cr8   O9    S    
Cr11  O13   S    
C20   C25   S    
C126  C130  S    
C45   C128  S    
C63   H44   S    
Cr5   O15   S    
C132  H26   S    
C20   C112  S    
C111  C129  S    
C12   C17   S    
C69   C73   S    
C24   C66   A    
Cr10  O11   S    
C81   C89   A    
C35   C54   A    
C123  H39   S    
C48   H84   S    
C101  H37   S    
C21   C85   S    
C6    C84   S    
C18   C90   S    
C63   C134  A    
C6    O3    A    
C56   C74   S    
C112  C123  S    
C38   H76   S    
C24   C53   A    
C71   H57   S    
Cr11  O51   S    
C26   C125  S    
C5    O49   A    
C13   C52   A    
C5    C81   S    
C143  O46   A    
C50   C51   A    
C4    C82   S    
C60   H41   S    
C88   O26   A    
C48   C49   A    
C143  O41   A    
C79   O17   A    
C76   C133  S    
C116  H9    S    
C42   C43   A    
C104  C108  A    
C98   H5    S    
C57   O19   A    
Cr1   O14   S    
C61   H42   S    
C59   H40   S    
Cr2   O2    S    
C32   C33   A    
C85   O27   A    
C86   O28   A    
C130  H28   S    
C9    C139  S    
C120  H14   S    
C92   C93   A    
C22   C86   S    
C94   C95   A    
Cr7   O17   S    
C83   C97   A    
C73   H59   S    
C110  C115  A    
C111  C138  A    
C142  O44   A    
Cr9   O10   S    
C31   H71   S    
C14   C18   S    
C19   C23   S    
Cr8   O45   S    
C29   H69   S    
C33   H72   S    
C13   C65   A    
C119  C124  A    
C2    C46   A    
C83   C92   A    
Cr2   O6    S    
C10   O7    A    
C84   C96   A    
C55   C77   A    
C45   C51   A    
C15   C16   S    
Cr4   O4    S    
C14   H32   S    
C135  O32   A    
Cr6   O38   S    
C88   O30   A    
Cr12  O31   S    
C17   C101  S    
Cr6   O16   S    
C42   H80   S    
C71   H50   S    
C46   C69   S    
C104  C144  S    
C32   C38   A    
Cr10  O25   S    
C117  H10   S    
Cr3   O3    S    
C26   C31   A    
C23   C87   S    
C99   H4    S    
C70   H55   S    
C128  C132  S    
C8    O36   A    
C2    C64   A    
C58   C75   S    
C116  C138  A    
C137  O34   A    
C39   C127  S    
Cr12  O52   S    
C132  H30   S    
C18   H12   S    
C124  H17   S    
Cr9   O49   S    
Cr5   O10   S    
C7    O4    A    
C90   C101  S    
Cr7   O39   S    
C47   C48   A    
C61   C78   A    
C96   C97   A    
C100  C102  S    
C33   C34   A    
C9    O37   A    
C54   C76   A    
C40   C41   A    
C121  H15   S    
C12   C14   S    
C122  H16   S    
Cr1   O36   S    
C67   H51   S    
C92   C100  S    
C106  C110  A    
C64   H46   S    
C27   H66   S    
C74   H60   S    
Cr5   O41   S    
C4    O52   A    
C50   H86   S    
C105  C143  S    
C6    O50   A    
C128  H21   S    
Cr6   O42   S    
Cr2   O28   S    
C136  O33   A    
C87   O25   A    
C71   C75   S    
C79   O21   A    
C52   C70   S    
C54   C72   S    
C98   H3    S    
C75   H65   S    
C36   H74   S    
C27   C28   A    
C77   C135  S    
Cr1   O40   S    
C78   C136  S    
Cr6   O23   S    
C52   C56   A    
