data_mof_unit_22557.cif
_audit_creation_date              2012-12-11T14:04:04-0500
_audit_creation_method            fapswitch 2.2
_symmetry_space_group_name_H-M    P1
_symmetry_Int_Tables_number       1
_space_group_crystal_system       triclinic
_cell_length_a                    19.068758
_cell_length_b                    10.940013
_cell_length_c                    18.851451
_cell_angle_alpha                 90.313998
_cell_angle_beta                  89.262961
_cell_angle_gamma                 89.977026
_cell_volume                      3932.26271206

loop_
_atom_site_label
_atom_site_type_symbol
_atom_type_description
_atom_site_fract_x
_atom_site_fract_y
_atom_site_fract_z
_atom_type_partial_charge
C1    C     C_R   0.240144 0.467017 0.646917 0.554008
C2    C     C_R   0.759182 0.465780 0.352477 0.543335
C3    C     C_R   0.740144 0.967017 0.646917 0.554009
C4    C     C_R   0.259182 0.965781 0.352477 0.543335
C5    C     C_2   0.273547 0.821347 0.531942 -0.151585
C6    C     C_2   0.720525 0.829581 0.465826 -0.124369
C7    C     C_2   0.773548 0.321349 0.531942 -0.151585
C8    C     C_2   0.220525 0.329580 0.465826 -0.124368
C9    C     C_R   0.945402 0.655665 0.439307 -0.023786
C10   C     C_R   0.997740 0.652757 0.576593 0.002912
C11   C     C_R   0.445402 0.155665 0.439307 -0.023787
C12   C     C_R   0.497740 0.152757 0.576593 0.002913
C13   C     C_R   0.933410 0.884842 0.453206 -0.081494
C14   C     C_R   0.950876 0.860740 0.597822 -0.082287
C15   C     C_R   0.433409 0.384842 0.453207 -0.081494
C16   C     C_R   0.450875 0.360740 0.597822 -0.082286
C17   C     C_R   0.924977 0.985419 0.498076 -0.062234
C18   C     C_R   0.933230 0.973497 0.570379 -0.103290
C19   C     C_R   0.424977 0.485419 0.498076 -0.062235
C20   C     C_R   0.433230 0.473497 0.570380 -0.103289
C21   C     C_R   0.964394 0.759314 0.552474 0.009338
C22   C     C_R   0.947800 0.766835 0.479986 -0.010599
C23   C     C_R   0.464393 0.259314 0.552474 0.009338
C24   C     C_R   0.447800 0.266834 0.479986 -0.010599
C25   C     C_R   0.998935 0.543633 0.534135 -0.021914
C26   C     C_R   0.958726 0.542428 0.473775 -0.032888
C27   C     C_R   0.498935 0.043633 0.534135 -0.021913
C28   C     C_R   0.458726 0.042428 0.473775 -0.032889
C29   C     C_R   0.037699 0.434342 0.549076 -0.138133
C30   C     C_R   0.941363 0.427480 0.444416 -0.137866
C31   C     C_R   0.537699 0.934342 0.549076 -0.138133
C32   C     C_R   0.441362 0.927481 0.444416 -0.137866
C33   C     C_R   0.024342 0.323011 0.514654 0.284332
C34   C     C_R   0.978071 0.321299 0.459416 0.297437
C35   C     C_R   0.524342 0.823011 0.514654 0.284331
C36   C     C_R   0.478071 0.821299 0.459415 0.297438
C37   C     C_2   0.256057 0.936042 0.914446 -0.102179
C38   C     C_2   0.743886 0.934620 0.085505 -0.103245
C39   C     C_2   0.756057 0.436042 0.914446 -0.102180
C40   C     C_2   0.243887 0.434621 0.085505 -0.103243
C41   C     C_2   0.272168 0.985910 0.066822 -0.099663
C42   C     C_2   0.729903 0.982205 0.932846 -0.108472
C43   C     C_2   0.772168 0.485911 0.066822 -0.099663
C44   C     C_2   0.229901 0.482208 0.932847 -0.108470
C45   C     C_R   0.227459 0.873697 0.647468 0.611984
C46   C     C_R   0.772221 0.874694 0.352125 0.596536
C47   C     C_R   0.727459 0.373697 0.647468 0.611983
C48   C     C_R   0.272221 0.374694 0.352125 0.596536
C49   C     C_2   0.234729 0.056496 0.023292 -0.160473
C50   C     C_2   0.764787 0.055351 0.977530 -0.157135
C51   C     C_2   0.734729 0.556496 0.023292 -0.160473
C52   C     C_2   0.264791 0.555348 0.977529 -0.157133
C53   C     C_2   0.218589 0.020037 0.950345 -0.148671
C54   C     C_2   0.780954 0.019296 0.050303 -0.142924
C55   C     C_2   0.718589 0.520037 0.950345 -0.148672
C56   C     C_2   0.280956 0.519295 0.050302 -0.142924
C57   C     C_2   0.044663 0.656860 0.933049 -0.101256
C58   C     C_2   0.016404 0.662343 0.086709 -0.100174
C59   C     C_2   0.544662 0.156860 0.933049 -0.101256
C60   C     C_2   0.516404 0.162343 0.086709 -0.100174
C61   C     C_2   0.036053 0.561582 0.050706 -0.152293
C62   C     C_2   0.058964 0.563654 0.976264 -0.167651
C63   C     C_2   0.536054 0.061582 0.050706 -0.152293
C64   C     C_2   0.558965 0.063655 0.976264 -0.167651
C65   C     C_R   0.032034 0.652645 0.644536 0.550581
C66   C     C_R   0.935306 0.650852 0.361597 0.551882
C67   C     C_R   0.532034 0.152645 0.644536 0.550581
C68   C     C_R   0.435306 0.150851 0.361597 0.551881
C69   C     C_R   0.224903 0.515738 0.858780 0.548728
C70   C     C_R   0.775680 0.517105 0.141549 0.571457
C71   C     C_R   0.724903 0.015737 0.858780 0.548726
C72   C     C_R   0.275680 0.017105 0.141549 0.571457
C73   C     C_R   0.228023 0.876213 0.851769 0.541559
C74   C     C_R   0.771926 0.875845 0.148235 0.550529
C75   C     C_R   0.728023 0.376214 0.851769 0.541558
C76   C     C_R   0.271926 0.375846 0.148235 0.550529
C77   C     C_R   0.062010 0.648096 0.858128 0.553710
C78   C     C_R   0.972929 0.652294 0.150437 0.564044
C79   C     C_R   0.562010 0.148096 0.858128 0.553710
C80   C     C_R   0.472929 0.152294 0.150437 0.564044
C81   C     C_2   0.250639 0.911080 0.577067 0.245096
C82   C     C_2   0.747282 0.916016 0.421256 0.230868
C83   C     C_2   0.750639 0.411081 0.577066 0.245095
C84   C     C_2   0.247282 0.416016 0.421256 0.230868
C85   C     C_2   0.239715 0.908073 0.419324 -0.104406
C86   C     C_2   0.756522 0.913888 0.578337 -0.128765
C87   C     C_2   0.739715 0.408072 0.419324 -0.104406
C88   C     C_2   0.256522 0.413888 0.578337 -0.128765
C89   C     C_2   0.282557 0.835957 0.455076 -0.169900
C90   C     C_2   0.711680 0.846184 0.542528 -0.153286
C91   C     C_2   0.782558 0.335958 0.455076 -0.169899
C92   C     C_2   0.211680 0.346183 0.542528 -0.153284
Cr1   Cr    Cr6+3 0.113970 0.508630 0.747920 1.009435
Cr2   Cr    Cr6+3 0.886030 0.508630 0.252080 1.011839
Cr3   Cr    Cr6+3 0.613970 0.008630 0.747920 1.009435
Cr4   Cr    Cr6+3 0.386030 0.008630 0.252080 1.011840
Cr5   Cr    Cr6+3 0.269200 0.666740 0.749850 1.008254
Cr6   Cr    Cr6+3 0.730800 0.666740 0.250150 1.038297
Cr7   Cr    Cr6+3 0.769200 0.166740 0.749850 1.008254
Cr8   Cr    Cr6+3 0.230800 0.166740 0.250150 1.038296
Cr9   Cr    Cr6+3 0.112300 0.820070 0.749800 1.029827
Cr10  Cr    Cr6+3 0.887700 0.820070 0.250200 1.025488
Cr11  Cr    Cr6+3 0.612300 0.320070 0.749800 1.029827
Cr12  Cr    Cr6+3 0.387700 0.320070 0.250200 1.025488
H1    H     H_    0.298324 0.903150 0.048817 0.102536
H2    H     H_    0.706595 0.896524 0.949652 0.098804
H3    H     H_    0.798324 0.403150 0.048817 0.102536
H4    H     H_    0.206588 0.396533 0.949654 0.098799
H5    H     H_    0.305814 0.902998 0.933961 0.102430
H6    H     H_    0.694559 0.900468 0.065268 0.093612
H7    H     H_    0.805814 0.402998 0.933961 0.102430
H8    H     H_    0.194559 0.400470 0.065269 0.093611
H9    H     H_    0.029406 0.471692 0.074058 0.154828
H10   H     H_    0.081944 0.480307 0.954716 0.135634
H11   H     H_    0.529407 0.971693 0.074058 0.154828
H12   H     H_    0.581946 0.980308 0.954717 0.135635
H13   H     H_    0.025997 0.753212 0.066078 0.106361
H14   H     H_    0.020011 0.740363 0.952012 0.113555
H15   H     H_    0.525997 0.253212 0.066078 0.106361
H16   H     H_    0.520010 0.240362 0.952012 0.113556
H17   H     H_    0.282851 0.729631 0.551623 0.135989
H18   H     H_    0.709742 0.737830 0.446448 0.165240
H19   H     H_    0.782855 0.229634 0.551623 0.135989
H20   H     H_    0.209743 0.237829 0.446448 0.165239
H21   H     H_    0.906759 0.071006 0.477428 0.196661
H22   H     H_    0.923549 0.050682 0.605348 0.137779
H23   H     H_    0.406760 0.571007 0.477428 0.196660
H24   H     H_    0.423549 0.550681 0.605349 0.137780
H25   H     H_    0.929275 0.905182 0.398544 0.197980
H26   H     H_    0.952000 0.854055 0.654894 0.143574
H27   H     H_    0.429276 0.405182 0.398544 0.197980
H28   H     H_    0.452000 0.354054 0.654894 0.143574
H29   H     H_    0.903170 0.420397 0.405034 0.154993
H30   H     H_    0.081660 0.432715 0.583654 0.158184
H31   H     H_    0.403170 0.920397 0.405034 0.154993
H32   H     H_    0.581660 0.932714 0.583654 0.158183
O1    O     O_R   0.043230 0.549300 0.667990 -0.532361
O2    O     O_R   0.956770 0.549300 0.332010 -0.506514
O3    O     O_R   0.543230 0.049300 0.667990 -0.532361
O4    O     O_R   0.456770 0.049300 0.332010 -0.506512
O5    O     O_R   0.262920 0.788600 0.824420 -0.518250
O6    O     O_R   0.737080 0.788600 0.175580 -0.517419
O7    O     O_R   0.762920 0.288600 0.824420 -0.518249
O8    O     O_R   0.237080 0.288600 0.175580 -0.517419
O9    O     O_R   0.167530 0.905110 0.830340 -0.519306
O10   O     O_R   0.832470 0.905110 0.169660 -0.507939
O11   O     O_R   0.667530 0.405110 0.830340 -0.519306
O12   O     O_R   0.332470 0.405110 0.169660 -0.507940
O13   O     O_R   0.054010 0.748440 0.822860 -0.494359
O14   O     O_R   0.945990 0.748440 0.177140 -0.489780
O15   O     O_R   0.554010 0.248440 0.822860 -0.494359
O16   O     O_R   0.445990 0.248440 0.177140 -0.489780
O17   O     O_3   0.165160 0.665150 0.749190 -0.293624
O18   O     O_3   0.834840 0.665150 0.250810 -0.300125
O19   O     O_3   0.665160 0.165150 0.749190 -0.293623
O20   O     O_3   0.334840 0.165150 0.250810 -0.300126
O21   O     O_R   0.178620 0.457600 0.674100 -0.505420
O22   O     O_R   0.821380 0.457600 0.325900 -0.537549
O23   O     O_R   0.678620 0.957600 0.674100 -0.505420
O24   O     O_R   0.321380 0.957600 0.325900 -0.537550
O25   O     O_R   0.284680 0.542100 0.669460 -0.524259
O26   O     O_R   0.715320 0.542100 0.330540 -0.494398
O27   O     O_R   0.784680 0.042100 0.669460 -0.524259
O28   O     O_R   0.215320 0.042100 0.330540 -0.494398
O29   O     O_R   0.262860 0.790390 0.676650 -0.532685
O30   O     O_R   0.737140 0.790390 0.323350 -0.521521
O31   O     O_R   0.762860 0.290390 0.676650 -0.532686
O32   O     O_R   0.237140 0.290390 0.323350 -0.521521
O33   O     O_R   0.167460 0.907030 0.670940 -0.473945
O34   O     O_R   0.832540 0.907030 0.329060 -0.523039
O35   O     O_R   0.667460 0.407030 0.670940 -0.473943
O36   O     O_R   0.332540 0.407030 0.329060 -0.523040
O37   O     O_R   0.053950 0.750220 0.675100 -0.502579
O38   O     O_R   0.946050 0.750220 0.324900 -0.509499
O39   O     O_R   0.553950 0.250220 0.675100 -0.502578
O40   O     O_R   0.446050 0.250220 0.324900 -0.509498
O41   O     O_R   0.043300 0.547370 0.827390 -0.501427
O42   O     O_R   0.956700 0.547370 0.172610 -0.514322
O43   O     O_R   0.543300 0.047370 0.827390 -0.501427
O44   O     O_R   0.456700 0.047370 0.172610 -0.514322
O45   O     O_R   0.178690 0.455820 0.821860 -0.510030
O46   O     O_R   0.821310 0.455820 0.178140 -0.493890
O47   O     O_R   0.678690 0.955820 0.821860 -0.510030
O48   O     O_R   0.321310 0.955820 0.178140 -0.493890
O49   O     O_R   0.284750 0.540170 0.828860 -0.491257
O50   O     O_R   0.715250 0.540170 0.171140 -0.495710
O51   O     O_R   0.784750 0.040170 0.828860 -0.491255
O52   O     O_R   0.215250 0.040170 0.171140 -0.495710
H33   H     H_    0.323331 0.784538 0.427844 0.160870
H34   H     H_    0.671010 0.797903 0.570610 0.181233
H35   H     H_    0.823332 0.284539 0.427844 0.160871
H36   H     H_    0.171010 0.297901 0.570610 0.181235
H37   H     H_    0.170889 0.057296 0.928128 0.156339
H38   H     H_    0.828039 0.058102 0.073152 0.157335
H39   H     H_    0.670889 0.557296 0.928128 0.156339
H40   H     H_    0.328042 0.558098 0.073152 0.157334
H41   H     H_    0.192359 0.942320 0.445433 0.180069
H42   H     H_    0.801848 0.949451 0.551209 0.152812
H43   H     H_    0.692359 0.442318 0.445433 0.180071
H44   H     H_    0.301848 0.449452 0.551209 0.152812
O53   O     O_3   0.243154 0.032411 0.558461 -0.705641
H45   H     H_    0.278535 0.051527 0.521176 0.317054
O54   O     O_3   0.756379 0.037497 0.439384 -0.733165
H46   H     H_    0.720646 0.059557 0.475901 0.325870
O55   O     O_3   0.743150 0.532410 0.558460 -0.705640
H47   H     H_    0.778531 0.551528 0.521175 0.317054
O56   O     O_3   0.256378 0.537497 0.439383 -0.733165
H48   H     H_    0.220645 0.559556 0.475901 0.325870
O57   O     O_3   0.054852 0.214687 0.534830 -0.653177
H49   H     H_    0.066289 0.221581 0.585856 0.305647
O58   O     O_3   0.973280 0.217939 0.417581 -0.677830
H50   H     H_    0.940959 0.233784 0.377872 0.306959
O59   O     O_3   0.554852 0.714687 0.534830 -0.653176
H51   H     H_    0.566289 0.721581 0.585856 0.305648
O60   O     O_3   0.473280 0.717939 0.417581 -0.677828
H52   H     H_    0.440956 0.733783 0.377873 0.306958
H53   H     H_    0.208314 0.137426 0.044117 0.138940
H54   H     H_    0.788783 0.138984 0.957948 0.139187
H55   H     H_    0.708314 0.637426 0.044117 0.138939
H56   H     H_    0.288792 0.638975 0.957946 0.139190

loop_
_geom_bond_atom_site_label_1
_geom_bond_atom_site_label_2
_ccdc_geom_bond_type
Cr10  O34   S    
C7    C83   D    
O54   H46   S    
Cr6   O18   S    
C59   H16   S    
C6    C82   D    
C87   C91   D    
C53   H37   S    
O53   H45   S    
C14   C18   A    
Cr9   O37   S    
C35   C36   A    
C87   H43   S    
C88   H44   S    
C17   H21   S    
C2    O26   A    
Cr7   O51   S    
C68   O40   A    
Cr11  O11   S    
C57   C62   D    
Cr12  O40   S    
C73   O5    A    
O55   H47   S    
Cr5   O49   S    
C12   C23   A    
Cr9   O9    S    
C59   C64   D    
C50   C54   S    
C41   H1    S    
C60   C63   D    
C54   H38   S    
C80   O44   A    
C14   C21   A    
Cr7   O7    S    
Cr8   O52   S    
C62   H10   S    
C36   O60   S    
C14   H26   S    
C82   O54   S    
C49   C53   S    
C9    C22   A    
C66   O2    A    
C5    H17   S    
C11   C24   A    
C5    C81   D    
C60   H15   S    
Cr2   O42   S    
C19   H23   S    
Cr12  O12   S    
C9    C66   S    
C72   O52   A    
C90   H34   S    
C43   C51   D    
C46   C82   S    
C33   O57   S    
C70   O46   A    
C39   C55   D    
C88   C92   D    
C29   C33   A    
C67   O39   A    
C40   C56   D    
Cr7   O19   S    
C23   C24   A    
C4    O28   A    
Cr9   O33   S    
C8    C92   S    
C39   C75   S    
C7    H19   S    
C38   H6    S    
C67   O3    A    
Cr10  O18   S    
C37   H5    S    
C3    O27   A    
Cr12  O36   S    
C63   H11   S    
C44   C52   D    
C58   C61   D    
C39   H7    S    
C29   H30   S    
C74   O6    A    
C1    O25   A    
Cr2   O22   S    
C56   H40   S    
C21   C22   A    
Cr6   O6    S    
C3    C86   S    
Cr11  O35   S    
C4    O24   A    
Cr1   O45   S    
C65   O1    A    
Cr4   O48   S    
C41   C49   D    
Cr6   O26   S    
C9    C26   A    
C17   C18   A    
Cr7   O31   S    
C44   H4    S    
C10   C21   A    
C25   C29   A    
C12   C67   S    
C52   H56   S    
C30   C34   A    
C12   C27   A    
C27   C31   A    
O56   H48   S    
O59   H51   S    
C57   C77   S    
C28   C32   A    
C72   O48   A    
C40   H8    S    
Cr8   O8    S    
C59   C79   S    
C85   C89   D    
C8    H20   S    
C81   O53   S    
C4    C85   S    
C75   O11   A    
C25   C26   A    
C6    C90   S    
C91   H35   S    
C64   H12   S    
C50   H54   S    
C58   H13   S    
Cr4   O44   S    
C47   C83   S    
C48   C84   S    
C49   H53   S    
Cr1   O17   S    
C15   C19   A    
O60   H52   S    
C71   O47   A    
C47   O31   A    
O58   H50   S    
C38   C54   D    
Cr9   O17   S    
C16   C20   A    
C30   H29   S    
C7    C91   S    
Cr11  O39   S    
O57   H49   S    
C2    C87   S    
Cr8   O28   S    
C78   O14   A    
C43   H3    S    
Cr12  O20   S    
Cr1   O21   S    
C35   O59   S    
Cr5   O5    S    
Cr6   O30   S    
C75   O7    A    
C42   C50   D    
C41   C72   S    
Cr7   O27   S    
C76   O8    A    
C10   C25   A    
Cr3   O43   S    
C15   C24   A    
Cr4   O24   S    
Cr10  O14   S    
C26   C30   A    
C16   C23   A    
Cr5   O17   S    
C86   C90   D    
Cr2   O2    S    
Cr3   O23   S    
C68   O4    A    
Cr10  O38   S    
Cr8   O20   S    
C6    H18   S    
C77   O13   A    
C69   O49   A    
C11   C68   S    
C48   O36   A    
C79   O15   A    
C38   C74   S    
C10   C65   S    
Cr11  O19   S    
C80   O16   A    
C37   C73   S    
C60   C80   S    
C89   H33   S    
C46   O30   A    
C65   O37   A    
C55   H39   S    
C78   O42   A    
Cr3   O3    S    
C74   O10   A    
C45   C81   S    
C71   O51   A    
C31   H32   S    
C45   O33   A    
Cr4   O4    S    
C32   H31   S    
C47   O35   A    
C32   C36   A    
C20   H24   S    
C13   H25   S    
Cr11  O15   S    
C43   C70   S    
Cr2   O46   S    
Cr5   O25   S    
C13   C17   A    
Cr8   O32   S    
C51   H55   S    
Cr12  O16   S    
C19   C20   A    
C1    O21   A    
C37   C53   D    
C83   O55   S    
C18   H22   S    
C61   H9    S    
Cr2   O18   S    
C84   O56   S    
Cr3   O47   S    
Cr4   O20   S    
C52   C56   S    
C11   C28   A    
C1    C88   S    
Cr5   O29   S    
C31   C35   A    
Cr9   O13   S    
C42   C71   S    
C33   C34   A    
C13   C22   A    
Cr10  O10   S    
C51   C55   S    
Cr3   O19   S    
C86   H42   S    
C61   C62   S    
C16   H28   S    
C77   O41   A    
Cr1   O1    S    
C34   O58   S    
C70   O50   A    
C3    O23   A    
C63   C64   S    
C42   H2    S    
C46   O34   A    
C79   O43   A    
C15   H27   S    
C2    O22   A    
C76   O12   A    
Cr6   O50   S    
C8    C84   D    
C40   C76   S    
C73   O9    A    
C27   C28   A    
C44   C69   S    
C85   H41   S    
C66   O38   A    
C58   C78   S    
Cr1   O41   S    
C45   O29   A    
C48   O32   A    
C5    C89   S    
C92   H36   S    
C69   O45   A    
C57   H14   S    
