data_mof_unit_44645.cif
_audit_creation_date              2012-10-26T21:00:16-0400
_audit_creation_method            fapswitch 2.2
_symmetry_space_group_name_H-M    P1
_symmetry_Int_Tables_number       1
_space_group_crystal_system       triclinic
_cell_length_a                    19.315315
_cell_length_b                    8.777505
_cell_length_c                    7.50785
_cell_angle_alpha                 101.330787
_cell_angle_beta                  96.702468
_cell_angle_gamma                 93.73052
_cell_volume                      1234.47271764

loop_
_atom_site_label
_atom_site_type_symbol
_atom_type_description
_atom_site_fract_x
_atom_site_fract_y
_atom_site_fract_z
_atom_type_partial_charge
C1    C     C_R   0.498181 0.201271 0.456232 0.547091
C2    C     C_R   0.802826 0.395123 0.317158 0.198838
C3    C     C_R   0.145805 0.502028 0.456259 -0.039963
C4    C     C_R   0.852476 0.494705 0.447375 -0.043137
C5    C     C_R   0.177447 0.365112 0.476594 0.331668
C6    C     C_R   0.830516 0.585185 0.602673 0.329679
C7    C     C_R   0.250424 0.362772 0.490759 0.202800
C8    C     C_R   0.760498 0.570470 0.635189 0.212414
C9    C     C_R   0.292147 0.499410 0.490375 -0.049275
C10   C     C_R   0.709139 0.488478 0.493340 -0.067157
C11   C     C_R   0.927813 0.499214 0.430362 0.390937
C12   C     C_R   0.500389 0.798555 0.544335 0.555014
C13   C     C_R   0.068755 0.502028 0.440057 0.392611
C14   C     C_3   0.170498 0.881908 0.603130 -0.030681
C15   C     C_3   0.816367 0.147544 0.172999 -0.040354
C16   C     C_3   0.270431 0.122939 0.335523 -0.067140
C17   C     C_3   0.771978 0.570972 0.939925 -0.061083
C18   C     C_3   0.611125 0.018153 0.319051 -0.055904
C19   C     C_3   0.400825 0.977744 0.744587 -0.039343
C20   C     C_3   0.374193 0.332297 0.973559 -0.022109
C21   C     C_3   0.622454 0.676262 0.037118 0.025640
C22   C     C_2   0.508397 0.038834 0.438171 0.239375
C23   C     C_2   0.490002 0.961551 0.565603 0.246926
C24   C     C_R   0.367820 0.497997 0.497856 0.599353
C25   C     C_R   0.632818 0.497737 0.500198 0.559967
C26   C     C_R   0.261117 0.634140 0.464289 0.281879
C27   C     C_R   0.731366 0.401149 0.334270 0.263425
C28   C     C_R   0.188506 0.638868 0.455507 0.230533
Cu1   Cu    Cu3+1 0.507710 0.517380 0.684380 1.109968
Cu2   Cu    Cu3+1 0.492290 0.482620 0.315620 1.129314
F1    F     F_    0.301174 0.759790 0.441336 -0.685671
F2    F     F_    0.683860 0.320936 0.193983 -0.647290
F3    F     F_    0.137888 0.234620 0.487601 -0.618112
F4    F     F_    0.877532 0.685053 0.727754 -0.594152
H1    H     H_    0.156747 0.828251 0.718697 0.110530
H2    H     H_    0.829418 0.565343 0.946029 0.213253
H3    H     H_    0.746099 0.451041 0.922458 0.178779
H4    H     H_    0.763963 0.639173 0.075414 0.108954
H5    H     H_    0.639591 0.950191 0.409598 0.092888
H6    H     H_    0.622911 0.144807 0.379301 0.143194
H7    H     H_    0.631696 0.998518 0.185484 0.175171
H8    H     H_    0.394263 0.848595 0.721745 0.162615
H9    H     H_    0.361298 0.019601 0.650498 0.171451
H10   H     H_    0.390339 0.019633 0.886972 0.138437
H11   H     H_    0.336863 0.265798 0.856807 0.133111
H12   H     H_    0.136177 0.977272 0.595197 0.231712
H13   H     H_    0.354700 0.449615 0.009802 0.135292
H14   H     H_    0.374034 0.267231 0.085822 0.120488
H15   H     H_    0.640984 0.558332 0.000013 0.172342
H16   H     H_    0.657514 0.737076 0.161450 0.071508
H17   H     H_    0.626459 0.744132 0.928123 0.173193
H18   H     H_    0.225547 0.934589 0.632611 0.161241
H19   H     H_    0.844025 0.127231 0.303873 0.131808
H20   H     H_    0.840458 0.079183 0.059509 0.186302
H21   H     H_    0.760425 0.102222 0.155932 0.153930
H22   H     H_    0.309365 0.035531 0.335075 0.176549
H23   H     H_    0.217522 0.059419 0.313119 0.225503
H24   H     H_    0.277472 0.181402 0.219134 0.067459
N1    N     N_R   0.026659 0.368348 0.371150 -0.123531
N2    N     N_R   0.969752 0.633380 0.495364 -0.123754
N3    N     N_R   0.957529 0.366863 0.366743 -0.181830
N4    N     N_R   0.038758 0.634738 0.499927 -0.172027
N5    N     N_2   0.480680 0.456420 0.038530 0.107771
N6    N     N_2   0.519320 0.543580 0.961470 0.092802
O1    O     O_R   0.505010 0.286130 0.619770 -0.446378
O2    O     O_3   0.823630 0.306415 0.162153 -0.546546
O3    O     O_3   0.281628 0.227782 0.506987 -0.583094
O4    O     O_3   0.742500 0.644948 0.800966 -0.571381
O5    O     O_3   0.538898 0.967471 0.288926 -0.529815
O6    O     O_3   0.468650 0.038956 0.727398 -0.528627
O7    O     O_3   0.440997 0.340722 0.918644 -0.422036
O8    O     O_3   0.553996 0.667342 0.078840 -0.434876
O9    O     O_R   0.494990 0.713870 0.380230 -0.443568
O10   O     O_R   0.491990 0.256780 0.308370 -0.486683
O11   O     O_R   0.508010 0.743220 0.691630 -0.507518
O12   O     O_R   0.406650 0.514660 0.655750 -0.491028
O13   O     O_R   0.593350 0.485340 0.344250 -0.443177
O14   O     O_R   0.393640 0.485310 0.344340 -0.541730
O15   O     O_R   0.606360 0.514690 0.655660 -0.531838
O16   O     O_3   0.158901 0.774399 0.433548 -0.512908

loop_
_geom_bond_atom_site_label_1
_geom_bond_atom_site_label_2
_ccdc_geom_bond_type
C10   C27   A    
C21   H15   S    
C16   H24   S    
C14   H12   S    
Cu1   O12   S    
C12   C23   S    
C25   O13   A    
C1    O10   A    
C15   H19   S    
C3    C28   A    
Cu2   O10   S    
N2    N4    A    
C18   H6    S    
Cu2   O13   S    
C14   H18   S    
C13   N4    A    
C5    F3    S    
C1    O1    A    
C20   O7    S    
C2    C27   A    
C17   H2    S    
C14   O16   S    
C22   O5    S    
C20   H11   S    
C3    C13   S    
C19   H8    S    
C17   H4    S    
C18   O5    S    
Cu1   N6    S    
C26   F1    S    
Cu2   N5    S    
C23   O6    S    
C21   H16   S    
C19   H9    S    
C9    C26   A    
N1    N3    A    
C21   O8    S    
C15   H20   S    
C4    C6    A    
C18   H7    S    
C14   H1    S    
C5    C7    A    
Cu2   O9    S    
C24   O12   A    
C6    C8    A    
C11   N3    A    
C15   O2    S    
C6    F4    S    
C15   H21   S    
C2    C4    A    
C18   H5    S    
C16   H22   S    
Cu1   Cu2   S    
Cu1   O15   S    
C16   O3    S    
C17   H3    S    
C4    C11   S    
C20   H14   S    
Cu1   O1    S    
C10   C25   S    
C24   O14   A    
N5    O7    S    
C8    O4    S    
C11   N2    A    
C3    C5    A    
C21   H17   S    
C19   H10   S    
C7    C9    A    
C17   O4    S    
C27   F2    S    
C25   O15   A    
C2    O2    S    
C9    C24   S    
Cu1   O11   S    
C26   C28   A    
C16   H23   S    
N6    O8    S    
C28   O16   S    
C20   H13   S    
C7    O3    S    
N5    N6    D    
Cu2   O14   S    
C1    C22   S    
C8    C10   A    
C12   O11   A    
C22   C23   D    
C19   O6    S    
C13   N1    A    
C12   O9    A    
