data_mof_unit_22477.cif
_audit_creation_date              2012-10-26T19:53:26-0400
_audit_creation_method            fapswitch 2.2
_symmetry_space_group_name_H-M    P1
_symmetry_Int_Tables_number       1
_space_group_crystal_system       triclinic
_cell_length_a                    9.137846
_cell_length_b                    7.8788
_cell_length_c                    10.705584
_cell_angle_alpha                 84.741711
_cell_angle_beta                  91.060984
_cell_angle_gamma                 90.62839
_cell_volume                      767.342894613

loop_
_atom_site_label
_atom_site_type_symbol
_atom_type_description
_atom_site_fract_x
_atom_site_fract_y
_atom_site_fract_z
_atom_type_partial_charge
C1    C     C_R   0.220334 0.499338 0.501019 0.536229
C2    C     C_3   0.637647 0.511636 0.055158 0.010584
C3    C     C_3   0.523712 0.485802 0.878211 0.004251
C4    C     C_3   0.489153 0.520597 0.119741 0.016120
C5    C     C_1   0.065451 0.498999 0.503441 -0.074638
C6    C     C_1   0.934745 0.500562 0.504375 -0.072904
C7    C     C_3   0.236671 0.464585 0.859361 -0.253775
C8    C     C_3   0.090021 0.484810 0.919864 -0.464766
C9    C     C_3   0.783523 0.550612 0.123738 -0.281274
C10   C     C_3   0.850382 0.403015 0.204405 -0.432765
C11   C     C_3   0.333205 0.797592 0.031515 -0.266052
C12   C     C_R   0.779714 0.500304 0.502944 0.539596
C13   C     C_3   0.281699 0.895174 0.908400 -0.431417
C14   C     C_3   0.660378 0.195128 0.971418 -0.272646
C15   C     C_3   0.685848 0.083881 0.095273 -0.439756
C16   C     C_3   0.702935 0.763847 0.888011 -0.279324
C17   C     C_3   0.667035 0.888388 0.774120 -0.372307
C18   C     C_3   0.337443 0.221301 0.109589 -0.261199
C19   C     C_3   0.215240 0.273396 0.193347 -0.423593
C20   C     C_R   0.488640 0.507276 0.258443 0.542531
C21   C     C_R   0.521696 0.493922 0.740020 0.530580
C22   C     C_3   0.431703 0.648761 0.011010 0.016559
C23   C     C_3   0.580474 0.359493 0.986547 0.002640
C24   C     C_3   0.581779 0.639677 0.945005 0.022194
C25   C     C_3   0.430991 0.369564 0.050684 0.025855
C26   C     C_3   0.374098 0.494807 0.942515 0.022148
Cu1   Cu    Cu3+1 0.500000 0.669080 0.500000 0.951162
Cu2   Cu    Cu3+1 0.500000 0.330920 0.500000 0.944022
H1    H     H_    0.065273 0.373134 0.986161 0.154102
H2    H     H_    0.765771 0.657276 0.182674 0.153950
H3    H     H_    0.359817 0.998912 0.879552 0.135685
H4    H     H_    0.270614 0.813177 0.830572 0.178425
H5    H     H_    0.173156 0.952501 0.921348 0.120576
H6    H     H_    0.237153 0.748434 0.085926 0.131945
H7    H     H_    0.391958 0.882277 0.091158 0.136934
H8    H     H_    0.656188 0.148459 0.178252 0.183300
H9    H     H_    0.618740 0.966509 0.098025 0.139162
H10   H     H_    0.802037 0.044250 0.104781 0.120775
H11   H     H_    0.589276 0.124836 0.909755 0.153445
H12   H     H_    0.087495 0.603857 0.966452 0.151479
H13   H     H_    0.766191 0.226006 0.924759 0.136837
H14   H     H_    0.699260 0.834597 0.686815 0.198333
H15   H     H_    0.550243 0.923323 0.769346 0.179783
H16   H     H_    0.735980 0.004831 0.776127 0.111028
H17   H     H_    0.749869 0.836728 0.962070 0.134713
H18   H     H_    0.793772 0.684405 0.859041 0.122568
H19   H     H_    0.188568 0.410544 0.174962 0.143329
H20   H     H_    0.116578 0.194165 0.178324 0.114215
H21   H     H_    0.246395 0.246345 0.293277 0.201004
H22   H     H_    0.286335 0.158917 0.032206 0.141481
H23   H     H_    0.002658 0.490689 0.846148 0.129054
H24   H     H_    0.407526 0.129829 0.166578 0.161897
H25   H     H_    0.239023 0.553258 0.772955 0.162584
H26   H     H_    0.241530 0.333929 0.828467 0.147062
H27   H     H_    0.772666 0.346708 0.274171 0.201037
H28   H     H_    0.888311 0.306803 0.144282 0.144465
H29   H     H_    0.947473 0.449775 0.254786 0.128621
H30   H     H_    0.867032 0.594519 0.055309 0.125745
N1    N     N_1   0.500000 0.076820 0.500000 -0.104727
N2    N     N_1   0.500000 0.923180 0.500000 -0.109698
O1    O     O_R   0.288390 0.642760 0.500000 -0.492886
O2    O     O_R   0.711610 0.357240 0.500000 -0.505018
O3    O     O_R   0.711610 0.642760 0.500000 -0.507977
O4    O     O_R   0.288390 0.357240 0.500000 -0.507518
O5    O     O_R   0.499960 0.642760 0.316850 -0.508096
O6    O     O_R   0.500040 0.357240 0.683150 -0.514420
O7    O     O_R   0.500040 0.642760 0.683150 -0.515359
O8    O     O_R   0.499960 0.357240 0.316850 -0.515889

loop_
_geom_bond_atom_site_label_1
_geom_bond_atom_site_label_2
_ccdc_geom_bond_type
C16   H17   S    
C14   C23   S    
C2    C4    S    
C17   H15   S    
C15   H10   S    
C13   H5    S    
Cu1   O5    S    
C21   O6    A    
C4    C22   S    
C9    C10   S    
C19   H21   S    
C13   H4    S    
C3    C23   S    
C14   C15   S    
C11   H7    S    
C4    C25   S    
C25   C26   S    
C17   H16   S    
C18   H24   S    
N1    N2    T    
C16   C24   S    
C18   C25   S    
C21   O7    A    
C2    C24   S    
C10   H27   S    
C11   C13   S    
C8    H23   S    
C3    C24   S    
C8    H12   S    
C7    C26   S    
Cu1   O3    S    
C9    H2    S    
C14   H13   S    
C1    C5    S    
C8    H1    S    
Cu2   O4    S    
C10   H28   S    
Cu2   O8    S    
C20   O8    A    
C9    H30   S    
C22   C24   S    
Cu1   N2    S    
C23   C25   S    
C6    C12   S    
C5    C6    T    
C19   H19   S    
C3    C21   S    
Cu1   O7    S    
C7    H25   S    
C1    O1    A    
C4    C20   S    
C1    O4    A    
C20   O5    A    
C7    C8    S    
C10   H29   S    
C12   O2    A    
C18   H22   S    
C18   C19   S    
C22   C26   S    
Cu2   N1    S    
C16   H18   S    
C2    C23   S    
C3    C26   S    
C12   O3    A    
C17   H14   S    
C15   H8    S    
C11   C22   S    
C7    H26   S    
C14   H11   S    
C19   H20   S    
C2    C9    S    
C13   H3    S    
C11   H6    S    
C15   H9    S    
Cu2   O6    S    
Cu2   O2    S    
C16   C17   S    
Cu1   Cu2   S    
Cu1   O1    S    
