data_mof_unit_36312.cif
_audit_creation_date              2013-03-05T15:48:50-0500
_audit_creation_method            fapswitch 2.2
_symmetry_space_group_name_H-M    P1
_symmetry_Int_Tables_number       1
_space_group_crystal_system       triclinic
_cell_length_a                    10.173923
_cell_length_b                    10.663036
_cell_length_c                    27.629386
_cell_angle_alpha                 92.123305
_cell_angle_beta                  81.857162
_cell_angle_gamma                 94.557565
_cell_volume                      2956.75911139

loop_
_atom_site_label
_atom_site_type_symbol
_atom_site_description
_atom_site_fract_x
_atom_site_fract_y
_atom_site_fract_z
_atom_type_partial_charge
O1    O     O_R   0.431060 0.692470 0.504020 -0.624420
O2    O     O_R   0.568940 0.307530 0.495980 -0.606322
O3    O     O_R   0.651120 0.659650 0.491200 -0.535714
O4    O     O_R   0.348880 0.340350 0.508800 -0.563883
C1    C     C_R   0.554095 0.733511 0.494607 0.927661
C2    C     C_R   0.445844 0.265799 0.500056 0.962530
O5    O     O_R   0.389980 0.516390 0.577660 -0.598286
O6    O     O_R   0.610020 0.483610 0.422340 -0.590449
O7    O     O_R   0.610040 0.483570 0.564830 -0.548069
O8    O     O_R   0.389960 0.516430 0.435170 -0.570989
C3    C     C_R   0.501419 0.503832 0.593981 0.956264
C4    C     C_R   0.500436 0.501395 0.405948 0.930690
Zn1   Zn    Zn3+2 0.353060 0.521910 0.508560 1.040960
Zn2   Zn    Zn3+2 0.646940 0.478090 0.491440 1.081736
C5    C     C_R   0.548734 0.672076 0.823005 0.591463
C6    C     C_R   0.559453 0.426496 0.168677 0.591586
O9    O     O_2   0.615926 0.766730 0.796741 -0.491745
O10   O     O_2   0.605376 0.325011 0.186527 -0.522016
N1    N     N_R   0.502373 0.567205 0.799107 -0.338070
N2    N     N_R   0.529920 0.526552 0.199172 -0.325839
C7    C     C_R   0.445734 0.462869 0.823291 0.560829
C8    C     C_R   0.503255 0.638683 0.182067 0.536841
C9    C     C_R   0.600172 0.485277 0.719942 -0.199842
C10   C     C_R   0.623269 0.576000 0.274370 -0.222436
C11   C     C_R   0.594814 0.460546 0.670372 0.281904
C12   C     C_R   0.614058 0.576545 0.325088 0.247143
C13   C     C_R   0.424227 0.612464 0.673329 0.100300
C14   C     C_R   0.409384 0.437339 0.328360 0.113029
C15   C     C_R   0.424029 0.628153 0.724143 0.176300
C16   C     C_R   0.415766 0.445432 0.277253 0.168695
C17   C     C_R   0.512982 0.564818 0.746934 0.188760
C18   C     C_R   0.524260 0.513480 0.250705 0.207941
C19   C     C_R   0.481710 0.568120 0.899969 -0.139611
C20   C     C_R   0.518144 0.546830 0.100488 -0.125672
C21   C     C_R   0.530915 0.678778 0.874447 -0.138932
C22   C     C_R   0.542144 0.430326 0.119228 -0.141972
C23   C     C_R   0.567727 0.789064 0.901097 0.332624
C24   C     C_R   0.550406 0.323246 0.087725 0.358636
C25   C     C_R   0.437273 0.458820 0.874470 -0.081191
C26   C     C_R   0.509340 0.654948 0.131371 -0.096655
C27   C     C_R   0.506335 0.524344 0.646624 -0.220907
C28   C     C_R   0.505772 0.507405 0.352643 -0.228833
C29   C     C_R   0.501175 0.673054 0.029634 -0.006226
C30   C     C_R   0.456188 0.449792 0.974758 0.004694
C31   C     C_R   0.493347 0.443690 0.021826 0.039066
C32   C     C_R   0.512308 0.676896 0.977766 0.028049
C33   C     C_R   0.504508 0.554902 0.050649 0.026458
C34   C     C_R   0.481445 0.565405 0.950918 0.031129
C35   C     C_R   0.490579 0.781643 0.060868 0.166507
C36   C     C_R   0.395191 0.345028 0.951041 0.134714
C37   C     C_R   0.502754 0.773643 0.110831 0.141865
C38   C     C_R   0.386045 0.349516 0.900692 0.184179
O11   O     O_2   0.467587 0.731813 0.214446 -0.573059
O12   O     O_2   0.400657 0.362959 0.797257 -0.512109
C39   C     C_R   0.559921 0.786045 0.951849 -0.248600
C40   C     C_R   0.525776 0.330712 0.039818 -0.247002
H1    H     H_    0.704904 0.629549 0.253033 0.186807
H2    H     H_    0.665297 0.434798 0.738761 0.197560
H3    H     H_    0.597450 0.869547 0.970254 0.205984
H4    H     H_    0.534085 0.246888 0.016619 0.197732
C41   C     C_2   0.579004 0.866559 0.483717 -0.341644
C42   C     C_2   0.420152 0.130324 0.491559 -0.379293
C43   C     C_2   0.491456 0.925946 0.461709 0.215203
C44   C     C_2   0.507917 0.063897 0.461339 0.170420
H5    H     H_    0.330028 0.083371 0.510720 0.163099
H6    H     H_    0.664951 0.918213 0.496186 0.165051
N3    N     N_2   0.842700 0.448890 0.480020 -0.218919
N4    N     N_2   0.157300 0.551110 0.519980 -0.224678
C45   C     C_2   0.927888 0.519731 0.501740 0.281666
C46   C     C_2   0.074083 0.501981 0.491764 0.259551
H7    H     H_    0.118737 0.600260 0.550836 0.197070
H8    H     H_    0.877234 0.375886 0.457573 0.188046
N5    N     N_2   0.343655 0.685743 0.648826 -0.279681
H9    H     H_    0.253417 0.705621 0.668339 0.241545
C47   C     C_3   0.414113 0.794375 0.624498 -0.661556
H10   H     H_    0.445298 0.865588 0.651741 0.239537
H11   H     H_    0.347823 0.837256 0.602156 0.240224
H12   H     H_    0.503813 0.767066 0.599886 0.228140
N6    N     N_2   0.312020 0.353006 0.354741 -0.216554
H13   H     H_    0.223552 0.338885 0.340574 0.275734
C48   C     C_3   0.361390 0.235614 0.365929 -0.703695
H14   H     H_    0.400385 0.184507 0.331829 0.214202
H15   H     H_    0.278912 0.175881 0.385954 0.264125
H16   H     H_    0.441195 0.252532 0.389355 0.240249
N7    N     N_R   0.122081 0.432659 0.448737 0.220333
O13   O     O_R   0.098964 0.471250 0.406854 -0.411544
O14   O     O_R   0.146498 0.315951 0.452609 -0.407500
N8    N     N_R   0.882665 0.619494 0.534402 0.209704
O15   O     O_R   0.909788 0.735230 0.520783 -0.383661
O16   O     O_R   0.850486 0.597484 0.580708 -0.373753
N9    N     N_2   0.328360 0.699377 0.753449 -0.327154
H17   H     H_    0.230371 0.670885 0.750749 0.229606
C49   C     C_3   0.356833 0.834568 0.755025 -0.616042
H18   H     H_    0.335363 0.869671 0.793410 0.270636
H19   H     H_    0.292393 0.880182 0.732718 0.217408
H20   H     H_    0.462743 0.862132 0.741140 0.282121
N10   N     N_2   0.310659 0.391643 0.252318 -0.319087
H21   H     H_    0.218009 0.421937 0.265103 0.242912
C50   C     C_3   0.310166 0.258044 0.240714 -0.669668
H22   H     H_    0.287981 0.241107 0.202752 0.273007
H23   H     H_    0.231737 0.205546 0.265858 0.216755
H24   H     H_    0.407639 0.220850 0.243587 0.280099
N11   N     N_R   0.607684 0.906967 0.877941 0.245413
O17   O     O_R   0.712130 0.974111 0.889132 -0.375302
O18   O     O_R   0.525256 0.958889 0.854282 -0.380186
N12   N     N_R   0.572449 0.203108 0.104518 0.226106
O19   O     O_R   0.478515 0.144166 0.133898 -0.428017
O20   O     O_R   0.670816 0.142541 0.082438 -0.433711
N13   N     N_R   0.713988 0.650116 0.347914 0.231810
O21   O     O_R   0.679298 0.725575 0.384713 -0.435622
O22   O     O_R   0.837436 0.657236 0.327269 -0.359340
N14   N     N_R   0.673645 0.365085 0.645713 0.244346
O23   O     O_R   0.619002 0.276901 0.619601 -0.384660
O24   O     O_R   0.792911 0.353454 0.656026 -0.338968
N15   N     N_2   0.517535 0.887456 0.138690 -0.261720
H25   H     H_    0.440581 0.903208 0.166176 0.293100
C51   C     C_3   0.650425 0.919558 0.150811 -0.527428
H26   H     H_    0.653915 0.012498 0.170223 0.279671
H27   H     H_    0.723634 0.924523 0.116925 0.238244
H28   H     H_    0.679893 0.848990 0.174928 0.211506
N16   N     N_2   0.325812 0.244547 0.876368 -0.247618
H29   H     H_    0.357281 0.158063 0.882870 0.254864
C52   C     C_3   0.183320 0.245386 0.877527 -0.629745
H30   H     H_    0.147831 0.167373 0.853738 0.252748
H31   H     H_    0.157759 0.335653 0.863665 0.250493
H32   H     H_    0.131680 0.232297 0.915360 0.220086
N17   N     N_2   0.451489 0.895538 0.043631 -0.312962
H33   H     H_    0.489193 0.976956 0.059369 0.308181
C53   C     C_3   0.310509 0.895598 0.041088 -0.745408
H34   H     H_    0.289786 0.984720 0.025158 0.246157
H35   H     H_    0.253029 0.887947 0.078325 0.248816
H36   H     H_    0.277561 0.816135 0.017403 0.249792
N18   N     N_2   0.332297 0.240652 0.978774 -0.325443
H37   H     H_    0.327711 0.152894 0.962053 0.231234
C54   C     C_3   0.219124 0.264948 0.015139 -0.741175
H38   H     H_    0.127270 0.215148 0.004345 0.238874
H39   H     H_    0.203766 0.367039 0.019694 0.249494
H40   H     H_    0.235636 0.229164 0.050836 0.256553
N19   N     N_2   0.626683 0.123517 0.435231 -0.297017
H41   H     H_    0.703990 0.135042 0.455838 0.252854
C55   C     C_3   0.668635 0.074418 0.386446 -0.708126
H42   H     H_    0.751308 0.137720 0.368186 0.246784
H43   H     H_    0.585484 0.069958 0.364316 0.239329
H44   H     H_    0.704740 0.979340 0.388019 0.284601
N20   N     N_2   0.386777 0.856762 0.439742 -0.266728
H45   H     H_    0.413495 0.773324 0.422470 0.260096
C56   C     C_3   0.303455 0.923344 0.412839 -0.701698
H46   H     H_    0.226468 0.855812 0.399777 0.264491
H47   H     H_    0.364197 0.967450 0.380516 0.228715
H48   H     H_    0.250929 0.994702 0.436744 0.252718

loop_
_geom_bond_atom_site_label_1
_geom_bond_atom_site_label_2
_geom_bond_distance
_ccdc_geom_bond_type
C9    H2    1.083554 S    
C49   H18   1.109292 S    
C39   H3    1.079162 S    
C13   C15   1.407457 A    
N5    H9    1.029903 S    
C56   H46   1.110615 S    
O7    Zn2   2.008749 S    
N1    C17   1.429645 S    
N17   C53   1.445995 S    
N10   H21   1.031141 S    
C54   H40   1.109765 S    
C54   H38   1.110217 S    
N7    O13   1.300592 A    
O5    C3    1.296211 A    
C16   N10   1.424462 S    
C29   C32   1.423335 A    
C19   C25   1.415883 A    
O1    C1    1.286536 A    
C21   C23   1.417521 A    
C10   C12   1.390965 A    
N13   O22   1.301412 A    
C7    O12   1.349710 S    
C52   H31   1.111787 S    
N12   O19   1.299940 A    
N15   H25   1.030014 S    
C54   H39   1.112028 S    
N3    H8    1.029574 S    
C5    C21   1.406985 A    
O4    Zn1   1.933303 S    
C41   C43   1.354874 D    
C14   N6    1.422551 S    
C4    C28   1.469698 S    
C11   N14   1.437740 S    
N20   C56   1.445133 S    
C55   H42   1.110144 S    
C41   H6    1.086929 S    
C31   C40   1.400444 A    
C10   H1    1.083639 S    
C35   C37   1.409646 A    
C32   C39   1.405655 A    
C36   C38   1.410121 A    
Zn2   N3    2.019012 S    
C42   C44   1.357085 D    
C6    N2    1.360533 A    
C53   H36   1.111058 S    
C31   C33   1.409821 A    
C25   C38   1.419168 A    
C49   H19   1.110689 S    
N5    C47   1.447981 S    
O2    C2    1.286195 A    
N14   O24   1.301318 A    
N14   O23   1.301552 A    
C48   H15   1.107070 S    
N20   H45   1.031221 S    
C8    O11   1.348192 S    
N7    O14   1.299372 A    
C35   N17   1.425887 S    
C32   C34   1.415437 A    
C56   H47   1.108714 S    
C52   H30   1.110545 S    
C56   H48   1.108224 S    
N6    H13   1.029529 S    
O4    C2    1.306281 A    
N10   C50   1.448339 S    
C55   H44   1.109793 S    
C11   C27   1.414697 A    
N9    H17   1.031023 S    
N6    C48   1.444752 S    
C29   C35   1.420036 A    
C52   H32   1.109840 S    
N15   C51   1.450335 S    
O8    Zn1   2.008747 S    
C48   H14   1.110156 S    
C40   H4    1.082180 S    
N3    C45   1.300617 D    
C55   H43   1.108949 S    
C9    C17   1.395605 A    
C24   N12   1.423314 S    
C5    N1    1.363307 A    
C47   H10   1.109441 S    
C10   C18   1.390740 A    
N9    C49   1.447910 S    
O7    C3    1.299830 A    
C38   N16   1.425450 S    
C13   C27   1.422645 A    
C50   H22   1.109153 S    
C7    C25   1.406497 A    
O6    C4    1.291153 A    
C8    C26   1.409816 A    
C1    C41   1.456142 S    
N11   O18   1.301148 A    
C47   H11   1.110341 S    
C12   N13   1.437026 S    
N16   H29   1.029889 S    
C45   N8    1.430631 S    
O8    C4    1.304928 A    
C6    O10   1.348224 S    
C50   H23   1.110625 S    
N8    O16   1.300191 A    
C49   H20   1.111549 S    
N18   H37   1.028800 S    
C20   C26   1.409637 A    
C51   H28   1.108915 S    
O1    Zn1   1.926773 S    
N17   H33   1.027756 S    
C15   N9    1.424225 S    
C48   H16   1.107996 S    
C30   C31   1.409897 A    
C12   C28   1.418369 A    
C23   N11   1.435208 S    
C53   H34   1.109230 S    
N2    C18   1.428363 S    
C30   C36   1.418874 A    
C5    O9    1.347845 S    
Zn1   N4    2.019013 S    
O6    Zn2   2.001139 S    
C14   C28   1.415201 A    
C42   H5    1.086661 S    
N1    C7    1.363953 A    
N2    C8    1.362465 A    
O3    C1    1.302036 A    
C36   N18   1.430523 S    
N19   H41   1.031591 S    
O3    Zn2   1.933303 S    
C26   C37   1.416298 A    
C2    C42   1.463721 S    
C51   H27   1.110833 S    
C14   C16   1.409852 A    
C15   C17   1.400620 A    
C51   H26   1.109714 S    
C6    C22   1.404544 A    
C16   C18   1.402041 A    
N19   C55   1.446838 S    
N12   O20   1.300535 A    
N4    H7    1.029672 S    
C22   C24   1.410422 A    
C19   C21   1.417009 A    
C3    C27   1.470082 S    
C20   C22   1.415168 A    
C9    C11   1.392975 A    
C45   C46   1.499608 S    
O2    Zn2   1.926771 S    
C47   H12   1.109867 S    
C37   N15   1.422141 S    
N16   C52   1.446257 S    
C43   C44   1.467448 S    
C23   C39   1.394644 A    
O5    Zn1   2.001141 S    
C50   H24   1.110929 S    
C24   C40   1.387836 A    
N8    O15   1.300624 A    
N4    C46   1.298168 D    
N13   O21   1.299447 A    
N11   O17   1.301219 A    
N18   C54   1.450086 S    
C19   C34   1.408682 A    
C20   C33   1.409822 A    
C13   N5    1.427961 S    
C46   N7    1.423336 S    
C29   C33   1.411425 A    
C43   N20   1.439404 S    
C30   C34   1.407662 A    
C53   H35   1.111469 S    
C44   N19   1.431605 S    
