data_mof_unit_14357.cif
_audit_creation_date              2012-12-10T17:02:13-0500
_audit_creation_method            fapswitch 2.2
_symmetry_space_group_name_H-M    P1
_symmetry_Int_Tables_number       1
_space_group_crystal_system       triclinic
_cell_length_a                    10.641018
_cell_length_b                    10.687795
_cell_length_c                    10.07162
_cell_angle_alpha                 89.83
_cell_angle_beta                  88.087502
_cell_angle_gamma                 89.058817
_cell_volume                      1144.63960409

loop_
_atom_site_label
_atom_site_type_symbol
_atom_type_description
_atom_site_fract_x
_atom_site_fract_y
_atom_site_fract_z
_atom_type_partial_charge
C1    C     C_R   0.489118 0.263580 0.500678 0.945098
C2    C     C_2   0.466583 0.132857 0.503361 -0.263175
C3    C     C_2   0.513688 0.598950 0.926130 0.063333
C4    C     C_R   0.260628 0.502398 0.502411 0.896673
C5    C     C_2   0.485153 0.598858 0.073344 0.055412
C6    C     C_R   0.500188 0.737438 0.499674 0.936542
C7    C     C_R   0.739561 0.491239 0.497381 0.935222
C8    C     C_R   0.137314 0.275795 0.579366 -0.285030
C9    C     C_R   0.079634 0.160356 0.593432 0.367091
C10   C     C_R   0.956658 0.146344 0.551930 0.373565
C11   C     C_R   0.889761 0.250817 0.504154 0.238785
C12   C     C_R   0.069755 0.382016 0.534907 -0.050607
C13   C     C_R   0.941451 0.372333 0.510730 -0.038340
C14   C     C_R   0.128131 0.497220 0.508528 -0.110316
C15   C     C_R   0.060346 0.605115 0.475259 0.394561
C16   C     C_R   0.931919 0.599356 0.470770 -0.202541
C17   C     C_R   0.872955 0.485086 0.489230 -0.092307
C18   C     C_2   0.458056 0.933099 0.394621 -0.076139
C19   C     C_2   0.502385 0.869991 0.498282 -0.226192
C20   C     C_2   0.462104 0.067919 0.390852 -0.065846
Cl1   Cl    Cl    0.133470 0.749642 0.443344 -0.507279
Cl2   Cl    Cl    0.390877 0.392123 0.905653 -0.411712
Cl3   Cl    Cl    0.616559 0.393165 0.095331 -0.372931
Cl4   Cl    Cl    0.167358 0.032610 0.653965 -0.475531
Cl5   Cl    Cl    0.888669 0.996624 0.553584 -0.454791
Cl6   Cl    Cl    0.763782 0.220904 0.401582 -0.510206
H1    H     H_    0.452441 0.090533 0.600603 0.189684
H2    H     H_    0.450367 0.685090 0.118837 0.098771
H3    H     H_    0.234778 0.281398 0.604954 0.194976
H4    H     H_    0.423033 0.885362 0.308519 0.181554
H5    H     H_    0.543057 0.914303 0.583088 0.166344
H6    H     H_    0.465896 0.113104 0.294045 0.210685
H7    H     H_    0.544304 0.685572 0.880104 0.105674
H8    H     H_    0.877605 0.684139 0.452551 0.198203
N1    N     N_2   0.501340 0.501330 0.852150 0.079391
N2    N     N_2   0.501380 0.501360 0.147810 0.078201
O1    O     O_R   0.499980 0.319060 0.613040 -0.578721
O2    O     O_R   0.500020 0.319100 0.386900 -0.554723
O3    O     O_R   0.316750 0.499980 0.613090 -0.587680
O4    O     O_R   0.316790 0.500020 0.386950 -0.603703
O5    O     O_R   0.499980 0.680900 0.613100 -0.625694
O6    O     O_R   0.500020 0.680940 0.386960 -0.639094
O7    O     O_R   0.683210 0.499980 0.613050 -0.611458
O8    O     O_R   0.683250 0.500020 0.386910 -0.555882
Zn1   Zn    Zn3+2 0.499970 0.499970 0.650990 1.090210
Zn2   Zn    Zn3+2 0.500030 0.500030 0.349010 1.099924

loop_
_geom_bond_atom_site_label_1
_geom_bond_atom_site_label_2
_ccdc_geom_bond_type
C8    C9    A    
C7    C17   S    
C9    Cl4   S    
N2    Zn2   S    
C2    H1    S    
C18   H4    S    
C1    O1    A    
C8    C12   A    
C5    H2    S    
C11   C13   A    
C9    C10   A    
C4    O3    A    
C13   C17   A    
O3    Zn1   S    
C19   H5    S    
C7    O8    A    
O4    Zn2   S    
Cl2   N1    S    
O7    Zn1   S    
C1    O2    A    
C20   H6    S    
C8    H3    S    
C10   Cl5   S    
C12   C14   A    
C1    C2    S    
C18   C20   S    
C4    C14   S    
O2    Zn2   S    
C10   C11   A    
C3    H7    S    
C3    N1    D    
C15   C16   A    
N1    Zn1   S    
C5    N2    D    
C15   Cl1   S    
C12   C13   A    
Cl3   N2    S    
O6    Zn2   S    
C7    O7    A    
C2    C20   D    
O5    Zn1   S    
C14   C15   A    
C18   C19   D    
C11   Cl6   S    
C16   H8    S    
O1    Zn1   S    
C6    C19   S    
C4    O4    A    
O8    Zn2   S    
C16   C17   A    
C3    C5    S    
C6    O5    A    
C6    O6    A    
