data_mof_unit_21115.cif
_audit_creation_date              2012-12-10T18:13:48-0500
_audit_creation_method            fapswitch 2.2
_symmetry_space_group_name_H-M    P1
_symmetry_Int_Tables_number       1
_space_group_crystal_system       triclinic
_cell_length_a                    10.894156
_cell_length_b                    9.647391
_cell_length_c                    23.728723
_cell_angle_alpha                 88.307553
_cell_angle_beta                  87.201518
_cell_angle_gamma                 91.156597
_cell_volume                      2489.24809488

loop_
_atom_site_label
_atom_site_type_symbol
_atom_type_description
_atom_site_fract_x
_atom_site_fract_y
_atom_site_fract_z
_atom_type_partial_charge
C1    C     C_R   0.260539 0.498756 0.499708 0.756916
C2    C     C_R   0.290994 0.441021 0.972865 -0.009844
C3    C     C_R   0.292496 0.457665 0.031154 -0.219503
C4    C     C_R   0.402532 0.476157 0.058915 -0.000073
C5    C     C_R   0.512843 0.484738 0.027356 -0.029093
C6    C     C_R   0.621986 0.501764 0.055038 0.002100
C7    C     C_R   0.734074 0.509194 0.023064 -0.149304
C8    C     C_R   0.736470 0.500562 0.964808 -0.148276
C9    C     C_R   0.401782 0.486994 0.117878 0.556129
C10   C     C_R   0.618964 0.509085 0.114151 0.547753
C11   C     C_R   0.615296 0.522331 0.241578 -0.113119
C12   C     C_R   0.500269 0.501750 0.392149 0.789964
C13   C     C_R   0.612517 0.519493 0.300215 -0.261968
C14   C     C_R   0.502218 0.505909 0.331110 0.013143
C15   C     C_R   0.393921 0.497999 0.303591 -0.264550
C16   C     C_R   0.395422 0.501106 0.245032 -0.113416
C17   C     C_R   0.506716 0.509093 0.210260 0.300636
C18   C     C_R   0.396275 0.490796 0.760061 0.063366
C19   C     C_R   0.395640 0.476813 0.701541 -0.121376
C20   C     C_R   0.504242 0.494359 0.668679 -0.009686
C21   C     C_R   0.612893 0.529903 0.693657 -0.202347
C22   C     C_R   0.616090 0.532303 0.752171 -0.080973
C23   C     C_R   0.739882 0.500507 0.499846 0.726841
C24   C     C_R   0.511524 0.492384 0.787879 0.222080
C25   C     C_3   0.073264 0.627241 0.527461 -0.384283
C26   C     C_3   0.066678 0.370339 0.533080 -0.397839
C27   C     C_3   0.932108 0.627816 0.529796 -0.115193
C28   C     C_3   0.925288 0.367003 0.532411 -0.107555
C29   C     C_3   0.078515 0.494283 0.438545 -0.386265
C30   C     C_3   0.122598 0.496948 0.499641 0.084420
C31   C     C_3   0.879121 0.499096 0.499443 -0.027240
C32   C     C_3   0.936376 0.499776 0.438250 -0.402376
C33   C     C_3   0.624169 0.084489 0.507087 -0.250856
C34   C     C_3   0.625810 0.921349 0.498516 -0.256484
C35   C     C_3   0.414648 0.076933 0.549628 0.181097
C36   C     C_3   0.435703 0.909167 0.555555 0.190684
C37   C     C_3   0.461893 0.084537 0.446629 -0.189258
C38   C     C_3   0.441273 0.920774 0.451294 -0.208905
C39   C     C_R   0.500662 0.498184 0.607830 0.798873
C40   C     C_R   0.628721 0.476437 0.877665 0.578521
C41   C     C_R   0.417320 0.418587 0.882346 0.552867
C42   C     C_R   0.404939 0.445754 0.940543 -0.036188
C43   C     C_R   0.514320 0.474425 0.968076 -0.033504
C44   C     C_R   0.627004 0.483798 0.936732 -0.005654
Cu1   Cu    Cu3+1 0.499860 0.642410 0.500030 0.914338
Cu2   Cu    Cu3+1 0.499860 0.357590 0.500030 0.912480
H1    H     H_    0.308696 0.466111 0.681400 0.147351
H2    H     H_    0.694884 0.558503 0.668022 0.137459
H3    H     H_    0.699141 0.573943 0.767760 0.208242
H4    H     H_    0.110424 0.717328 0.501522 0.174547
H5    H     H_    0.102621 0.277454 0.512741 0.181869
H6    H     H_    0.106306 0.635204 0.570804 0.165877
H7    H     H_    0.095352 0.370281 0.577351 0.167334
H8    H     H_    0.898767 0.619828 0.574871 0.148129
H9    H     H_    0.887309 0.370022 0.576690 0.145584
H10   H     H_    0.119487 0.584063 0.413411 0.158328
H11   H     H_    0.110246 0.398569 0.418042 0.160294
H12   H     H_    0.909599 0.593414 0.414149 0.152753
H13   H     H_    0.900289 0.411235 0.414941 0.153689
H14   H     H_    0.659488 0.109491 0.548471 0.173724
H15   H     H_    0.679286 0.871384 0.530576 0.208735
H16   H     H_    0.205291 0.454993 0.055056 0.188562
H17   H     H_    0.687243 0.132873 0.474153 0.179841
H18   H     H_    0.675212 0.899508 0.457873 0.154081
H19   H     H_    0.382209 0.136756 0.429351 0.150236
H20   H     H_    0.341835 0.894902 0.451987 0.145541
H21   H     H_    0.534021 0.107720 0.412683 0.145213
H22   H     H_    0.480462 0.876768 0.411905 0.162101
H23   H     H_    0.820900 0.522149 0.042694 0.191660
H24   H     H_    0.824757 0.507779 0.941931 0.198368
H25   H     H_    0.706813 0.537546 0.224953 0.214366
H26   H     H_    0.697669 0.528334 0.321661 0.127329
H27   H     H_    0.306920 0.490256 0.327652 0.125561
H28   H     H_    0.304243 0.499001 0.231512 0.214248
N1    N     N_R   0.519052 0.467831 0.849982 -0.455290
N2    N     N_R   0.509188 0.502985 0.147049 -0.448335
N3    N     N_3   0.500250 0.143650 0.501250 -0.177167
N4    N     N_3   0.500250 0.856350 0.501250 -0.169168
O1    O     O_R   0.317570 0.620260 0.500030 -0.603650
O2    O     O_R   0.317570 0.379740 0.500030 -0.593810
O3    O     O_R   0.499840 0.620290 0.417900 -0.585804
O4    O     O_R   0.499840 0.379710 0.417900 -0.586642
O5    O     O_R   0.682190 0.620260 0.500010 -0.594097
O6    O     O_R   0.682190 0.379740 0.500010 -0.597685
O7    O     O_R   0.499920 0.620230 0.582140 -0.567143
O8    O     O_R   0.499920 0.379770 0.582140 -0.592088
O9    O     O_2   0.738778 0.471866 0.849912 -0.538351
O10   O     O_2   0.342622 0.324140 0.861174 -0.467440
O11   O     O_2   0.290473 0.479430 0.143999 -0.581275
O12   O     O_2   0.728697 0.520905 0.136544 -0.580554
C45   C     C_2   0.166164 0.436514 0.949693 0.425580
H29   H     H_    0.092685 0.491193 0.971212 0.044900
O13   O     O_2   0.140692 0.367242 0.909868 -0.464976
C46   C     C_2   0.896311 0.767421 0.506926 0.373270
H30   H     H_    0.888074 0.787794 0.461848 0.057784
O14   O     O_2   0.888956 0.861321 0.539218 -0.516887
C47   C     C_2   0.889095 0.228303 0.510107 0.379307
H31   H     H_    0.880682 0.213869 0.465409 0.054660
O15   O     O_2   0.882790 0.127376 0.542118 -0.511738
C48   C     C_2   0.440503 0.135280 0.608294 0.456243
H32   H     H_    0.534558 0.147828 0.620894 0.053003
O16   O     O_2   0.358560 0.158098 0.642964 -0.535794
C49   C     C_2   0.511953 0.876992 0.608981 0.397101
H33   H     H_    0.606377 0.910984 0.611359 0.049406
O17   O     O_2   0.464371 0.825120 0.652307 -0.507994
C50   C     C_3   0.275342 0.114765 0.539814 -0.685426
H34   H     H_    0.251561 0.208531 0.562741 0.254167
H35   H     H_    0.254949 0.130392 0.495446 0.193338
H36   H     H_    0.200150 0.044730 0.556182 0.210960
C51   C     C_3   0.310199 0.832784 0.569783 -0.633987
H37   H     H_    0.316241 0.724425 0.584746 0.257610
H38   H     H_    0.261764 0.878916 0.606552 0.233386
H39   H     H_    0.252115 0.838890 0.533648 0.191665
C52   C     C_2   0.277751 0.527797 0.788873 0.337100
H40   H     H_    0.184742 0.494203 0.780288 0.286989
O18   O     O_2   0.201715 0.602898 0.768569 -0.609273

loop_
_geom_bond_atom_site_label_1
_geom_bond_atom_site_label_2
_ccdc_geom_bond_type
C28   C47   S    
C41   C42   A    
C19   C20   A    
C32   H12   S    
C18   C52   S    
C52   H40   S    
C27   H8    S    
C7    C8    A    
Cu1   Cu2   S    
C29   C30   S    
C23   O5    A    
C36   C49   S    
C16   H28   S    
C40   O9    S    
C29   C32   S    
C5    C6    A    
C11   H25   S    
C41   N1    A    
C50   H34   S    
C15   C16   A    
C18   C19   A    
C51   H37   S    
C1    C30   S    
Cu2   O4    S    
C10   N2    A    
C38   H20   S    
C16   C17   A    
C37   H19   S    
C17   N2    S    
Cu1   N4    S    
C9    N2    A    
C21   H2    S    
C29   H10   S    
C5    C43   A    
C13   C14   A    
Cu1   O5    S    
C48   O16   D    
C47   O15   D    
C28   H9    S    
C47   H31   S    
C23   O6    A    
C27   C31   S    
Cu1   O1    S    
C9    O11   S    
C45   H29   S    
C20   C39   S    
C38   N4    S    
C37   N3    S    
C35   N3    S    
C34   H15   S    
C35   C36   S    
C23   C31   S    
Cu1   O7    S    
C43   C44   A    
C7    H23   S    
C37   C38   S    
C25   H4    S    
C45   O13   D    
C31   C32   S    
C33   H17   S    
C34   H18   S    
C33   C34   S    
C12   O4    A    
C46   H30   S    
C49   O17   D    
C46   O14   D    
C51   H39   S    
C22   H3    S    
Cu2   O6    S    
C15   H27   S    
C38   H22   S    
C26   C30   S    
C33   H14   S    
C36   C51   S    
C1    O1    A    
C18   C24   A    
C42   C43   A    
C39   O7    A    
C35   C48   S    
C26   H7    S    
C3    H16   S    
C25   C30   S    
C41   O10   S    
C11   C17   A    
C8    H24   S    
C28   C31   S    
Cu1   O3    S    
C8    C44   A    
C29   H11   S    
C4    C5    A    
C6    C10   A    
Cu2   N3    S    
C52   O18   D    
C24   N1    S    
C6    C7    A    
C13   H26   S    
C25   C27   S    
C26   C28   S    
C32   H13   S    
C40   N1    A    
C2    C3    A    
C12   C14   S    
C25   H6    S    
C35   C50   S    
C36   N4    S    
C26   H5    S    
C34   N4    S    
Cu2   O2    S    
C11   C13   A    
C33   N3    S    
C50   H35   S    
C2    C42   A    
C37   H21   S    
C48   H32   S    
C12   O3    A    
C22   C24   A    
C2    C45   S    
C51   H38   S    
C40   C44   A    
C20   C21   A    
C10   O12   S    
C19   H1    S    
C49   H33   S    
C1    O2    A    
C14   C15   A    
C27   C46   S    
C39   O8    A    
C4    C9    A    
C21   C22   A    
C3    C4    A    
Cu2   O8    S    
C50   H36   S    
