data_mof_unit_31837.cif
_audit_creation_date              2012-10-26T19:03:56-0400
_audit_creation_method            fapswitch 2.2
_symmetry_space_group_name_H-M    P1
_symmetry_Int_Tables_number       1
_space_group_crystal_system       triclinic
_cell_length_a                    15.91145
_cell_length_b                    13.04428
_cell_length_c                    11.705651
_cell_angle_alpha                 99.081801
_cell_angle_beta                  93.314
_cell_angle_gamma                 92.139029
_cell_volume                      2392.41890067

loop_
_atom_site_label
_atom_site_type_symbol
_atom_type_description
_atom_site_fract_x
_atom_site_fract_y
_atom_site_fract_z
_atom_type_partial_charge
C1    C     C_R   0.505436 0.299738 0.479122 0.569631
C2    C     C_R   0.516175 0.187096 0.468190 0.009750
C3    C     C_R   0.537067 0.019262 0.354593 -0.033420
C4    C     C_R   0.340509 0.499644 0.500513 0.575657
C5    C     C_R   0.527230 0.125092 0.359631 0.065501
C6    C     C_R   0.516281 0.139146 0.568432 0.100224
C7    C     C_R   0.503479 0.031075 0.555463 -0.018737
C8    C     C_R   0.526801 0.971316 0.452221 -0.012334
C9    C     C_R   0.538772 0.865195 0.448671 0.227966
C10   C     C_R   0.461783 0.872228 0.625775 0.061462
C11   C     C_R   0.467057 0.981470 0.640706 0.110676
C12   C     C_3   0.951789 0.424384 0.573635 0.051332
C13   C     C_R   0.392648 0.453693 0.036427 0.066364
C14   C     C_R   0.409080 0.447144 0.153538 0.087617
C15   C     C_R   0.546706 0.521055 0.151654 0.108018
C16   C     C_R   0.500961 0.700710 0.520931 0.594944
C17   C     C_R   0.535202 0.524152 0.031348 -0.015264
C18   C     C_R   0.459080 0.483628 0.970503 0.016452
C19   C     C_R   0.454261 0.472608 0.847110 0.268483
C20   C     C_R   0.584694 0.568964 0.851748 0.064338
C21   C     C_R   0.597325 0.568586 0.971428 -0.122028
C22   C     C_R   0.659543 0.500331 0.499430 0.588665
C23   C     C_3   0.916082 0.503188 0.493815 -0.139431
C24   C     C_3   0.049149 0.412108 0.562259 0.060428
C25   C     C_3   0.044123 0.475679 0.362377 0.225909
C26   C     C_3   0.941896 0.466583 0.362746 0.238719
C27   C     C_1   0.748639 0.501450 0.498108 0.163505
C28   C     C_3   0.084188 0.501204 0.496218 -0.154971
C29   C     C_3   0.955660 0.618131 0.553635 0.188642
C30   C     C_3   0.058299 0.613817 0.571678 0.280246
C31   C     C_1   0.823889 0.502216 0.496080 0.143902
C32   C     C_1   0.176129 0.499724 0.499028 0.161352
C33   C     C_1   0.251498 0.499445 0.501039 0.181672
C34   C     C_R   0.501769 0.814150 0.532856 -0.025875
Cu1   Cu    Cu3+1 0.506190 0.507730 0.615930 1.081801
Cu2   Cu    Cu3+1 0.493810 0.492270 0.384070 1.088394
H1    H     H_    0.077680 0.433428 0.649707 0.210934
H2    H     H_    0.714854 0.850577 0.258620 0.392746
H3    H     H_    0.210672 0.214956 0.497063 0.381057
H4    H     H_    0.094433 0.312045 0.086038 0.393537
H5    H     H_    0.765701 0.268753 0.269097 0.393313
H6    H     H_    0.077218 0.552997 0.884107 0.410808
H7    H     H_    0.147788 0.887771 0.637732 0.386708
H8    H     H_    0.951369 0.470211 0.659652 0.165616
H9    H     H_    0.548020 0.973951 0.271617 0.214372
H10   H     H_    0.632539 0.605181 0.807368 0.158188
H11   H     H_    0.655057 0.603781 0.017023 0.148105
H12   H     H_    0.358434 0.421992 0.201526 0.186356
H13   H     H_    0.604763 0.552654 0.198987 0.184049
H14   H     H_    0.863330 0.393940 0.792589 0.375653
H15   H     H_    0.909439 0.892690 0.537194 0.400897
I1    I     I_    0.387642 0.796880 0.740303 -0.077507
I2    I     I_    0.400993 0.068522 0.775790 -0.138580
I3    I     I_    0.541333 0.179516 0.198591 -0.199648
I4    I     I_    0.588590 0.211465 0.723129 -0.112970
I5    I     I_    0.369327 0.352976 0.753315 -0.122136
I6    I     I_    0.261074 0.456159 0.989361 -0.127387
I7    I     I_    0.089359 0.588030 0.258240 0.022993
I8    I     I_    0.873063 0.546956 0.236752 -0.012954
I9    I     I_    0.893346 0.662941 0.718914 -0.049637
N1    N     N_R   0.515490 0.519350 0.790130 -0.239647
N2    N     N_R   0.484510 0.480650 0.209890 -0.257065
O1    O     O_R   0.504390 0.354460 0.582000 -0.477355
O2    O     O_2   0.933134 0.242677 0.665691 -0.149342
O3    O     O_3   0.824819 0.380301 0.721731 -0.504676
O4    O     O_2   0.952987 0.737445 0.372354 -0.196764
O5    O     O_2   0.822722 0.714656 0.464831 -0.249578
O6    O     O_3   0.938211 0.839764 0.575219 -0.384279
O7    O     O_2   0.651407 0.715932 0.394607 -0.247965
O8    O     O_2   0.558693 0.760282 0.236351 -0.308904
O9    O     O_3   0.683652 0.888626 0.321592 -0.477896
O10   O     O_2   0.116390 0.263675 0.671712 -0.219815
O11   O     O_2   0.036056 0.196518 0.492107 -0.103430
O12   O     O_R   0.493940 0.341410 0.386200 -0.483501
O13   O     O_3   0.184985 0.280005 0.482268 -0.487475
O14   O     O_2   0.186445 0.381213 0.279347 -0.289015
O15   O     O_2   0.070842 0.260329 0.296945 -0.120341
O16   O     O_3   0.060908 0.365301 0.130296 -0.435508
O17   O     O_2   0.908525 0.310958 0.174225 -0.171325
O18   O     O_2   0.922641 0.251684 0.359715 -0.137196
O19   O     O_3   0.787128 0.338847 0.307154 -0.519152
O20   O     O_2   0.187154 0.597723 0.737116 -0.246977
O21   O     O_2   0.088193 0.729451 0.795776 -0.124745
O22   O     O_3   0.045049 0.543546 0.807873 -0.565475
O23   O     O_R   0.384660 0.506540 0.597940 -0.474756
O24   O     O_2   0.212199 0.715856 0.557705 -0.283678
O25   O     O_2   0.104757 0.768404 0.428956 -0.182389
O26   O     O_3   0.100361 0.836950 0.640370 -0.362194
O27   O     O_R   0.374210 0.493480 0.402140 -0.518083
O28   O     O_R   0.506060 0.658590 0.613800 -0.496962
O29   O     O_R   0.495610 0.645540 0.418000 -0.442296
O30   O     O_R   0.625790 0.506520 0.597860 -0.510150
O31   O     O_R   0.615340 0.493460 0.402060 -0.481682
O32   O     O_2   0.822630 0.269434 0.521068 -0.158907
S1    S     S_3+6 0.883357 0.322964 0.616528 0.119139
S2    S     S_3+6 0.916864 0.726680 0.485246 0.111661
S3    S     S_3+6 0.608534 0.802642 0.347864 0.031530
S4    S     S_3+6 0.094793 0.284055 0.550620 0.130842
S5    S     S_3+6 0.091994 0.366359 0.270666 0.130037
S6    S     S_3+6 0.892531 0.337867 0.300470 0.129303
S7    S     S_3+6 0.095538 0.621962 0.729846 0.065464
S8    S     S_3+6 0.119568 0.732494 0.542957 0.146444

loop_
_geom_bond_atom_site_label_1
_geom_bond_atom_site_label_2
_ccdc_geom_bond_type
C19   I5    S    
Cu2   O27   S    
C16   O28   A    
Cu1   Cu2   S    
C6    I4    S    
C10   I1    S    
C7    C8    A    
O10   S4    D    
O14   S5    D    
C7    C11   A    
O9    S3    S    
C12   C23   S    
O6    S2    S    
C13   C18   A    
C24   S4    S    
H7    O26   S    
C23   C29   S    
C18   C19   A    
C13   I6    S    
C14   N2    A    
C1    C2    S    
C23   C26   S    
C20   N1    A    
C16   C34   S    
C4    C33   S    
Cu2   O31   S    
C25   S5    S    
C8    C9    A    
C12   S1    S    
H3    O13   S    
C26   I8    S    
C11   I2    S    
O8    S3    D    
Cu1   O30   S    
C13   C14   A    
O18   S6    D    
O22   S7    S    
C2    C6    A    
Cu2   N2    S    
C1    O1    A    
C17   C18   A    
O11   S4    D    
C27   C31   T    
O17   S6    D    
C28   C32   S    
H6    O22   S    
C10   C34   A    
C3    C8    A    
C14   H12   S    
C4    O23   A    
C25   C26   S    
C3    H9    S    
O13   S4    S    
C17   C21   A    
C25   C28   S    
C23   C31   S    
C29   C30   S    
O25   S8    D    
C5    I3    S    
C29   I9    S    
H5    O19   S    
C30   S8    S    
C24   H1    S    
Cu1   N1    S    
Cu2   O12   S    
C15   N2    A    
Cu2   O29   S    
C22   C27   S    
O5    S2    D    
C22   O31   A    
H4    O16   S    
C2    C5    A    
C25   I7    S    
C1    O12   A    
O24   S8    D    
O4    S2    D    
C4    O27   A    
C15   C17   A    
H2    O9    S    
C9    S3    S    
O21   S7    D    
C24   C28   S    
O2    S1    D    
C3    C5    A    
C29   S2    S    
O26   S8    S    
C6    C7    A    
O19   S6    S    
C12   C24   S    
C32   C33   T    
C28   C30   S    
C12   H8    S    
Cu1   O23   S    
C9    C34   A    
C19   N1    A    
C30   S7    S    
O20   S7    D    
O15   S5    D    
H15   O6    S    
C15   H13   S    
O32   S1    D    
H14   O3    S    
C10   C11   A    
Cu1   O28   S    
O3    S1    S    
C20   C21   A    
C16   O29   A    
O16   S5    S    
C22   O30   A    
Cu1   O1    S    
C20   H10   S    
C26   S6    S    
C21   H11   S    
O7    S3    D    
