data_mof_unit_18359.cif
_audit_creation_date              2012-12-11T15:17:42-0500
_audit_creation_method            fapswitch 2.2
_symmetry_space_group_name_H-M    P1
_symmetry_Int_Tables_number       1
_space_group_crystal_system       triclinic
_cell_length_a                    6.9355
_cell_length_b                    20.07858
_cell_length_c                    22.359264
_cell_angle_alpha                 89.99979
_cell_angle_beta                  89.998835
_cell_angle_gamma                 89.998528
_cell_volume                      3113.63911859

loop_
_atom_site_label
_atom_site_type_symbol
_atom_type_description
_atom_site_fract_x
_atom_site_fract_y
_atom_site_fract_z
_atom_type_partial_charge
O1    O     O_R   0.620180 0.810610 0.187990 -0.540207
O2    O     O_R   0.379820 0.189390 0.812010 -0.540207
O3    O     O_R   0.379820 0.189390 0.687990 -0.540211
O4    O     O_R   0.620180 0.810610 0.312010 -0.540211
O5    O     O_R   0.120180 0.689390 0.312010 -0.540217
O6    O     O_R   0.879820 0.310610 0.687990 -0.540217
O7    O     O_R   0.879820 0.310610 0.812010 -0.540211
O8    O     O_R   0.120180 0.689390 0.187990 -0.540211
O9    O     O_R   0.290420 0.818570 0.311590 -0.541853
O10   O     O_R   0.709580 0.181430 0.688410 -0.541853
O11   O     O_R   0.709580 0.181430 0.811590 -0.541846
O12   O     O_R   0.290420 0.818570 0.188410 -0.541846
O13   O     O_R   0.790420 0.681430 0.188410 -0.541848
O14   O     O_R   0.209580 0.318570 0.811590 -0.541848
O15   O     O_R   0.209580 0.318570 0.688410 -0.541855
O16   O     O_R   0.790420 0.681430 0.311590 -0.541855
H1    H     H_    0.572480 0.509059 0.590485 0.134309
H2    H     H_    0.427520 0.490941 0.409515 0.134309
H3    H     H_    0.427456 0.490903 0.090509 0.134298
H4    H     H_    0.572544 0.509096 0.909491 0.134298
H5    H     H_    0.072606 0.990865 0.909456 0.134275
H6    H     H_    0.927394 0.009135 0.090544 0.134275
H7    H     H_    0.927495 0.009072 0.409501 0.134304
H8    H     H_    0.072505 0.990928 0.590499 0.134304
C1    C     C_R   0.459376 0.834759 0.332190 0.710549
C2    C     C_R   0.540624 0.165241 0.667810 0.710549
C3    C     C_R   0.540622 0.165239 0.832187 0.710557
C4    C     C_R   0.459378 0.834761 0.167812 0.710557
C5    C     C_R   0.959381 0.665242 0.167810 0.710566
C6    C     C_R   0.040619 0.334758 0.832190 0.710566
C7    C     C_R   0.040621 0.334756 0.667809 0.710564
C8    C     C_R   0.959379 0.665244 0.332191 0.710564
H9    H     H_    0.746740 0.419994 0.643176 0.127598
H10   H     H_    0.253260 0.580006 0.356824 0.127597
H11   H     H_    0.253183 0.579946 0.143221 0.127575
H12   H     H_    0.746817 0.420054 0.856779 0.127575
H13   H     H_    0.246903 0.079901 0.856739 0.127560
H14   H     H_    0.753097 0.920099 0.143261 0.127560
H15   H     H_    0.753176 0.920051 0.356776 0.127573
H16   H     H_    0.246824 0.079948 0.643224 0.127573
O17   O     O_3   0.453640 0.707610 0.250000 -0.370190
O18   O     O_3   0.546360 0.292390 0.750000 -0.370190
O19   O     O_3   0.953640 0.792390 0.250000 -0.370187
O20   O     O_3   0.046360 0.207610 0.750000 -0.370187
V1    V     V_3+5 0.178800 0.757860 0.250000 1.397634
V2    V     V_3+5 0.821200 0.242140 0.750000 1.397634
V3    V     V_3+5 0.678800 0.742140 0.250000 1.397629
V4    V     V_3+5 0.321200 0.257860 0.750000 1.397629
C9    C     C_R   0.183341 0.391065 0.577787 -0.221609
C10   C     C_R   0.816658 0.608935 0.422213 -0.221609
C11   C     C_R   0.816694 0.608957 0.077772 -0.221584
C12   C     C_R   0.183306 0.391043 0.922227 -0.221584
C13   C     C_R   0.683278 0.108973 0.922242 -0.221569
C14   C     C_R   0.316722 0.891027 0.077758 -0.221569
C15   C     C_R   0.316677 0.891050 0.422225 -0.221588
C16   C     C_R   0.683322 0.108949 0.577775 -0.221588
C17   C     C_R   0.030139 0.384390 0.618671 -0.083692
C18   C     C_R   0.969861 0.615610 0.381329 -0.083693
C19   C     C_R   0.969862 0.615606 0.118674 -0.083695
C20   C     C_R   0.030138 0.384394 0.881326 -0.083695
C21   C     C_R   0.530152 0.115599 0.881320 -0.083699
C22   C     C_R   0.469848 0.884401 0.118680 -0.083699
C23   C     C_R   0.469849 0.884397 0.381323 -0.083688
C24   C     C_R   0.530151 0.115603 0.618677 -0.083688
C25   C     C_R   0.865131 0.424555 0.611773 -0.219427
C26   C     C_R   0.134869 0.575445 0.388227 -0.219427
C27   C     C_R   0.134831 0.575413 0.111797 -0.219407
C28   C     C_R   0.865169 0.424587 0.888203 -0.219407
C29   C     C_R   0.365220 0.075386 0.888180 -0.219392
C30   C     C_R   0.634780 0.924614 0.111820 -0.219392
C31   C     C_R   0.634823 0.924586 0.388201 -0.219402
C32   C     C_R   0.365177 0.075414 0.611799 -0.219402
C33   C     C_R   0.853213 0.471280 0.565135 0.089280
C34   C     C_R   0.146787 0.528720 0.434865 0.089280
C35   C     C_R   0.146758 0.528698 0.065150 0.089298
C36   C     C_R   0.853242 0.471302 0.934850 0.089298
C37   C     C_R   0.353275 0.028678 0.934832 0.089309
C38   C     C_R   0.646725 0.971321 0.065167 0.089309
C39   C     C_R   0.646763 0.971296 0.434851 0.089289
C40   C     C_R   0.353237 0.028704 0.565149 0.089289
C41   C     C_R   0.006159 0.476906 0.523813 0.053304
C42   C     C_R   0.993841 0.523094 0.476187 0.053304
C43   C     C_R   0.993841 0.523092 0.023814 0.053283
C44   C     C_R   0.006159 0.476908 0.976186 0.053283
C45   C     C_R   0.506163 0.023090 0.976185 0.053250
C46   C     C_R   0.493837 0.976910 0.023815 0.053250
C47   C     C_R   0.493837 0.976909 0.476185 0.053286
C48   C     C_R   0.506163 0.023091 0.523814 0.053286
C49   C     C_R   0.171275 0.436360 0.529984 0.090481
C50   C     C_R   0.828725 0.563640 0.470016 0.090481
C51   C     C_R   0.828751 0.563654 0.029975 0.090483
C52   C     C_R   0.171249 0.436346 0.970025 0.090483
C53   C     C_R   0.671228 0.063667 0.970037 0.090495
C54   C     C_R   0.328772 0.936333 0.029963 0.090495
C55   C     C_R   0.328732 0.936356 0.470021 0.090486
C56   C     C_R   0.671268 0.063644 0.529979 0.090486
C57   C     C_R   0.690978 0.512535 0.559049 -0.190232
C58   C     C_R   0.309022 0.487465 0.440951 -0.190232
C59   C     C_R   0.308977 0.487438 0.059066 -0.190205
C60   C     C_R   0.691023 0.512562 0.940934 -0.190205
C61   C     C_R   0.191069 0.987411 0.940908 -0.190168
C62   C     C_R   0.808931 0.012589 0.059092 -0.190168
C63   C     C_R   0.809005 0.012543 0.440941 -0.190227
C64   C     C_R   0.190995 0.987457 0.559059 -0.190227
C65   C     C_R   0.679014 0.558361 0.511995 -0.182326
C66   C     C_R   0.320986 0.441639 0.488005 -0.182326
C67   C     C_R   0.320943 0.441617 0.012008 -0.182328
C68   C     C_R   0.679057 0.558383 0.987992 -0.182328
C69   C     C_R   0.179097 0.941592 0.987969 -0.182295
C70   C     C_R   0.820902 0.058408 0.012031 -0.182295
C71   C     C_R   0.820978 0.058362 0.488001 -0.182324
C72   C     C_R   0.179022 0.941638 0.511999 -0.182324
H17   H     H_    0.551731 0.589379 0.508200 0.135862
H18   H     H_    0.448269 0.410621 0.491800 0.135862
H19   H     H_    0.448209 0.410596 0.008214 0.135854
H20   H     H_    0.551791 0.589404 0.991786 0.135854
H21   H     H_    0.051845 0.910562 0.991754 0.135827
H22   H     H_    0.948155 0.089438 0.008246 0.135827
H23   H     H_    0.948262 0.089376 0.491798 0.135864
H24   H     H_    0.051738 0.910624 0.508202 0.135864
H25   H     H_    0.310377 0.360025 0.582468 0.124222
H26   H     H_    0.689623 0.639975 0.417531 0.124222
H27   H     H_    0.689696 0.640024 0.082436 0.124210
H28   H     H_    0.310304 0.359976 0.917564 0.124210
H29   H     H_    0.810233 0.140062 0.917595 0.124204
H30   H     H_    0.189767 0.859938 0.082405 0.124204
H31   H     H_    0.189678 0.859985 0.417563 0.124208
H32   H     H_    0.810322 0.140015 0.582437 0.124208

loop_
_geom_bond_atom_site_label_1
_geom_bond_atom_site_label_2
_ccdc_geom_bond_type
C47   C48   A    
C48   C56   A    
O9    V1    S    
H13   C29   S    
C38   C62   A    
C11   H27   S    
C29   C37   A    
C10   H26   S    
H1    C57   S    
C8    C18   S    
C68   H20   S    
H10   C26   S    
H14   C30   S    
O4    C1    A    
C69   H21   S    
C34   C58   A    
C45   C46   A    
C33   C57   A    
C14   H30   S    
C10   C50   A    
C66   H18   S    
O8    C5    A    
O13   C5    A    
O13   V3    S    
O14   C6    A    
C55   C72   A    
C1    C23   S    
C30   C38   A    
C61   C69   A    
C26   C34   A    
O3    V4    S    
C9    C17   A    
C22   C30   A    
C71   H23   S    
O18   V2    S    
C33   C41   A    
C2    C24   S    
O8    V1    S    
C46   C54   A    
C11   C51   A    
C45   C53   A    
C18   C26   A    
H7    C63   S    
C5    C19   S    
C6    C20   S    
C49   C66   A    
O10   V2    S    
O1    C4    A    
C16   C24   A    
O2    C3    A    
O11   C3    A    
C12   C20   A    
O6    V2    S    
C53   C70   A    
O5    C8    A    
C41   C49   A    
O10   C2    A    
C16   H32   S    
O6    C7    A    
C37   C45   A    
O7    C6    A    
C39   C63   A    
C13   C21   A    
O15   V4    S    
C34   C42   A    
O16   V3    S    
C39   C47   A    
O20   V2    S    
C41   C42   A    
C11   C19   A    
C15   H31   S    
C56   C71   A    
C36   C44   A    
C60   C68   A    
H9    C25   S    
C10   C18   A    
O7    V2    S    
C36   C60   A    
C15   C55   A    
C25   C33   A    
C17   C25   A    
C72   H24   S    
H3    C59   S    
O1    V3    S    
O14   V4    S    
C14   C22   A    
O2    V4    S    
O5    V1    S    
C31   C39   A    
C15   C23   A    
H8    C64   S    
C3    C21   S    
C19   C27   A    
C43   C44   A    
H4    C60   S    
H11   C27   S    
C52   C67   A    
C9    H25   S    
C35   C59   A    
O17   V3    S    
C65   H17   S    
O18   V4    S    
C44   C52   A    
C70   H22   S    
O19   V1    S    
C67   H19   S    
C13   H29   S    
C23   C31   A    
C12   C52   A    
C28   C36   A    
C59   C67   A    
C64   C72   A    
C21   C29   A    
C16   C56   A    
C47   C55   A    
H15   C31   S    
H16   C32   S    
C51   C68   A    
O3    C2    A    
C50   C65   A    
C9    C49   A    
O12   V1    S    
O11   V2    S    
C42   C50   A    
O9    C1    A    
H12   C28   S    
O15   C7    A    
C63   C71   A    
O16   C8    A    
C43   C51   A    
C54   C69   A    
H6    C62   S    
C7    C17   S    
C57   C65   A    
H5    C61   S    
C40   C48   A    
C12   H28   S    
C35   C43   A    
C58   C66   A    
C37   C61   A    
C24   C32   A    
C14   C54   A    
C62   C70   A    
C27   C35   A    
C20   C28   A    
C32   C40   A    
C38   C46   A    
O17   V1    S    
C40   C64   A    
H2    C58   S    
O12   C4    A    
O19   V3    S    
C13   C53   A    
O20   V4    S    
O4    V3    S    
C4    C22   S    
