data_mof_unit_21821.cif
_audit_creation_date              2012-12-11T16:51:27-0500
_audit_creation_method            fapswitch 2.2
_symmetry_space_group_name_H-M    P1
_symmetry_Int_Tables_number       1
_space_group_crystal_system       triclinic
_cell_length_a                    24.522837
_cell_length_b                    17.213849
_cell_length_c                    15.555284
_cell_angle_alpha                 89.986034
_cell_angle_beta                  129.582775
_cell_angle_gamma                 90.020791
_cell_volume                      5060.74788188

loop_
_atom_site_label
_atom_site_type_symbol
_atom_type_description
_atom_site_fract_x
_atom_site_fract_y
_atom_site_fract_z
_atom_type_partial_charge
C1    C     C_R   0.832848 0.891457 0.198181 -0.093433
C2    C     C_R   0.170690 0.153877 0.504236 0.040920
C3    C     C_3   0.149559 0.447894 0.872643 -0.230721
C4    C     C_3   0.254683 0.807950 0.728440 -0.356337
C5    C     C_3   0.745154 0.808122 0.271425 -0.354862
C6    C     C_3   0.754687 0.307956 0.728445 -0.356366
C7    C     C_3   0.245154 0.308119 0.271430 -0.354994
C8    C     C_R   0.329248 0.653676 0.495752 0.043700
C9    C     C_R   0.670691 0.653873 0.504233 0.040924
C10   C     C_R   0.879345 0.180576 0.202911 0.145970
C11   C     C_R   0.120659 0.180621 0.796989 0.144599
C12   C     C_R   0.379337 0.680566 0.202889 0.146025
C13   C     C_R   0.620629 0.680654 0.796913 0.144321
C14   C     C_R   0.785271 0.831576 0.615658 0.092414
C15   C     C_R   0.214276 0.830818 0.384212 0.143818
C16   C     C_R   0.285269 0.331580 0.615658 0.092429
C17   C     C_R   0.167136 0.891414 0.801758 -0.093688
C18   C     C_R   0.714282 0.330831 0.384215 0.143798
C19   C     C_R   0.764782 0.861640 0.514843 0.050166
C20   C     C_R   0.234992 0.861173 0.485027 0.031087
C21   C     C_R   0.264781 0.361643 0.514843 0.050173
C22   C     C_R   0.734996 0.361182 0.485030 0.031104
C23   C     C_R   0.695381 0.846070 0.418002 -0.194698
C24   C     C_R   0.304459 0.845795 0.581795 -0.194347
C25   C     C_R   0.195380 0.346073 0.418002 -0.194697
C26   C     C_R   0.804462 0.345805 0.581799 -0.194372
C27   C     C_R   0.162158 0.278721 0.414409 -0.239846
C28   C     C_R   0.332853 0.391438 0.198192 -0.093364
C29   C     C_R   0.837748 0.278539 0.585442 -0.239895
C30   C     C_R   0.662159 0.778718 0.414408 -0.239845
C31   C     C_R   0.337742 0.778527 0.585440 -0.239874
C32   C     C_R   0.196955 0.231355 0.510062 0.067698
C33   C     C_R   0.802932 0.231089 0.489879 0.056594
C34   C     C_R   0.696957 0.731350 0.510060 0.067700
C35   C     C_R   0.302924 0.731076 0.489878 0.056580
C36   C     C_R   0.252523 0.265146 0.612195 0.128411
C37   C     C_R   0.747268 0.264724 0.387708 0.136149
C38   C     C_R   0.752525 0.765141 0.612193 0.128424
C39   C     C_R   0.667138 0.391420 0.801762 -0.093720
C40   C     C_R   0.247261 0.764709 0.387706 0.136142
C41   C     C_3   0.818515 0.732603 0.716764 -0.522826
C42   C     C_3   0.181125 0.732060 0.283541 -0.523547
C43   C     C_3   0.318513 0.232610 0.716767 -0.522818
C44   C     C_3   0.681133 0.232075 0.283540 -0.523536
C45   C     C_R   0.113142 0.902135 0.405437 -0.263504
C46   C     C_R   0.886815 0.902146 0.594540 -0.264030
C47   C     C_R   0.613143 0.402138 0.405438 -0.263521
C48   C     C_R   0.386815 0.402147 0.594540 -0.264029
C49   C     C_3   0.855074 0.805496 0.723359 -0.181446
C50   C     C_R   0.892343 0.123084 0.590354 -0.159267
C51   C     C_3   0.144428 0.804622 0.277208 -0.203710
C52   C     C_3   0.355072 0.305502 0.723360 -0.181467
C53   C     C_3   0.644435 0.304636 0.277209 -0.203709
C54   C     C_2   0.193082 0.840393 0.977680 -0.389327
C55   C     C_2   0.806945 0.840526 0.022232 -0.400534
C56   C     C_2   0.693082 0.340411 0.977689 -0.389386
C57   C     C_2   0.306957 0.340446 0.022284 -0.400418
C58   C     C_2   0.263059 0.854956 0.050321 0.676960
C59   C     C_2   0.736973 0.855037 0.949538 0.674513
C60   C     C_2   0.763062 0.354956 0.050327 0.676937
C61   C     C_R   0.107624 0.123191 0.409645 -0.158822
C62   C     C_2   0.236999 0.355026 0.949566 0.674556
C63   C     C_2   0.852860 0.253906 0.140992 -0.196762
C64   C     C_2   0.147152 0.253976 0.858854 -0.191746
C65   C     C_2   0.352841 0.753886 0.140945 -0.196799
C66   C     C_2   0.647096 0.754031 0.858723 -0.191444
C67   C     C_2   0.806670 0.297266 0.139246 -0.323353
C68   C     C_2   0.193378 0.297337 0.860631 -0.325112
C69   C     C_2   0.306679 0.797267 0.139241 -0.323444
C70   C     C_2   0.693387 0.797344 0.860606 -0.324885
C71   C     C_R   0.187030 0.893759 0.588537 0.598989
C72   C     C_R   0.392335 0.623072 0.590352 -0.159279
C73   C     C_R   0.812935 0.893813 0.411451 0.597587
C74   C     C_R   0.687031 0.393761 0.588537 0.598993
C75   C     C_R   0.312935 0.393813 0.411451 0.597614
C76   C     C_R   0.075730 0.889943 0.800916 -0.152351
C77   C     C_R   0.924274 0.889990 0.199080 -0.154763
C78   C     C_R   0.575732 0.389950 0.800919 -0.152362
C79   C     C_R   0.424283 0.389963 0.199099 -0.154704
C80   C     C_R   0.853339 0.870944 0.136470 0.176033
C81   C     C_R   0.146654 0.870867 0.863475 0.170387
C82   C     C_R   0.353353 0.370902 0.136499 0.176014
C83   C     C_R   0.607623 0.623190 0.409644 -0.158825
C84   C     C_R   0.646657 0.370879 0.863482 0.170397
C85   C     C_R   0.181634 0.884152 0.494289 -0.076886
C86   C     C_R   0.818283 0.884268 0.505676 -0.078636
C87   C     C_R   0.681636 0.384156 0.494290 -0.076885
C88   C     C_R   0.318283 0.384269 0.505675 -0.078644
C89   C     C_R   0.816327 0.116712 0.405506 0.017988
C90   C     C_R   0.183653 0.116815 0.594486 0.017707
C91   C     C_R   0.316323 0.616704 0.405505 0.017974
C92   C     C_R   0.683655 0.616812 0.594484 0.017696
C93   C     C_R   0.938137 0.138614 0.235044 -0.144635
C94   C     C_R   0.829256 0.153690 0.495753 0.043688
C95   C     C_R   0.061854 0.138647 0.764875 -0.143863
C96   C     C_R   0.438132 0.638606 0.235029 -0.144598
C97   C     C_R   0.561835 0.638670 0.764824 -0.143816
C98   C     C_R   0.151452 0.139484 0.761583 -0.108370
C99   C     C_R   0.848556 0.139458 0.238373 -0.109015
C100  C     C_R   0.651437 0.639500 0.761543 -0.108310
C101  C     C_R   0.348552 0.639455 0.238365 -0.108948
C102  C     C_3   0.350537 0.947826 0.127136 -0.229172
C103  C     C_3   0.649763 0.948111 0.872774 -0.231428
C104  C     C_3   0.850484 0.447878 0.127126 -0.229186
H1    H     H_    0.779640 0.893854 0.169058 0.200538
H2    H     H_    0.184073 0.726727 0.215291 0.199896
H3    H     H_    0.315201 0.226933 0.784584 0.195461
H4    H     H_    0.684082 0.226745 0.215291 0.199888
H5    H     H_    0.838285 0.680640 0.701657 0.188567
H6    H     H_    0.161672 0.679910 0.298932 0.186515
H7    H     H_    0.338284 0.180646 0.701662 0.188567
H8    H     H_    0.661679 0.179925 0.298928 0.186513
H9    H     H_    0.898082 0.792251 0.720145 0.159435
H10   H     H_    0.101449 0.791642 0.280691 0.151466
H11   H     H_    0.398080 0.292255 0.720148 0.159438
H12   H     H_    0.220337 0.893795 0.830843 0.200618
H13   H     H_    0.601455 0.291653 0.280689 0.151459
H14   H     H_    0.791202 0.281488 0.188619 0.128056
H15   H     H_    0.208880 0.281544 0.811315 0.123265
H16   H     H_    0.291249 0.781519 0.188672 0.128098
H17   H     H_    0.708954 0.781509 0.811392 0.123151
H18   H     H_    0.867124 0.269554 0.089875 0.147931
H19   H     H_    0.132869 0.269638 0.909931 0.147275
H20   H     H_    0.367070 0.769508 0.089777 0.147879
H21   H     H_    0.632745 0.769744 0.909695 0.147560
H22   H     H_    0.170110 0.798176 0.998554 0.115241
H23   H     H_    0.279639 0.393833 0.169047 0.200399
H24   H     H_    0.829949 0.798401 0.001346 0.114783
H25   H     H_    0.670103 0.298213 0.998571 0.115231
H26   H     H_    0.329935 0.298234 0.001454 0.114806
H27   H     H_    0.091989 0.914634 0.321445 0.134343
H28   H     H_    0.907921 0.914733 0.678467 0.135501
H29   H     H_    0.591991 0.414638 0.321446 0.134344
H30   H     H_    0.407920 0.414735 0.678467 0.135504
H31   H     H_    0.045630 0.890094 0.829839 0.101582
H32   H     H_    0.954392 0.890167 0.170187 0.099600
H33   H     H_    0.545632 0.390104 0.829843 0.101584
H34   H     H_    0.720338 0.393803 0.830844 0.200641
H35   H     H_    0.454404 0.390126 0.170211 0.099603
H36   H     H_    0.971854 0.152967 0.215446 0.089795
H37   H     H_    0.028114 0.153023 0.784405 0.089816
H38   H     H_    0.471846 0.652954 0.215425 0.089792
H39   H     H_    0.528086 0.653061 0.784333 0.089830
H40   H     H_    0.199751 0.153667 0.777027 0.101131
H41   H     H_    0.800265 0.153635 0.222933 0.101253
H42   H     H_    0.699731 0.653685 0.776974 0.101119
H43   H     H_    0.300262 0.653635 0.222926 0.101255
H44   H     H_    0.914876 0.132340 0.675823 0.092437
H45   H     H_    0.113020 0.261212 0.335176 0.133461
H46   H     H_    0.085083 0.132472 0.324176 0.092656
H47   H     H_    0.414862 0.632319 0.675820 0.092442
H48   H     H_    0.585080 0.632472 0.324174 0.092660
H49   H     H_    0.671737 0.877007 0.341089 0.186662
H50   H     H_    0.328143 0.876838 0.658642 0.187869
H51   H     H_    0.171737 0.377008 0.341088 0.186659
H52   H     H_    0.828145 0.376847 0.658647 0.187861
H53   H     H_    0.896394 0.907042 0.812499 0.092544
H54   H     H_    0.835459 0.866970 0.815951 0.122614
H55   H     H_    0.076327 0.829184 0.110817 0.121673
H56   H     H_    0.886959 0.261154 0.664649 0.134352
H57   H     H_    0.108430 0.908074 0.192669 0.096833
H58   H     H_    0.396392 0.407049 0.812497 0.092555
H59   H     H_    0.335456 0.366979 0.815949 0.122659
H60   H     H_    0.576322 0.329214 0.110822 0.121663
H61   H     H_    0.608459 0.408099 0.192694 0.096844
H62   H     H_    0.397839 0.909539 0.173843 0.151052
H63   H     H_    0.337323 0.965445 0.180888 0.127704
H64   H     H_    0.364332 0.001369 0.104988 0.164472
H65   H     H_    0.602387 0.909911 0.825240 0.151621
H66   H     H_    0.663455 0.966128 0.819778 0.125403
H67   H     H_    0.613022 0.761210 0.335175 0.133462
H68   H     H_    0.635824 0.001441 0.895006 0.164893
H69   H     H_    0.897804 0.409602 0.174056 0.151025
H70   H     H_    0.837150 0.465603 0.180688 0.127691
H71   H     H_    0.864326 0.501368 0.104960 0.164482
H72   H     H_    0.102215 0.409638 0.826016 0.151559
H73   H     H_    0.162770 0.465387 0.818833 0.125356
H74   H     H_    0.135834 0.501515 0.894714 0.164719
H75   H     H_    0.263271 0.770234 0.680104 0.164760
H76   H     H_    0.207783 0.786256 0.717379 0.143783
H77   H     H_    0.301552 0.801881 0.817928 0.189128
H78   H     H_    0.386954 0.761141 0.664646 0.134371
H79   H     H_    0.736520 0.770397 0.319723 0.164665
H80   H     H_    0.792016 0.786385 0.282442 0.144013
H81   H     H_    0.698268 0.802124 0.181933 0.189209
H82   H     H_    0.763277 0.270241 0.680110 0.164753
H83   H     H_    0.707788 0.286261 0.717386 0.143777
H84   H     H_    0.801556 0.301890 0.817934 0.189140
H85   H     H_    0.236518 0.270397 0.319728 0.164706
H86   H     H_    0.292018 0.286378 0.282452 0.144025
H87   H     H_    0.198270 0.302118 0.181937 0.189136
H88   H     H_    0.726282 0.057421 0.334256 0.118211
H89   H     H_    0.815203 0.726925 0.784582 0.195456
H90   H     H_    0.754090 0.055997 0.260709 0.134589
H91   H     H_    0.273684 0.057592 0.665572 0.118664
H92   H     H_    0.245948 0.056054 0.739232 0.134534
H93   H     H_    0.226280 0.557410 0.334246 0.118212
H94   H     H_    0.254093 0.555989 0.260708 0.134603
H95   H     H_    0.773679 0.557577 0.665567 0.118672
H96   H     H_    0.745950 0.556057 0.739236 0.134532
N1    N     N_R   0.888400 0.921830 0.294620 -0.061418
N2    N     N_R   0.874350 0.922400 0.443380 -0.098192
N3    N     N_R   0.625650 0.422400 0.556620 -0.098533
N4    N     N_R   0.374350 0.422400 0.443380 -0.098196
N5    N     N_R   0.054230 0.922730 0.705400 -0.043235
N6    N     N_R   0.945770 0.922730 0.294600 -0.043064
N7    N     N_R   0.554230 0.422730 0.705400 -0.043235
N8    N     N_R   0.445770 0.422730 0.294600 -0.043075
N9    N     N_R   0.873790 0.077030 0.443380 -0.057211
N10   N     N_R   0.126210 0.077030 0.556620 -0.057205
N11   N     N_R   0.373790 0.577030 0.443380 -0.057217
N12   N     N_R   0.111600 0.921830 0.705380 -0.061193
N13   N     N_R   0.626210 0.577030 0.556620 -0.057205
N14   N     N_R   0.945200 0.076700 0.294600 -0.037907
N15   N     N_R   0.054800 0.076700 0.705400 -0.037864
N16   N     N_R   0.445200 0.576700 0.294600 -0.037910
N17   N     N_R   0.554800 0.576700 0.705400 -0.037861
N18   N     N_R   0.111030 0.077600 0.705380 -0.046644
N19   N     N_R   0.888970 0.077600 0.294620 -0.046649
N20   N     N_R   0.611030 0.577600 0.705380 -0.046643
N21   N     N_R   0.388970 0.577600 0.294620 -0.046647
N22   N     N_R   0.919490 0.077280 0.556590 -0.040490
N23   N     N_R   0.388400 0.421830 0.294620 -0.061401
N24   N     N_R   0.080510 0.077280 0.443410 -0.040333
N25   N     N_R   0.419490 0.577280 0.556590 -0.040491
N26   N     N_R   0.580510 0.577280 0.443410 -0.040335
N27   N     N_3   0.878340 0.854134 0.818825 -0.204535
N28   N     N_3   0.122371 0.853429 0.182951 -0.199397
N29   N     N_3   0.378338 0.354142 0.818824 -0.204526
N30   N     N_3   0.622380 0.353445 0.182954 -0.199397
N31   N     N_3   0.747970 0.092422 0.307806 -0.230544
N32   N     N_3   0.252030 0.092527 0.692107 -0.230139
N33   N     N_3   0.247969 0.592413 0.307801 -0.230540
N34   N     N_R   0.611600 0.421830 0.705380 -0.061197
N35   N     N_3   0.752031 0.592521 0.692103 -0.230139
N36   N     N_R   0.079940 0.922160 0.443410 -0.065266
N37   N     N_R   0.920060 0.922160 0.556590 -0.065239
N38   N     N_R   0.579940 0.422160 0.443410 -0.065269
N39   N     N_R   0.420060 0.422160 0.556590 -0.065242
N40   N     N_R   0.125650 0.922400 0.556620 -0.098534
Ni1   Ni    Ni4+2 0.882160 0.999430 0.370180 0.229488
Ni2   Ni    Ni4+2 0.117840 0.999430 0.629820 0.229645
Ni3   Ni    Ni4+2 0.382160 0.499430 0.370180 0.229519
Ni4   Ni    Ni4+2 0.617840 0.499430 0.629820 0.229633
Ni5   Ni    Ni4+2 0.012460 0.999430 0.370180 0.197192
Ni6   Ni    Ni4+2 0.987540 0.999430 0.629820 0.197658
Ni7   Ni    Ni4+2 0.512460 0.499430 0.370180 0.197209
Ni8   Ni    Ni4+2 0.487540 0.499430 0.629820 0.197652
O1    O     O_3   0.292699 0.911900 0.027703 -0.630456
O2    O     O_3   0.707271 0.911838 0.972158 -0.629386
O3    O     O_3   0.792720 0.411869 0.027705 -0.630458
O4    O     O_3   0.207365 0.411993 0.972108 -0.629417
O5    O     O_3   0.247304 0.887010 0.698148 -0.650197
O6    O     O_3   0.752652 0.887165 0.301829 -0.650664
O7    O     O_3   0.747305 0.387016 0.698149 -0.650193
O8    O     O_3   0.252653 0.387163 0.301829 -0.650663

loop_
_geom_bond_atom_site_label_1
_geom_bond_atom_site_label_2
_ccdc_geom_bond_type
H88   N31   S    
C49   H9    S    
C16   C21   A    
C55   C59   D    
C7    O8    S    
C25   H51   S    
C102  O1    S    
C95   N15   A    
C26   H52   S    
C10   C63   S    
C70   H17   S    
H96   N35   S    
C5    H81   S    
C19   C86   S    
C1    N1    A    
C33   C94   S    
C63   H18   S    
N2    N37   A    
C61   N24   A    
C57   C62   D    
C66   C70   D    
N17   N20   A    
C54   H22   S    
H92   N32   S    
C102  H63   S    
C11   C98   A    
C103  H66   S    
C32   C36   A    
C48   H30   S    
C18   C37   A    
C39   C84   A    
N14   N19   A    
C68   H15   S    
C46   H28   S    
C53   H13   S    
C52   N29   S    
C46   N37   A    
C14   C49   S    
C74   N3    A    
N7    N34   A    
C11   C95   A    
C79   N8    A    
C29   C33   A    
N16   N21   A    
N1    Ni1   S    
C79   C82   A    
C2    C32   S    
C65   H20   S    
C89   C94   A    
C2    C90   A    
C98   N18   A    
C78   N7    A    
C71   O5    S    
N3    N38   A    
C41   H89   S    
N13   N26   A    
C18   C53   S    
N24   Ni5   S    
C71   C85   A    
C30   H67   S    
C44   C53   S    
C101  H43   S    
C20   C24   A    
C60   C67   S    
C100  H42   S    
C62   O4    S    
N38   Ni7   S    
N37   Ni6   S    
C60   O3    S    
N12   Ni2   S    
N1    N6    A    
C48   C88   A    
C7    H86   S    
C26   C29   A    
N36   Ni5   S    
C77   H32   S    
C15   C51   S    
C4    H77   S    
C49   N27   S    
C61   H46   S    
C5    H80   S    
C17   C81   A    
C74   O7    S    
C2    C61   A    
C42   C51   S    
H57   N28   S    
N4    Ni3   S    
C17   N12   A    
N25   Ni8   S    
C40   C42   S    
C99   H41   S    
C21   C88   S    
C102  H62   S    
C104  O3    S    
C41   H5    S    
C47   H29   S    
C53   N30   S    
N9    N22   A    
C90   N32   S    
C43   H7    S    
C4    O5    S    
C4    H76   S    
N4    N39   A    
C14   C19   A    
C9    C92   A    
C41   C49   S    
C76   H31   S    
C24   H50   S    
C56   C84   S    
C29   H56   S    
C13   C66   S    
C44   H4    S    
C15   C20   A    
C73   C86   A    
N17   Ni8   S    
C63   C67   D    
C8    C72   A    
C51   H10   S    
N10   N24   A    
C30   C34   A    
C28   C82   A    
C23   C30   A    
N11   Ni3   S    
C57   H26   S    
N26   Ni7   S    
N6    Ni5   S    
C27   C32   A    
C3    O4    S    
N10   Ni2   S    
C38   C41   S    
C91   N11   A    
N5    Ni6   S    
N15   N18   A    
N23   Ni3   S    
C90   N10   A    
H93   N33   S    
C50   C94   A    
C45   N36   A    
C104  H70   S    
N3    Ni4   S    
C10   C93   A    
C22   C87   S    
N2    Ni1   S    
C6    H83   S    
C78   C84   A    
C33   C37   A    
N19   Ni1   S    
N39   Ni8   S    
N16   Ni7   S    
C8    C35   S    
C47   C87   A    
C5    O6    S    
C19   C23   A    
C79   H35   S    
H95   N35   S    
C3    H73   S    
C14   C38   A    
C47   N38   A    
N20   Ni4   S    
C75   C88   A    
C72   H47   S    
C20   C85   S    
C59   O2    S    
N40   Ni2   S    
C36   C43   S    
C92   N13   A    
C8    C91   A    
C43   H3    S    
H55   N28   S    
C89   N31   S    
C45   H27   S    
C42   H2    S    
C9    C83   A    
C44   H8    S    
C6    H84   S    
H91   N32   S    
C99   N19   A    
C11   C64   S    
C72   N25   A    
C23   H49   S    
C31   H78   S    
N11   N25   A    
C103  H68   S    
C74   C87   A    
C31   C35   A    
C69   H16   S    
C4    H75   S    
N9    Ni1   S    
C78   H33   S    
C64   C68   D    
C48   N39   A    
C76   N5    A    
C83   H48   S    
N21   Ni3   S    
C52   H11   S    
C50   H44   S    
C16   C52   S    
C21   C25   A    
C50   N22   A    
H60   N30   S    
C102  H64   S    
C7    H87   S    
C98   H40   S    
C93   N14   A    
C34   C38   A    
C103  O2    S    
N8    N23   A    
H90   N31   S    
C3    H74   S    
N13   Ni4   S    
C7    H85   S    
C56   H25   S    
H59   N29   S    
H94   N33   S    
C96   N16   A    
C76   C81   A    
C39   N34   A    
C89   N9    A    
C75   N4    A    
C28   H23   S    
C58   C69   S    
C95   H37   S    
C104  H69   S    
C25   C27   A    
C64   H19   S    
C6    H82   S    
C12   C65   S    
C91   N33   S    
C92   N35   S    
N36   N40   A    
N5    N12   A    
C66   H21   S    
C62   C68   S    
C45   C85   A    
C71   N40   A    
C37   C44   S    
C18   C22   A    
C35   C40   A    
C42   H6    S    
C24   C31   A    
C12   C101  A    
C93   H36   S    
C77   N6    A    
C16   C36   A    
C55   C80   S    
N22   Ni6   S    
C73   N2    A    
C9    C34   S    
C77   C80   A    
C13   C100  A    
C28   N23   A    
C65   C69   D    
C104  H71   S    
C97   H39   S    
N7    Ni8   S    
N8    Ni7   S    
C6    O7    S    
N14   Ni5   S    
C97   N17   A    
H61   N30   S    
N18   Ni2   S    
C101  N21   A    
C13   C97   A    
C10   C99   A    
C43   C52   S    
C67   H14   S    
C15   C40   A    
C39   H34   S    
H58   N29   S    
H53   N27   S    
C59   C70   S    
C96   H38   S    
C73   O6    S    
C56   C60   D    
C3    H72   S    
C54   C58   D    
C55   H24   S    
C100  N20   A    
N15   Ni6   S    
C27   H45   S    
C22   C26   A    
C1    H1    S    
C51   N28   S    
C103  H65   S    
C1    C80   A    
C57   C82   S    
C12   C96   A    
C58   O1    S    
C46   C86   A    
H54   N27   S    
C5    H79   S    
C54   C81   S    
C17   H12   S    
N34   Ni4   S    
C75   O8    S    
C83   N26   A    
