data_mof_unit_15550.cif
_audit_creation_date              2012-12-10T19:42:58-0500
_audit_creation_method            fapswitch 2.2
_symmetry_space_group_name_H-M    P1
_symmetry_Int_Tables_number       1
_space_group_crystal_system       triclinic
_cell_length_a                    10.850628
_cell_length_b                    12.963634
_cell_length_c                    11.694168
_cell_angle_alpha                 100.09117
_cell_angle_beta                  95.28694
_cell_angle_gamma                 90.327206
_cell_volume                      1612.20588484

loop_
_atom_site_label
_atom_site_type_symbol
_atom_type_description
_atom_site_fract_x
_atom_site_fract_y
_atom_site_fract_z
_atom_type_partial_charge
C1    C     C_R   0.498123 0.299078 0.478340 0.828284
C2    C     C_R   0.503676 0.700765 0.521557 0.829845
C3    C     C_R   0.871787 0.502760 0.503699 -0.052617
C4    C     C_R   0.127873 0.499961 0.495915 -0.070673
C5    C     C_R   0.950123 0.544662 0.604536 0.042533
C6    C     C_R   0.049184 0.461305 0.393962 0.059436
C7    C     C_R   0.513121 0.813768 0.533478 -0.060857
C8    C     C_R   0.493807 0.185547 0.465076 -0.075859
C9    C     C_R   0.416621 0.016815 0.355963 0.096979
C10   C     C_R   0.601995 0.980172 0.635189 0.102904
C11   C     C_R   0.429280 0.125844 0.366672 -0.161607
C12   C     C_R   0.584208 0.872454 0.628176 -0.182119
C13   C     C_R   0.551782 0.137942 0.552660 -0.264732
C14   C     C_R   0.457969 0.861229 0.444584 -0.258023
C15   C     C_R   0.542561 0.029651 0.546204 0.123282
C16   C     C_R   0.471567 0.968958 0.448320 0.098935
C17   C     C_R   0.439329 0.369695 0.019677 -0.108930
C18   C     C_R   0.551372 0.632901 0.979520 -0.101453
C19   C     C_R   0.439849 0.387129 0.142379 0.014057
C20   C     C_R   0.554126 0.614500 0.857212 0.025477
C21   C     C_R   0.510907 0.561736 0.158192 0.088996
C22   C     C_R   0.489313 0.438324 0.842026 0.105041
C23   C     C_R   0.261941 0.498970 0.498452 0.819039
C24   C     C_R   0.737926 0.502196 0.501552 0.820923
C25   C     C_R   0.515410 0.549761 0.035106 -0.017276
C26   C     C_R   0.481070 0.451354 0.964742 -0.008125
C27   C     C_R   0.138364 0.462651 0.090428 0.011987
C28   C     C_R   0.865366 0.588541 0.914823 0.015264
C29   C     C_R   0.121099 0.494392 0.208725 -0.119050
C30   C     C_R   0.886164 0.539580 0.801547 -0.130295
C31   C     C_R   0.092206 0.420945 0.278085 0.020818
C32   C     C_R   0.905523 0.599038 0.714892 0.026543
C33   C     C_R   0.082770 0.312836 0.228565 -0.012390
C34   C     C_R   0.901395 0.710028 0.741265 0.000548
C35   C     C_R   0.097617 0.282175 0.109477 -0.219167
C36   C     C_R   0.882410 0.758123 0.855326 -0.228474
C37   C     C_R   0.122915 0.356234 0.040999 -0.160223
C38   C     C_R   0.866471 0.698348 0.941256 -0.175882
C39   C     C_R   0.922265 0.461997 0.399951 -0.153786
C40   C     C_R   0.077262 0.541179 0.599646 -0.175820
Cu1   Cu    Cu3+1 0.509250 0.507730 0.615930 0.975451
Cu2   Cu    Cu3+1 0.490750 0.492270 0.384070 0.971558
H1    H     H_    0.130581 0.330006 0.949004 0.215204
H2    H     H_    0.854198 0.738446 0.028526 0.210995
H3    H     H_    0.468519 0.363793 0.786873 0.173208
H4    H     H_    0.535353 0.635255 0.213955 0.185803
H5    H     H_    0.582411 0.677798 0.815829 0.160042
H6    H     H_    0.407918 0.325136 0.183925 0.161659
H7    H     H_    0.126180 0.576946 0.246850 0.184782
H8    H     H_    0.891083 0.454961 0.780973 0.179225
H9    H     H_    0.089117 0.200431 0.068618 0.192275
H10   H     H_    0.880189 0.842670 0.878644 0.185021
H11   H     H_    0.862445 0.430654 0.321858 0.164826
H12   H     H_    0.137007 0.573786 0.677305 0.188508
H13   H     H_    0.403751 0.812360 0.372878 0.154518
H14   H     H_    0.603154 0.187058 0.625963 0.158374
H15   H     H_    0.629400 0.833409 0.694908 0.147405
H16   H     H_    0.386519 0.166302 0.300564 0.144575
N1    N     N_R   0.523180 0.519350 0.790130 -0.203359
N2    N     N_R   0.476820 0.480650 0.209870 -0.206845
O1    O     O_R   0.506570 0.354460 0.582000 -0.591716
O2    O     O_R   0.493430 0.645540 0.418000 -0.589928
O3    O     O_R   0.490940 0.341410 0.386200 -0.602900
O4    O     O_R   0.509060 0.658590 0.613800 -0.602566
O5    O     O_R   0.327460 0.506540 0.597900 -0.558948
O6    O     O_R   0.672540 0.493460 0.402100 -0.564175
O7    O     O_R   0.311830 0.493480 0.402100 -0.589427
O8    O     O_R   0.688170 0.506520 0.597900 -0.590722
C41   C     C_2   0.390921 0.266378 0.953998 0.763065
O9    O     O_2   0.407218 0.187841 0.997462 -0.643481
O10   O     O_R   0.321062 0.258639 0.846111 -0.771596
H17   H     H_    0.292619 0.184059 0.811955 0.340088
C42   C     C_2   0.584057 0.740648 0.043519 0.767623
O11   O     O_2   0.549363 0.816258 0.000564 -0.618953
O12   O     O_R   0.658917 0.756542 0.149236 -0.751794
H18   H     H_    0.674669 0.833545 0.182789 0.340352
C43   C     C_2   0.169751 0.540841 0.018367 0.820309
O13   O     O_2   0.181662 0.513198 0.914520 -0.597003
O14   O     O_R   0.186384 0.646560 0.069074 -0.782782
H19   H     H_    0.207803 0.691762 0.010911 0.333844
C44   C     C_2   0.844137 0.525103 0.005494 0.821255
O15   O     O_2   0.836730 0.567841 0.106478 -0.568529
O16   O     O_R   0.832086 0.416051 0.975784 -0.794895
H20   H     H_    0.818159 0.381888 0.045324 0.333574
C45   C     C_2   0.055328 0.230746 0.297547 0.795803
O17   O     O_2   0.077435 0.246978 0.403688 -0.594303
O18   O     O_R   0.005959 0.133380 0.240455 -0.780346
H21   H     H_    0.992777 0.083534 0.296267 0.341946
C46   C     C_2   0.919214 0.777953 0.653536 0.803165
O19   O     O_2   0.899361 0.743587 0.549154 -0.589292
O20   O     O_R   0.956847 0.882776 0.690756 -0.784738
H22   H     H_    0.964074 0.921535 0.623430 0.341747
C47   C     C_3   0.344974 0.950911 0.248669 -0.425870
C48   C     C_3   0.298716 0.009562 0.150209 -0.331329
C49   C     C_3   0.231742 0.935473 0.047071 -0.736629
H23   H     H_    0.295441 0.874480 0.009893 0.268318
H24   H     H_    0.150477 0.897215 0.074945 0.256899
H25   H     H_    0.198790 0.980522 0.978117 0.253407
H26   H     H_    0.233305 0.071030 0.182538 0.235973
H27   H     H_    0.379067 0.046373 0.119402 0.273084
H28   H     H_    0.406620 0.888280 0.210832 0.223973
H29   H     H_    0.263628 0.913437 0.277544 0.214541
C50   C     C_3   0.690392 0.037159 0.734611 -0.438560
C51   C     C_3   0.621185 0.093065 0.835288 -0.322916
C52   C     C_3   0.711832 0.149682 0.934343 -0.765436
H30   H     H_    0.773072 0.092533 0.970625 0.262362
H31   H     H_    0.769530 0.207384 0.901970 0.268705
H32   H     H_    0.660212 0.191987 0.005246 0.260914
H33   H     H_    0.557315 0.151049 0.804433 0.228110
H34   H     H_    0.565460 0.034786 0.869129 0.265870
H35   H     H_    0.753879 0.980423 0.769074 0.229390
H36   H     H_    0.751242 0.092869 0.702480 0.207756

loop_
_geom_bond_atom_site_label_1
_geom_bond_atom_site_label_2
_ccdc_geom_bond_type
C51   H34   S    
O18   H21   S    
C17   C41   S    
C47   C48   S    
C27   C29   A    
C1    C8    S    
Cu1   Cu2   S    
C49   H23   S    
Cu1   O1    S    
C44   O15   D    
C49   H25   S    
C29   H7    S    
C45   O17   D    
C52   H31   S    
C8    C13   A    
C17   C26   A    
C10   C50   S    
C35   C37   A    
C9    C16   A    
C10   C15   A    
C51   H33   S    
C15   C16   A    
C50   H35   S    
C42   O11   D    
C23   O7    A    
C41   O10   S    
C33   C45   S    
C2    C7    S    
C17   C19   A    
C7    C14   A    
C4    C40   A    
C31   C33   A    
C48   H27   S    
C46   O20   S    
C11   H16   S    
Cu2   O2    S    
C34   C36   A    
C36   H10   S    
C24   O6    A    
C13   H14   S    
C43   O14   S    
C6    C31   S    
C30   H8    S    
C3    C39   A    
C42   O12   S    
C3    C24   S    
C48   C49   S    
C18   C25   A    
C1    O3    A    
C51   C52   S    
C44   O16   S    
C2    O4    A    
Cu1   O8    S    
C45   O18   S    
C7    C12   A    
C52   H32   S    
Cu1   N1    S    
C21   N2    A    
C4    C6    A    
C47   H28   S    
O20   H22   S    
C4    C23   S    
C19   H6    S    
Cu1   O5    S    
C27   C43   S    
C25   C26   A    
C43   O13   D    
C50   H36   S    
C32   C34   A    
C37   H1    S    
O12   H18   S    
C38   H2    S    
O16   H20   S    
C28   C38   A    
C20   N1    A    
C9    C11   A    
C10   C12   A    
C12   H15   S    
C18   C42   S    
C40   H12   S    
C13   C15   A    
C35   H9    S    
Cu2   O7    S    
C14   C16   A    
Cu2   N2    S    
C9    C47   S    
C22   N1    A    
C21   H4    S    
C21   C25   A    
C28   C44   S    
C3    C5    A    
C1    O1    A    
C47   H29   S    
C49   H24   S    
C19   N2    A    
C52   H30   S    
C5    C32   S    
C28   C30   A    
C34   C46   S    
O10   H17   S    
C29   C31   A    
C30   C32   A    
C23   O5    A    
C39   H11   S    
C48   H26   S    
C27   C37   A    
C8    C11   A    
C36   C38   A    
C33   C35   A    
C14   H13   S    
C18   C20   A    
C41   O9    D    
C20   H5    S    
C24   O8    A    
O14   H19   S    
C22   H3    S    
C22   C26   A    
C5    C40   A    
C50   C51   S    
Cu2   O6    S    
C6    C39   A    
Cu1   O4    S    
C46   O19   D    
Cu2   O3    S    
C2    O2    A    
