data_mof_unit_53502.cif
_audit_creation_date              2012-12-10T18:11:39-0500
_audit_creation_method            fapswitch 2.2
_symmetry_space_group_name_H-M    P1
_symmetry_Int_Tables_number       1
_space_group_crystal_system       triclinic
_cell_length_a                    10.499451
_cell_length_b                    12.60676
_cell_length_c                    13.118675
_cell_angle_alpha                 82.296478
_cell_angle_beta                  90.313355
_cell_angle_gamma                 102.267222
_cell_volume                      1681.00491362

loop_
_atom_site_label
_atom_site_type_symbol
_atom_type_description
_atom_site_fract_x
_atom_site_fract_y
_atom_site_fract_z
_atom_type_partial_charge
C1    C     C_R   0.479584 0.438812 0.691163 0.867952
C2    C     C_3   0.066467 0.597733 0.521103 -0.158647
C3    C     C_3   0.962468 0.518331 0.593682 -0.283348
C4    C     C_3   0.877315 0.500221 0.500074 -0.048741
C5    C     C_R   0.406858 0.702552 0.064269 -0.174190
C6    C     C_R   0.500409 0.596356 0.200026 -0.051614
C7    C     C_R   0.493026 0.298737 0.838794 -0.174219
C8    C     C_R   0.501506 0.269194 0.943965 -0.081747
C9    C     C_R   0.488689 0.342933 0.011197 -0.140357
C10   C     C_R   0.460463 0.446141 0.973827 0.064040
C11   C     C_R   0.430731 0.467608 0.869414 0.097634
C12   C     C_R   0.742165 0.500411 0.499890 0.883051
C13   C     C_R   0.461084 0.528959 0.036504 0.085451
C14   C     C_R   0.410197 0.622423 0.000179 0.160870
C15   C     C_R   0.362060 0.633556 0.901099 -0.253267
C16   C     C_R   0.372552 0.557319 0.836161 -0.132667
C17   C     C_R   0.514339 0.522419 0.133710 -0.242321
C18   C     C_R   0.449749 0.688499 0.164976 -0.190467
C19   C     C_R   0.462044 0.399409 0.800843 -0.070882
C20   C     C_R   0.323067 0.091792 0.341179 0.370579
C21   C     C_R   0.652534 0.799313 0.630510 0.015857
C22   C     C_R   0.683651 0.903741 0.658853 -0.209960
C23   C     C_R   0.512770 0.561032 0.308741 0.851069
C24   C     C_R   0.625570 0.985266 0.609105 -0.167805
C25   C     C_R   0.535525 0.962437 0.530064 0.040659
C26   C     C_R   0.507857 0.854732 0.504006 0.247202
C27   C     C_R   0.472488 0.041708 0.476033 -0.057896
C28   C     C_R   0.384377 0.012537 0.395995 0.037739
C29   C     C_R   0.360091 0.905215 0.372796 -0.190583
C30   C     C_R   0.420476 0.828272 0.426042 -0.249197
C31   C     C_R   0.493890 0.149664 0.498259 -0.046944
C32   C     C_R   0.349844 0.196988 0.368241 -0.070519
C33   C     C_R   0.257832 0.499472 0.500420 0.902755
C34   C     C_3   0.932773 0.401623 0.479751 -0.179951
C35   C     C_3   0.020512 0.421346 0.572108 0.424508
C36   C     C_3   0.122586 0.499350 0.500870 -0.084410
C37   C     C_3   0.036823 0.481332 0.407481 -0.233214
C38   C     C_3   0.978360 0.579589 0.427572 -0.131390
H1    H     H_    0.563546 0.457558 0.161427 0.149182
H2    H     H_    0.514484 0.244317 0.787076 0.159515
H3    H     H_    0.497992 0.316129 0.092022 0.149289
H4    H     H_    0.523723 0.190863 0.973235 0.168742
H5    H     H_    0.333011 0.568629 0.760113 0.185810
H6    H     H_    0.305603 0.260264 0.328299 0.182608
H7    H     H_    0.294115 0.878674 0.313298 0.219653
H8    H     H_    0.558354 0.179342 0.557059 0.137416
H9    H     H_    0.696977 0.735395 0.668991 0.144883
H10   H     H_    0.875187 0.321164 0.463782 0.180668
H11   H     H_    0.653556 0.064737 0.634125 0.162514
H12   H     H_    0.752470 0.921495 0.719229 0.181109
H13   H     H_    0.397008 0.748228 0.403944 0.209989
H14   H     H_    0.071507 0.466430 0.331944 0.170762
H15   H     H_    0.956355 0.644522 0.368478 0.159569
H16   H     H_    0.124398 0.677840 0.537658 0.177076
H17   H     H_    0.927959 0.532599 0.669510 0.153231
H18   H     H_    0.437695 0.746313 0.216242 0.158312
H19   H     H_    0.318945 0.702453 0.872974 0.159407
H20   H     H_    0.366850 0.773610 0.037777 0.162514
N1    N     N_R   0.432930 0.222190 0.444670 -0.127951
N2    N     N_R   0.566370 0.776980 0.554790 -0.131970
O1    O     O_R   0.467970 0.366730 0.627150 -0.587955
O2    O     O_R   0.510820 0.544830 0.662520 -0.639042
O3    O     O_R   0.664630 0.410960 0.482340 -0.628384
O4    O     O_R   0.707470 0.589060 0.517710 -0.610393
O5    O     O_R   0.489180 0.455170 0.337480 -0.619545
O6    O     O_R   0.532030 0.633270 0.372850 -0.633290
O7    O     O_R   0.292530 0.410940 0.482290 -0.571688
O8    O     O_R   0.335370 0.589040 0.517660 -0.658670
Zn1   Zn    Zn3+2 0.471390 0.381080 0.476380 0.987089
Zn2   Zn    Zn3+2 0.528610 0.618920 0.523620 0.933015
S1    S     S_3+6 0.048959 0.315504 0.668381 0.034279
O9    O     O_2   0.109886 0.236671 0.619335 -0.238075
O10   O     O_2   0.139014 0.364345 0.747258 -0.319530
O11   O     O_3   0.906520 0.247897 0.725642 -0.533406
H21   H     H_    0.867383 0.305325 0.749670 0.336433
S2    S     S_3+6 0.215336 0.063907 0.238791 0.001070
O12   O     O_2   0.166157 0.164124 0.196099 -0.284481
O13   O     O_2   0.286304 0.027999 0.154794 -0.328223
O14   O     O_3   0.087959 0.962905 0.282634 -0.563155
H22   H     H_    0.038822 0.944202 0.220488 0.386594

loop_
_geom_bond_atom_site_label_1
_geom_bond_atom_site_label_2
_ccdc_geom_bond_type
C30   H13   S    
C34   C37   S    
C35   C36   S    
S2    O14   S    
C1    O2    A    
C7    C8    A    
C11   C19   A    
C37   C38   S    
C5    H20   S    
C23   O6    A    
C28   C29   A    
S2    O13   D    
C12   O4    A    
O1    Zn1   S    
C15   C16   A    
C33   C36   S    
O2    Zn2   S    
C34   C35   S    
C17   H1    S    
C31   N1    A    
C3    H17   S    
O3    Zn1   S    
C8    C9    A    
C31   H8    S    
C7    H2    S    
C3    C35   S    
C4    C12   S    
C9    C10   A    
C18   H18   S    
C22   H12   S    
C20   S2    S    
C35   S1    S    
C21   C22   A    
C15   H19   S    
C6    C18   A    
C4    C34   S    
C1    C19   S    
O11   H21   S    
C27   C31   A    
S2    O12   D    
C21   N2    A    
C2    H16   S    
S1    O10   D    
C37   H14   S    
C5    C18   A    
C20   C28   A    
C25   C26   A    
C29   H7    S    
O7    Zn1   S    
O4    Zn2   S    
C29   C30   A    
C11   C16   A    
C2    C38   S    
N2    Zn2   S    
C32   H6    S    
C24   C25   A    
C16   H5    S    
C5    C14   A    
N1    Zn1   S    
C4    C38   S    
C26   C30   A    
C7    C19   A    
C22   C24   A    
C34   H10   S    
C3    C4    S    
C33   O7    A    
C20   C32   A    
C2    C36   S    
C24   H11   S    
C12   O3    A    
C6    C17   A    
C36   C37   S    
C8    H4    S    
C10   C13   A    
C1    O1    A    
S1    O11   S    
C25   C27   A    
C9    H3    S    
C13   C17   A    
C23   O5    A    
C2    C3    S    
S1    O9    D    
O6    Zn2   S    
C38   H15   S    
O5    Zn1   S    
C6    C23   S    
C10   C11   A    
O14   H22   S    
O8    Zn2   S    
C27   C28   A    
C14   C15   A    
C32   N1    A    
C13   C14   A    
C26   N2    A    
C33   O8    A    
C21   H9    S    
