data_mof_unit_9721.cif
_audit_creation_date              2012-12-10T16:52:10-0500
_audit_creation_method            fapswitch 2.2
_symmetry_space_group_name_H-M    P1
_symmetry_Int_Tables_number       1
_space_group_crystal_system       triclinic
_cell_length_a                    7.788405
_cell_length_b                    8.6107
_cell_length_c                    14.863
_cell_angle_alpha                 91.525816
_cell_angle_beta                  85.663717
_cell_angle_gamma                 93.427488
_cell_volume                      991.890688292

loop_
_atom_site_label
_atom_site_type_symbol
_atom_type_description
_atom_site_fract_x
_atom_site_fract_y
_atom_site_fract_z
_atom_type_partial_charge
C1    C     C_R   0.545130 0.794166 0.497724 0.888387
C2    C     C_R   0.547833 0.638031 0.813245 0.529564
C3    C     C_R   0.494113 0.500735 0.232347 -0.310788
C4    C     C_R   0.505887 0.499265 0.767653 -0.310788
C5    C     C_R   0.536850 0.639504 0.187827 0.507975
C6    C     C_R   0.463150 0.360496 0.812173 0.507975
C7    C     C_R   0.538927 0.640563 0.094467 0.002337
C8    C     C_R   0.461073 0.359437 0.905532 0.002337
C9    C     C_R   0.498273 0.500252 0.046941 -0.033010
C10   C     C_R   0.501727 0.499748 0.953059 -0.033010
C11   C     C_R   0.454507 0.360378 0.093340 -0.006335
C12   C     C_R   0.454870 0.205834 0.502276 0.888388
C13   C     C_R   0.545493 0.639622 0.906660 -0.006335
C14   C     C_R   0.581642 0.778477 0.047893 -0.134365
C15   C     C_R   0.418358 0.221523 0.952107 -0.134365
C16   C     C_R   0.584903 0.778011 0.954394 -0.139961
C17   C     C_R   0.415097 0.221989 0.045606 -0.139961
C18   C     C_2   0.569360 0.956518 0.496619 0.359752
C19   C     C_2   0.430640 0.043482 0.503381 0.359753
C20   C     C_R   0.501900 0.500150 0.672646 1.019499
C21   C     C_R   0.498100 0.499850 0.327354 1.019499
C22   C     C_R   0.452167 0.361969 0.186754 0.529564
F1    F     F_    0.411993 0.229355 0.233588 -0.619368
F2    F     F_    0.588007 0.770645 0.766412 -0.619369
F3    F     F_    0.576693 0.772030 0.235724 -0.633919
F4    F     F_    0.423307 0.227969 0.764275 -0.633919
F5    F     F_    0.736043 0.016202 0.488759 -0.553858
F6    F     F_    0.263957 0.983798 0.511241 -0.553859
F7    F     F_    0.030233 0.358085 0.418963 -0.491410
F8    F     F_    0.969767 0.641915 0.581037 -0.491410
H1    H     H_    0.612804 0.886718 0.083519 0.211907
H2    H     H_    0.387196 0.113282 0.916481 0.211907
H3    H     H_    0.618275 0.885945 0.919671 0.208714
H4    H     H_    0.381725 0.114055 0.080329 0.208714
N1    N     N_2   0.950330 0.457950 0.475660 0.271000
N2    N     N_2   0.049670 0.542050 0.524340 0.271000
O1    O     O_R   0.389250 0.738570 0.505970 -0.583642
O2    O     O_R   0.610750 0.261430 0.494030 -0.583641
O3    O     O_R   0.678390 0.711620 0.490370 -0.539518
O4    O     O_R   0.321610 0.288380 0.509630 -0.539518
O5    O     O_R   0.355420 0.513510 0.639950 -0.604743
O6    O     O_R   0.644580 0.486490 0.360050 -0.604742
O7    O     O_R   0.644560 0.486560 0.624350 -0.584034
O8    O     O_R   0.355440 0.513440 0.375650 -0.584033
Zn1   Zn    Zn3+2 0.306940 0.517990 0.510420 1.235815
Zn2   Zn    Zn3+2 0.693060 0.482010 0.489580 1.235815

loop_
_geom_bond_atom_site_label_1
_geom_bond_atom_site_label_2
_ccdc_geom_bond_type
C12   O4    A    
C2    C4    A    
C15   C17   A    
F8    N2    S    
C16   H3    S    
C21   O8    A    
C9    C10   A    
F7    N1    S    
C11   C22   A    
N1    N2    D    
C1    O1    A    
C14   H1    S    
C20   O5    A    
N2    Zn1   S    
C2    F2    S    
C19   F6    S    
C9    C11   A    
C1    C18   S    
C6    F4    S    
O3    Zn2   S    
C5    F3    S    
C12   C19   S    
C4    C6    A    
C8    C15   A    
C12   O2    A    
O4    Zn1   S    
O7    Zn2   S    
C14   C16   A    
O2    Zn2   S    
C3    C21   S    
C17   H4    S    
C1    O3    A    
O1    Zn1   S    
C21   O6    A    
C4    C20   S    
C7    C9    A    
C15   H2    S    
C20   O7    A    
O8    Zn1   S    
C8    C10   A    
C18   C19   D    
O6    Zn2   S    
C13   C16   A    
C5    C7    A    
C2    C13   A    
O5    Zn1   S    
C22   F1    S    
C11   C17   A    
C3    C22   A    
C6    C8    A    
N1    Zn2   S    
C7    C14   A    
C18   F5    S    
C3    C5    A    
C10   C13   A    
