data_mof_unit_43892.cif
_audit_creation_date              2012-12-10T18:03:58-0500
_audit_creation_method            fapswitch 2.2
_symmetry_space_group_name_H-M    P1
_symmetry_Int_Tables_number       1
_space_group_crystal_system       triclinic
_cell_length_a                    10.794485
_cell_length_b                    9.524785
_cell_length_c                    10.861306
_cell_angle_alpha                 89.963257
_cell_angle_beta                  90.188471
_cell_angle_gamma                 90.081841
_cell_volume                      1116.69938558

loop_
_atom_site_label
_atom_site_type_symbol
_atom_type_description
_atom_site_fract_x
_atom_site_fract_y
_atom_site_fract_z
_atom_type_partial_charge
C1    C     C_R   0.262364 0.499895 0.496767 0.796328
C2    C     C_R   0.737609 0.499984 0.497501 0.793688
C3    C     C_R   0.429600 0.074247 0.417482 -0.013952
C4    C     C_R   0.570885 0.074455 0.582243 -0.014275
C5    C     C_R   0.429315 0.925525 0.417648 -0.017424
C6    C     C_R   0.570987 0.925660 0.582156 -0.018567
C7    C     C_R   0.499830 0.499880 0.262647 0.813596
C8    C     C_R   0.500160 0.499834 0.737368 0.804337
C9    C     C_R   0.499785 0.621276 0.061927 0.126151
C10   C     C_R   0.500146 0.621252 0.937981 0.129969
C11   C     C_R   0.499762 0.498139 0.130086 -0.101556
C12   C     C_R   0.500208 0.498083 0.869970 -0.107272
C13   C     C_R   0.499883 0.370031 0.064694 -0.178734
C14   C     C_R   0.500110 0.370005 0.935554 -0.212919
C15   C     C_3   0.500222 0.777338 0.928949 -0.469042
C16   C     C_3   0.499688 0.777356 0.070773 -0.461671
C17   C     C_R   0.064269 0.411277 0.408102 -0.056627
C18   C     C_R   0.934432 0.410384 0.409118 -0.065226
C19   C     C_R   0.871389 0.499835 0.491200 -0.071718
C20   C     C_R   0.128477 0.499881 0.490583 -0.073145
C21   C     C_R   0.936452 0.591550 0.568128 -0.187326
C22   C     C_R   0.064415 0.591237 0.568117 -0.184268
Cu1   Cu    Cu3+1 0.500000 0.640660 0.500000 0.947252
Cu2   Cu    Cu3+1 0.500000 0.359340 0.500000 0.965283
H1    H     H_    0.499821 0.270207 0.112526 0.174777
H2    H     H_    0.500198 0.270165 0.887869 0.166903
H3    H     H_    0.587484 0.818723 0.888666 0.191101
H4    H     H_    0.412421 0.818452 0.111003 0.194567
H5    H     H_    0.413350 0.818528 0.887330 0.204277
H6    H     H_    0.586554 0.818852 0.112338 0.208498
H7    H     H_    0.887969 0.661205 0.630381 0.142357
H8    H     H_    0.113699 0.660577 0.630466 0.149139
H9    H     H_    0.373614 0.130034 0.351104 0.146482
H10   H     H_    0.627781 0.130500 0.648075 0.120023
H11   H     H_    0.372505 0.869496 0.351746 0.122913
H12   H     H_    0.628051 0.869686 0.647823 0.114301
N1    N     N_R   0.500000 0.852070 0.500000 -0.159961
N2    N     N_R   0.500000 0.147940 0.500000 -0.160980
O1    O     O_R   0.319640 0.618740 0.499990 -0.584868
O2    O     O_R   0.680360 0.618740 0.500010 -0.582110
O3    O     O_R   0.319620 0.381170 0.499990 -0.574511
O4    O     O_R   0.680380 0.381170 0.500010 -0.575326
O5    O     O_R   0.499990 0.618810 0.319660 -0.587163
O6    O     O_R   0.500010 0.618810 0.680340 -0.586511
O7    O     O_R   0.499960 0.381240 0.319650 -0.580833
O8    O     O_R   0.500040 0.381240 0.680350 -0.590851
C23   C     C_1   0.130579 0.328196 0.317895 0.237022
N3    N     N_1   0.182875 0.262466 0.245176 -0.309615
C24   C     C_1   0.866431 0.322660 0.322871 0.255337
N4    N     N_1   0.812130 0.252859 0.254126 -0.277848

loop_
_geom_bond_atom_site_label_1
_geom_bond_atom_site_label_2
_ccdc_geom_bond_type
C16   H4    S    
Cu2   N2    S    
Cu1   Cu2   S    
C6    H12   S    
C7    O5    A    
C11   C13   A    
C9    C10   A    
C5    H11   S    
C15   H3    S    
C23   N3    T    
C8    C12   S    
Cu2   O8    S    
C17   C18   A    
C18   C24   S    
C6    N1    A    
Cu1   O5    S    
C21   C22   A    
C14   H2    S    
C7    C11   S    
Cu2   O3    S    
C21   H7    S    
C13   H1    S    
C22   H8    S    
C2    O4    A    
Cu1   O1    S    
Cu2   O7    S    
C7    O7    A    
C1    O3    A    
C19   C21   A    
C9    C16   S    
C20   C22   A    
C15   H5    S    
C10   C12   A    
C10   C15   S    
C9    C11   A    
C4    H10   S    
C8    O6    A    
C8    O8    A    
C5    N1    A    
C3    H9    S    
C16   H6    S    
Cu1   O2    S    
C2    O2    A    
C17   C20   A    
Cu2   O4    S    
C3    N2    A    
C4    C6    A    
C18   C19   A    
C4    N2    A    
C24   N4    T    
C1    O1    A    
C1    C20   S    
C13   C14   A    
C2    C19   S    
Cu1   N1    S    
Cu1   O6    S    
C15   C16   S    
C17   C23   S    
C12   C14   A    
C3    C5    A    
