data_mof_unit_13655.cif
_audit_creation_date              2012-12-10T18:43:46-0500
_audit_creation_method            fapswitch 2.2
_symmetry_space_group_name_H-M    P1
_symmetry_Int_Tables_number       1
_space_group_crystal_system       triclinic
_cell_length_a                    10.80255
_cell_length_b                    10.628174
_cell_length_c                    9.856227
_cell_angle_alpha                 89.984891
_cell_angle_beta                  103.934109
_cell_angle_gamma                 90.11855
_cell_volume                      1098.30518815

loop_
_atom_site_label
_atom_site_type_symbol
_atom_type_description
_atom_site_fract_x
_atom_site_fract_y
_atom_site_fract_z
_atom_type_partial_charge
C1    C     C_R   0.499987 0.260373 0.499958 1.045621
C2    C     C_2   0.877412 0.518633 0.591185 -0.260500
C3    C     C_2   0.068028 0.545146 0.512818 -0.119524
C4    C     C_2   0.932150 0.545337 0.487261 -0.119175
C5    C     C_R   0.394197 0.064768 0.418162 0.306593
C6    C     C_R   0.605830 0.935214 0.581791 0.305917
C7    C     C_R   0.394152 0.934808 0.418274 0.317148
C8    C     C_R   0.605826 0.065174 0.581770 0.317959
C9    C     C_R   0.499996 0.871976 0.500035 -0.357073
C10   C     C_R   0.500007 0.128012 0.499965 -0.361539
C11   C     C_R   0.500015 0.739628 0.500042 1.034138
C12   C     C_R   0.259008 0.503728 0.441804 0.982870
C13   C     C_R   0.740993 0.503806 0.558195 0.983938
C14   C     C_R   0.579495 0.578068 0.092799 -0.041948
C15   C     C_R   0.420510 0.421935 0.907207 -0.043856
C16   C     C_R   0.579463 0.578035 0.949001 -0.030019
C17   C     C_R   0.420537 0.421969 0.051000 -0.029558
C18   C     C_2   0.122642 0.518602 0.408828 -0.259630
Cl1   Cl    Cl    0.260415 0.147933 0.319710 -0.514867
Cl2   Cl    Cl    0.739709 0.852054 0.680052 -0.519118
Cl3   Cl    Cl    0.260158 0.851150 0.320270 -0.495424
Cl4   Cl    Cl    0.739725 0.148839 0.679957 -0.490580
H1    H     H_    0.877088 0.557460 0.380022 0.185974
H2    H     H_    0.123137 0.556899 0.620115 0.192074
H3    H     H_    0.643113 0.640516 0.163914 0.143946
H4    H     H_    0.356904 0.359477 0.836101 0.150933
H5    H     H_    0.932878 0.506212 0.698090 0.168060
H6    H     H_    0.067128 0.506486 0.301869 0.168714
H7    H     H_    0.643025 0.640466 0.911315 0.170711
H8    H     H_    0.356977 0.359536 0.088685 0.171363
N1    N     N_R   0.499970 0.499970 0.857200 -0.093737
N2    N     N_R   0.500030 0.500030 0.142800 -0.092542
O1    O     O_R   0.499990 0.316750 0.614620 -0.595961
O2    O     O_R   0.500010 0.683250 0.385380 -0.599859
O3    O     O_R   0.499990 0.316780 0.385290 -0.597164
O4    O     O_R   0.500010 0.683220 0.614710 -0.601537
O5    O     O_R   0.317810 0.500000 0.571850 -0.639581
O6    O     O_R   0.682190 0.500000 0.428150 -0.637415
O7    O     O_R   0.317810 0.500030 0.342520 -0.591140
O8    O     O_R   0.682190 0.499970 0.657480 -0.590940
Zn1   Zn    Zn3+2 0.500000 0.499980 0.653120 1.017708
Zn2   Zn    Zn3+2 0.500000 0.500020 0.346880 1.019022

loop_
_geom_bond_atom_site_label_1
_geom_bond_atom_site_label_2
_ccdc_geom_bond_type
C8    Cl4   S    
C15   N1    A    
C2    H5    S    
C5    Cl1   S    
O4    Zn1   S    
C6    Cl2   S    
C2    C4    D    
O2    Zn2   S    
O1    Zn1   S    
C12   O7    A    
C3    H2    S    
C1    O1    A    
C5    C10   A    
C16   N1    A    
C17   H8    S    
C9    C11   S    
C16   H7    S    
C13   O6    A    
C6    C9    A    
C15   C17   A    
C11   O4    A    
O6    Zn2   S    
O7    Zn2   S    
C5    C7    A    
C14   H3    S    
O5    Zn1   S    
C17   N2    A    
C14   C16   A    
C3    C4    S    
C7    C9    A    
C18   H6    S    
C1    O3    A    
C3    C18   D    
C8    C10   A    
C12   C18   S    
C12   O5    A    
O3    Zn2   S    
C2    C13   S    
N2    Zn2   S    
O8    Zn1   S    
C13   O8    A    
C6    C8    A    
N1    Zn1   S    
C4    H1    S    
C7    Cl3   S    
C11   O2    A    
C1    C10   S    
C14   N2    A    
C15   H4    S    
