data_mof_unit_54551.cif
_audit_creation_date              2012-12-11T14:13:18-0500
_audit_creation_method            fapswitch 2.2
_symmetry_space_group_name_H-M    P1
_symmetry_Int_Tables_number       1
_space_group_crystal_system       triclinic
_cell_length_a                    11.599401
_cell_length_b                    18.637223
_cell_length_c                    9.951637
_cell_angle_alpha                 89.999845
_cell_angle_beta                  110.652108
_cell_angle_gamma                 89.999977
_cell_volume                      2013.10346838

loop_
_atom_site_label
_atom_site_type_symbol
_atom_type_description
_atom_site_fract_x
_atom_site_fract_y
_atom_site_fract_z
_atom_type_partial_charge
C1    C     C_R   0.073720 0.646059 0.140514 0.579454
C2    C     C_2   0.592427 0.076635 0.080681 -0.112142
C3    C     C_2   0.592397 0.423355 0.080686 -0.112075
C4    C     C_2   0.407629 0.576662 0.919266 -0.112124
C5    C     C_2   0.491828 0.963080 0.015875 -0.143966
C6    C     C_2   0.508295 0.036881 0.984026 -0.143950
C7    C     C_2   0.508349 0.463134 0.983984 -0.143910
C8    C     C_2   0.491776 0.536907 0.015906 -0.143931
C9    C     C_2   0.010533 0.922223 0.113571 0.344001
C10   C     C_2   0.989457 0.077774 0.886424 0.344013
C11   C     C_2   0.989461 0.422225 0.886425 0.344012
C12   C     C_R   0.926278 0.353942 0.859486 0.579455
C13   C     C_2   0.010536 0.577776 0.113573 0.344002
C14   C     C_2   0.023888 0.963870 0.010873 -0.104680
C15   C     C_2   0.976078 0.036121 0.989101 -0.104678
C16   C     C_2   0.976099 0.463873 0.989118 -0.104685
C17   C     C_2   0.023904 0.536126 0.010886 -0.104674
C18   C     C_R   0.469382 0.646885 0.443159 0.527869
C19   C     C_R   0.530618 0.353114 0.556841 0.527858
C20   C     C_R   0.530616 0.146886 0.556839 0.527863
C21   C     C_R   0.469384 0.853113 0.443162 0.527880
C22   C     C_R   0.376644 0.645599 0.962874 0.548536
C23   C     C_R   0.926278 0.146058 0.859486 0.579460
C24   C     C_R   0.623359 0.354404 0.037119 0.548522
C25   C     C_R   0.623361 0.145596 0.037122 0.548522
C26   C     C_R   0.376642 0.854401 0.962872 0.548537
C27   C     C_R   0.506125 0.424909 0.489779 -0.032729
C28   C     C_R   0.493874 0.575089 0.510219 -0.032722
C29   C     C_R   0.493885 0.924908 0.510229 -0.032710
C30   C     C_R   0.506117 0.075090 0.489777 -0.032715
C31   C     C_R   0.284208 0.417187 0.446133 -0.086797
C32   C     C_R   0.715791 0.582809 0.553844 -0.086798
C33   C     C_R   0.715795 0.917197 0.553814 -0.086807
C34   C     C_R   0.073720 0.853941 0.140514 0.579459
C35   C     C_R   0.284207 0.082801 0.446192 -0.086799
C36   C     C_R   0.178014 0.447587 0.456442 -0.072944
C37   C     C_R   0.821973 0.552412 0.543492 -0.072928
C38   C     C_R   0.821966 0.947599 0.543445 -0.072933
C39   C     C_R   0.178033 0.052398 0.456549 -0.072917
C40   C     C_R   0.180070 0.518175 0.501916 -0.052855
C41   C     C_R   0.819911 0.481824 0.498016 -0.052857
C42   C     C_R   0.819888 0.018186 0.497958 -0.052895
C43   C     C_R   0.180109 0.981810 0.502033 -0.052884
C44   C     C_R   0.285487 0.559840 0.527319 -0.084580
C45   C     C_R   0.393829 0.457737 0.478871 0.008144
C46   C     C_R   0.714500 0.440157 0.472650 -0.084574
C47   C     C_R   0.714474 0.059848 0.472598 -0.084577
C48   C     C_R   0.285527 0.940149 0.527402 -0.084581
C49   C     C_R   0.391377 0.531758 0.505979 0.000289
C50   C     C_R   0.608620 0.468240 0.494013 0.000301
C51   C     C_R   0.608607 0.031762 0.493987 0.000336
C52   C     C_R   0.391395 0.968236 0.506020 0.000329
C53   C     C_R   0.606170 0.542260 0.521124 0.008148
C54   C     C_R   0.606171 0.957742 0.521106 0.008167
C55   C     C_R   0.393832 0.042257 0.478902 0.008160
C56   C     C_2   0.407597 0.923350 0.919277 -0.112185
Cr1   Cr    Cr6+3 0.187610 0.750000 0.979860 1.010003
Cr2   Cr    Cr6+3 0.812390 0.250000 0.020140 1.010000
Cr3   Cr    Cr6+3 0.245810 0.750000 0.341640 1.025296
Cr4   Cr    Cr6+3 0.754190 0.250000 0.658360 1.025300
Cr5   Cr    Cr6+3 0.485760 0.750000 0.219910 1.039613
Cr6   Cr    Cr6+3 0.514240 0.250000 0.780090 1.039629
F1    F     F_    0.046762 0.053871 0.796749 -0.668022
F2    F     F_    0.953247 0.946131 0.203264 -0.668034
F3    F     F_    0.953240 0.553871 0.203257 -0.668033
F4    F     F_    0.046747 0.446133 0.796733 -0.667999
H1    H     H_    0.095292 0.415683 0.433290 0.131574
H2    H     H_    0.719214 0.638414 0.586732 0.120694
H3    H     H_    0.719229 0.861594 0.586709 0.120694
H4    H     H_    0.280774 0.138404 0.413299 0.120702
H5    H     H_    0.284217 0.613132 0.569503 0.138583
H6    H     H_    0.715763 0.386864 0.430466 0.138575
H7    H     H_    0.715723 0.113141 0.430408 0.138566
H8    H     H_    0.284276 0.886856 0.569592 0.138566
H9    H     H_    0.455228 0.057676 0.877890 0.177074
H10   H     H_    0.544956 0.942273 0.121985 0.177098
H11   H     H_    0.544758 0.557673 0.122093 0.177066
H12   H     H_    0.904691 0.584319 0.566614 0.131576
H13   H     H_    0.455423 0.442379 0.877771 0.177040
H14   H     H_    0.649756 0.054044 0.182863 0.116901
H15   H     H_    0.350209 0.945958 0.817133 0.116937
H16   H     H_    0.350360 0.554093 0.817038 0.116852
H17   H     H_    0.649612 0.445910 0.182951 0.116816
H18   H     H_    0.924816 0.054846 0.055219 0.170933
H19   H     H_    0.075136 0.945143 0.944740 0.170940
H20   H     H_    0.075158 0.554852 0.944757 0.170948
H21   H     H_    0.924851 0.445145 0.055252 0.170943
H22   H     H_    0.904686 0.915696 0.566562 0.131579
H23   H     H_    0.095311 0.084300 0.433426 0.131585
H24   H     H_    0.099667 0.540932 0.516980 0.156056
H25   H     H_    0.900303 0.459069 0.482919 0.156033
H26   H     H_    0.900272 0.040944 0.482849 0.156011
H27   H     H_    0.099721 0.959050 0.517132 0.156015
H28   H     H_    0.280790 0.361584 0.413243 0.120694
O1    O     O_R   0.267710 0.668200 0.902110 -0.521235
O2    O     O_R   0.883280 0.330790 0.732340 -0.485225
O3    O     O_R   0.883280 0.169210 0.732340 -0.485222
O4    O     O_R   0.116720 0.830790 0.267660 -0.485219
O5    O     O_R   0.366710 0.675440 0.427590 -0.516100
O6    O     O_R   0.633290 0.324560 0.572410 -0.516096
O7    O     O_R   0.633290 0.175440 0.572410 -0.516085
O8    O     O_R   0.366710 0.824560 0.427590 -0.516085
O9    O     O_R   0.534870 0.669390 0.371760 -0.512276
O10   O     O_R   0.465130 0.330610 0.628240 -0.512278
O11   O     O_R   0.465130 0.169390 0.628240 -0.512280
O12   O     O_R   0.732290 0.331800 0.097890 -0.521238
O13   O     O_R   0.534870 0.830610 0.371760 -0.512273
O14   O     O_R   0.453080 0.674480 0.075160 -0.493793
O15   O     O_R   0.546920 0.325520 0.924840 -0.493781
O16   O     O_R   0.546920 0.174480 0.924840 -0.493781
O17   O     O_R   0.453080 0.825520 0.075160 -0.493792
O18   O     O_3   0.306390 0.750000 0.180470 -0.251131
O19   O     O_3   0.693610 0.250000 0.819530 -0.251143
O20   O     O_R   0.732290 0.168200 0.097890 -0.521252
O21   O     O_R   0.267710 0.831800 0.902110 -0.521253
O22   O     O_R   0.099480 0.674460 0.038850 -0.544681
O23   O     O_R   0.900520 0.325540 0.961150 -0.544687
O24   O     O_R   0.900520 0.174460 0.961150 -0.544681
O25   O     O_R   0.099480 0.825540 0.038850 -0.544685
O26   O     O_R   0.116720 0.669210 0.267660 -0.485243

loop_
_geom_bond_atom_site_label_1
_geom_bond_atom_site_label_2
_ccdc_geom_bond_type
C44   C49   A    
C30   C51   A    
Cr3   O26   S    
C9    F2    S    
Cr3   O5    S    
C22   O1    A    
C5    C56   D    
C10   F1    S    
C4    C8    D    
C23   O24   A    
Cr4   O19   S    
C36   H1    S    
C6    H9    S    
Cr1   O21   S    
Cr6   O11   S    
C13   F3    S    
C32   H2    S    
Cr5   O9    S    
C38   C42   A    
C48   C52   A    
C3    C7    D    
C10   C15   D    
C2    H14   S    
C5    C6    S    
Cr1   O18   S    
C29   C54   A    
Cr2   O24   S    
C44   H5    S    
C11   C16   D    
Cr5   O14   S    
C26   O21   A    
C34   O25   A    
C34   O4    A    
C35   H4    S    
C16   C17   S    
Cr2   O19   S    
C41   C46   A    
C1    O22   A    
C19   C27   S    
C43   C48   A    
C28   C49   A    
C46   H6    S    
C27   C50   A    
C33   H3    S    
Cr1   O25   S    
C27   C45   A    
C3    C24   S    
C2    C6    D    
Cr1   O22   S    
Cr6   O10   S    
C29   C52   A    
C50   C53   A    
C35   C55   A    
C17   H20   S    
C48   H8    S    
C36   C40   A    
C18   C28   S    
C47   H7    S    
Cr6   O19   S    
Cr4   O3    S    
C39   C43   A    
C20   O7    A    
C21   C29   S    
Cr2   O23   S    
C38   H22   S    
Cr2   O12   S    
C1    O26   A    
C35   C39   A    
C9    C14   D    
C16   H21   S    
C4    C22   S    
C19   O10   A    
Cr6   O16   S    
C45   C49   A    
C28   C53   A    
Cr3   O18   S    
C4    H16   S    
C32   C37   A    
C21   O13   A    
C25   O16   A    
C21   O8    A    
Cr4   O2    S    
C23   O3    A    
C3    H17   S    
C9    C34   S    
C1    C13   S    
C18   O5    A    
C31   C45   A    
Cr4   O7    S    
Cr5   O17   S    
C32   C53   A    
C7    H13   S    
C20   O11   A    
C37   H12   S    
C33   C54   A    
C41   H25   S    
C14   C15   S    
Cr3   O8    S    
C24   O15   A    
C14   H19   S    
Cr4   O6    S    
C26   C56   S    
C47   C51   A    
C19   O6    A    
C52   C55   A    
C15   H18   S    
C10   C23   S    
C31   H28   S    
C30   C55   A    
C46   C50   A    
C33   C38   A    
C13   C17   D    
C51   C54   A    
C5    H10   S    
C25   O20   A    
C20   C30   S    
C18   O9    A    
C8    H11   S    
Cr6   O15   S    
C22   O14   A    
C43   H27   S    
C56   H15   S    
C2    C25   S    
C42   H26   S    
C42   C47   A    
C37   C41   A    
Cr5   O13   S    
C7    C8    S    
C12   O23   A    
C40   C44   A    
C24   O12   A    
Cr1   O1    S    
Cr2   O20   S    
Cr3   O4    S    
C31   C36   A    
C12   O2    A    
C40   H24   S    
Cr5   O18   S    
C26   O17   A    
C39   H23   S    
C11   C12   S    
C11   F4    S    
