data_mof_unit_12856.cif
_audit_creation_date              2012-12-10T18:50:01-0500
_audit_creation_method            fapswitch 2.2
_symmetry_space_group_name_H-M    P1
_symmetry_Int_Tables_number       1
_space_group_crystal_system       triclinic
_cell_length_a                    10.630353
_cell_length_b                    9.895047
_cell_length_c                    10.718006
_cell_angle_alpha                 88.744629
_cell_angle_beta                  90.49713
_cell_angle_gamma                 90.216609
_cell_volume                      1127.08363026

loop_
_atom_site_label
_atom_site_type_symbol
_atom_type_description
_atom_site_fract_x
_atom_site_fract_y
_atom_site_fract_z
_atom_type_partial_charge
C1    C     C_R   0.260365 0.499795 0.497979 0.998602
C2    C     C_R   0.604635 0.928054 0.537048 0.447585
C3    C     C_R   0.397446 0.928884 0.459247 -0.230160
C4    C     C_R   0.398503 0.072146 0.456547 -0.242165
C5    C     C_R   0.496987 0.501167 0.257834 0.956679
C6    C     C_R   0.739649 0.500076 0.500011 0.906511
C7    C     C_R   0.490365 0.498708 0.741730 1.037510
C8    C     C_3   0.383474 0.590940 0.070882 0.059522
C9    C     C_3   0.469026 0.353780 0.076800 0.035695
C10   C     C_3   0.386574 0.606763 0.924974 0.796235
C11   C     C_3   0.444085 0.350743 0.932037 0.861422
C12   C     C_3   0.627369 0.529196 0.925345 0.716592
C13   C     C_3   0.626930 0.553512 0.069113 0.764742
C14   C     C_3   0.495886 0.502312 0.121012 -0.367395
C15   C     C_3   0.487052 0.497119 0.878810 -0.475442
C16   C     C_3   0.161813 0.641835 0.923950 -0.225703
C17   C     C_3   0.228029 0.273347 0.973257 -0.304737
C18   C     C_3   0.358886 0.813003 0.799845 -0.197829
C19   C     C_3   0.470982 0.117350 0.894980 -0.112115
C20   C     C_3   0.114742 0.204616 0.655932 -0.250555
C21   C     C_3   0.091981 0.777365 0.291997 -0.281660
C22   C     C_3   0.755643 0.087695 0.704381 -0.225967
C23   C     C_R   0.065446 0.417117 0.584475 0.468464
C24   C     C_3   0.800009 0.882738 0.466889 -0.302371
C25   C     C_R   0.064212 0.578410 0.406184 0.466945
C26   C     C_R   0.935807 0.420144 0.586619 -0.247370
C27   C     C_R   0.933729 0.575394 0.406737 -0.315206
C28   C     C_R   0.871961 0.499639 0.498508 -0.116277
C29   C     C_R   0.127747 0.498901 0.496276 -0.259437
C30   C     C_R   0.600622 0.072633 0.548039 0.485797
H1    H     H_    0.315114 0.875632 0.426599 0.197191
H2    H     H_    0.186809 0.731839 0.979089 0.185304
H3    H     H_    0.109506 0.568934 0.984254 0.197580
H4    H     H_    0.260976 0.179510 0.020626 0.108264
H5    H     H_    0.142558 0.245459 0.919751 0.229143
H6    H     H_    0.197158 0.347853 0.041919 0.154639
H7    H     H_    0.287564 0.877663 0.843783 0.121756
H8    H     H_    0.313797 0.749185 0.728180 0.214461
H9    H     H_    0.424494 0.880733 0.748576 0.141815
H10   H     H_    0.543262 0.042777 0.872410 0.155624
H11   H     H_    0.390776 0.103610 0.829559 0.147975
H12   H     H_    0.317263 0.126300 0.420701 0.168444
H13   H     H_    0.444615 0.092048 0.992401 0.128355
H14   H     H_    0.671187 0.704467 0.179211 0.326667
H15   H     H_    0.731465 0.496806 0.215003 0.295291
H16   H     H_    0.640460 0.724664 0.875344 0.395200
H17   H     H_    0.721315 0.413314 0.812943 0.338975
H18   H     H_    0.193434 0.148776 0.701656 0.184622
H19   H     H_    0.114388 0.177151 0.555526 0.132777
H20   H     H_    0.026614 0.170843 0.701451 0.135454
H21   H     H_    0.003314 0.781738 0.236593 0.161356
H22   H     H_    0.164386 0.832211 0.236662 0.214805
H23   H     H_    0.297862 0.533699 0.097669 0.156024
H24   H     H_    0.082393 0.831295 0.381431 0.120131
H25   H     H_    0.772970 0.167860 0.773147 0.206210
H26   H     H_    0.847578 0.043065 0.680832 0.167277
H27   H     H_    0.697907 0.008058 0.750543 0.162955
H28   H     H_    0.889194 0.831425 0.492325 0.184910
H29   H     H_    0.822856 0.991711 0.452977 0.167985
H30   H     H_    0.764291 0.840716 0.377818 0.160135
H31   H     H_    0.386470 0.315763 0.129735 0.074073
H32   H     H_    0.885322 0.362433 0.657204 0.175686
H33   H     H_    0.880018 0.629020 0.335362 0.146130
H34   H     H_    0.442056 0.775423 0.110213 0.405469
H35   H     H_    0.543532 0.193489 0.160674 0.340427
H36   H     H_    0.096891 0.675471 0.847944 0.178618
N1    N     N_R   0.499970 0.857200 0.499970 -0.138121
N2    N     N_R   0.499970 0.142800 0.499970 -0.123339
O1    O     O_R   0.316750 0.614620 0.499990 -0.625670
O2    O     O_3   0.573467 0.271170 0.108535 -0.630763
O3    O     O_3   0.266043 0.576344 0.869888 -0.601425
O4    O     O_3   0.316396 0.330487 0.888949 -0.568880
O5    O     O_3   0.428699 0.741028 0.893021 -0.647313
O6    O     O_3   0.522237 0.248701 0.880845 -0.539028
O7    O     O_3   0.644941 0.692518 0.091173 -0.819209
O8    O     O_3   0.728362 0.480254 0.124237 -0.653564
O9    O     O_3   0.684160 0.639228 0.859421 -0.735075
O10   O     O_3   0.703861 0.415843 0.903694 -0.637911
O11   O     O_3   0.133196 0.344170 0.673844 -0.539106
O12   O     O_R   0.316750 0.385380 0.499990 -0.621425
O13   O     O_3   0.131950 0.642585 0.311226 -0.583062
O14   O     O_3   0.700740 0.146852 0.595694 -0.597276
O15   O     O_3   0.713913 0.858809 0.564622 -0.569533
O16   O     O_R   0.499970 0.614670 0.314790 -0.591272
O17   O     O_R   0.499970 0.385330 0.314790 -0.621977
O18   O     O_R   0.683220 0.614710 0.500010 -0.571045
O19   O     O_R   0.683220 0.385290 0.500010 -0.567417
O20   O     O_R   0.500010 0.614660 0.685200 -0.595343
O21   O     O_R   0.500010 0.385340 0.685200 -0.553013
O22   O     O_3   0.369987 0.715963 0.130436 -0.718008
Zn1   Zn    Zn3+2 0.499980 0.653120 0.500000 1.000441
Zn2   Zn    Zn3+2 0.499980 0.346880 0.500000 1.018696

loop_
_geom_bond_atom_site_label_1
_geom_bond_atom_site_label_2
_ccdc_geom_bond_type
C30   O14   S    
H34   O22   S    
C18   H9    S    
C22   H27   S    
H15   O8    S    
C9    H31   S    
C22   O14   S    
C24   O15   S    
C10   C15   S    
C21   H24   S    
C10   O5    S    
H35   O2    S    
C7    O21   A    
C23   C26   A    
C20   H20   S    
C11   C15   S    
C6    C28   S    
C13   O7    S    
C12   O10   S    
C13   O8    S    
O16   Zn1   S    
C5    O17   A    
C10   O3    S    
C7    C15   S    
C13   C14   S    
C25   O13   S    
C2    O15   S    
C16   O3    S    
C1    C29   S    
O17   Zn2   S    
C19   H13   S    
C25   C29   A    
C9    O2    S    
C2    N1    A    
C4    N2    A    
C5    O16   A    
C11   O4    S    
C22   H26   S    
C1    O1    A    
C6    O19   A    
O12   Zn2   S    
H14   O7    S    
C9    C14   S    
C20   H19   S    
C16   H3    S    
C7    O20   A    
O20   Zn1   S    
C24   H30   S    
C12   O9    S    
N1    Zn1   S    
O21   Zn2   S    
C3    H1    S    
C9    C11   S    
C5    C14   S    
C20   H18   S    
C27   H33   S    
C24   H28   S    
C17   H6    S    
C21   O13   S    
C12   C15   S    
C25   C27   A    
C16   H36   S    
C17   H4    S    
C3    C4    A    
C23   C29   A    
C21   H21   S    
O19   Zn2   S    
C8    C14   S    
C20   O11   S    
C18   H7    S    
C19   O6    S    
C3    N1    A    
C11   O6    S    
C8    H23   S    
H16   O9    S    
C22   H25   S    
C16   H2    S    
C26   C28   A    
C6    O18   A    
C2    C30   A    
C18   O5    S    
C26   H32   S    
C4    H12   S    
C24   H29   S    
N2    Zn2   S    
C18   H8    S    
C19   H10   S    
C8    O22   S    
C12   C13   S    
C17   O4    S    
C8    C10   S    
O18   Zn1   S    
C27   C28   A    
C1    O12   A    
C17   H5    S    
H17   O10   S    
C23   O11   S    
O1    Zn1   S    
C21   H22   S    
C30   N2    A    
C19   H11   S    
