data_mof_unit_50984.cif
_audit_creation_date              2012-12-11T15:11:48-0500
_audit_creation_method            fapswitch 2.2
_symmetry_space_group_name_H-M    P1
_symmetry_Int_Tables_number       1
_space_group_crystal_system       triclinic
_cell_length_a                    20.153437
_cell_length_b                    7.100055
_cell_length_c                    13.488748
_cell_angle_alpha                 90.004657
_cell_angle_beta                  103.615327
_cell_angle_gamma                 89.993705
_cell_volume                      1875.87195149

loop_
_atom_site_label
_atom_site_type_symbol
_atom_type_description
_atom_site_fract_x
_atom_site_fract_y
_atom_site_fract_z
_atom_type_partial_charge
O1    O     O_R   0.449830 0.506740 0.599960 -0.535946
O2    O     O_R   0.550170 0.006740 0.400040 -0.535949
O3    O     O_R   0.588980 0.179860 0.596720 -0.545883
O4    O     O_R   0.411020 0.679860 0.403280 -0.545883
C1    C     C_R   0.616425 0.344569 0.619047 0.656693
C2    C     C_R   0.383575 0.844576 0.380954 0.656697
O5    O     O_R   0.452740 0.177340 0.612040 -0.539269
O6    O     O_R   0.547260 0.677340 0.387960 -0.539264
O7    O     O_R   0.412960 0.002070 0.415460 -0.541584
O8    O     O_R   0.587040 0.502070 0.584540 -0.541577
C3    C     C_R   0.436659 0.345766 0.638750 0.690562
C4    C     C_R   0.563338 0.845740 0.361244 0.690557
O9    O     O_3   0.487110 0.337570 0.435490 -0.373181
O10   O     O_3   0.512890 0.837570 0.564510 -0.373180
V1    V     V_3+5 0.502390 0.064650 0.511970 1.393234
V2    V     V_3+5 0.497610 0.564650 0.488030 1.393246
C5    C     C_R   0.608439 0.857752 0.106855 -0.162915
C6    C     C_R   0.391560 0.359829 0.893114 -0.162908
H1    H     H_    0.514890 0.852442 0.156712 0.099240
H2    H     H_    0.485110 0.354688 0.843254 0.099233
H3    H     H_    0.691281 0.861976 0.980587 0.116605
H4    H     H_    0.308724 0.364777 0.019384 0.116655
H5    H     H_    0.582003 0.858692 0.026959 0.111590
H6    H     H_    0.418000 0.361786 0.973003 0.111593
C7    C     C_R   0.602986 0.853454 0.283634 -0.027244
C8    C     C_R   0.397005 0.353622 0.716348 -0.027217
C9    C     C_R   0.931973 0.858712 0.318581 -0.169720
C10   C     C_R   0.068018 0.357590 0.681430 -0.169741
C11   C     C_R   0.896672 0.855396 0.395418 -0.122652
C12   C     C_R   0.103318 0.353885 0.604593 -0.122644
C13   C     C_R   0.825536 0.854680 0.371421 -0.164309
C14   C     C_R   0.174455 0.353633 0.628584 -0.164298
C15   C     C_R   0.787515 0.856889 0.268590 0.077751
C16   C     C_R   0.212479 0.356685 0.731406 0.077744
C17   C     C_R   0.824153 0.859145 0.190108 0.072792
C18   C     C_R   0.175845 0.359484 0.809886 0.072788
C19   C     C_R   0.714535 0.857069 0.241024 0.071957
C20   C     C_R   0.285458 0.357242 0.758961 0.071963
C21   C     C_R   0.680088 0.858721 0.136008 0.146538
C22   C     C_R   0.319910 0.360110 0.863969 0.146523
C23   C     C_R   0.717212 0.860703 0.060733 -0.217475
C24   C     C_R   0.282790 0.362633 0.939244 -0.217489
C25   C     C_R   0.788033 0.860836 0.087161 -0.208113
C26   C     C_R   0.211968 0.362174 0.912824 -0.208068
C27   C     C_R   0.674270 0.855197 0.313917 -0.217716
C28   C     C_R   0.325720 0.354615 0.686067 -0.217706
C29   C     C_R   0.570131 0.854490 0.180327 -0.177220
C30   C     C_R   0.429866 0.356051 0.819644 -0.177244
C31   C     C_R   0.896487 0.860454 0.216307 -0.073672
C32   C     C_R   0.103510 0.360296 0.783694 -0.073655
H7    H     H_    0.696385 0.853751 0.394829 0.087440
H8    H     H_    0.303603 0.352085 0.605162 0.087412
H9    H     H_    0.987306 0.860299 0.338900 0.096920
H10   H     H_    0.012686 0.358732 0.661119 0.096916
H11   H     H_    0.802113 0.852486 0.435365 0.101756
H12   H     H_    0.197874 0.351174 0.564640 0.101750
H13   H     H_    0.924681 0.853941 0.474477 0.116743
H14   H     H_    0.075306 0.351748 0.525540 0.116736
H15   H     H_    0.814309 0.862013 0.025807 0.110470
H16   H     H_    0.185693 0.363741 0.974177 0.110423
C33   C     C_3   0.238921 0.762177 0.134928 -0.312921
C34   C     C_3   0.761069 0.262379 0.865120 -0.312861
H17   H     H_    0.222022 0.615447 0.113670 0.137963
H18   H     H_    0.777960 0.115669 0.886468 0.138040
C35   C     C_3   0.311806 0.758147 0.206173 -0.327160
C36   C     C_3   0.688186 0.258321 0.793866 -0.327069
H19   H     H_    0.347902 0.833057 0.168831 0.122771
H20   H     H_    0.652090 0.333349 0.831173 0.122746
H21   H     H_    0.329426 0.609475 0.217807 0.137973
H22   H     H_    0.670561 0.109654 0.782289 0.138010
H23   H     H_    0.169494 0.603609 0.269174 0.140034
H24   H     H_    0.830487 0.103433 0.730935 0.140052
H25   H     H_    0.276713 0.596040 0.374176 0.135222
H26   H     H_    0.723273 0.095858 0.625926 0.135213
C37   C     C_3   0.187711 0.750296 0.287688 -0.328354
C38   C     C_3   0.812282 0.250116 0.712361 -0.328343
C39   C     C_3   0.214829 0.062502 0.218616 -0.308576
C40   C     C_3   0.785188 0.562493 0.781306 -0.308622
C41   C     C_3   0.187645 0.859805 0.188115 0.115690
C42   C     C_3   0.812354 0.359810 0.811890 0.115673
C43   C     C_3   0.312520 0.851671 0.310632 0.119295
C44   C     C_3   0.687480 0.351658 0.689371 0.119256
C45   C     C_3   0.260522 0.745252 0.359059 -0.316275
C46   C     C_3   0.739473 0.245068 0.640988 -0.316350
C47   C     C_3   0.287050 0.057665 0.289824 -0.316859
C48   C     C_3   0.712967 0.557644 0.710097 -0.316831
H27   H     H_    0.322740 0.138210 0.254119 0.135675
H28   H     H_    0.677282 0.638328 0.745763 0.135644
H29   H     H_    0.286000 0.128971 0.362962 0.133354
H30   H     H_    0.714026 0.628792 0.636927 0.133387
H31   H     H_    0.151805 0.818238 0.328067 0.122141
H32   H     H_    0.848194 0.317922 0.671957 0.122137
H33   H     H_    0.259393 0.810141 0.433747 0.128027
H34   H     H_    0.740608 0.309826 0.566276 0.128034
O11   O     O_R   0.912980 0.203550 0.915410 -0.539669
O12   O     O_R   0.087020 0.703550 0.084590 -0.539679
O13   O     O_R   0.047270 0.535570 0.887960 -0.538468
O14   O     O_R   0.952730 0.035570 0.112040 -0.538465
C49   C     C_R   0.063881 0.368206 0.861727 0.688210
C50   C     C_R   0.936116 0.868234 0.138271 0.688202
O15   O     O_R   0.911030 0.532970 0.903270 -0.546753
O16   O     O_R   0.088970 0.032970 0.096730 -0.546740
O17   O     O_R   0.949820 0.708150 0.099970 -0.536084
O18   O     O_R   0.050180 0.208150 0.900030 -0.536072
C51   C     C_R   0.883663 0.365215 0.882021 0.649673
C52   C     C_R   0.116337 0.865209 0.117981 0.649680
O19   O     O_3   0.012900 0.375230 0.064480 -0.372805
O20   O     O_3   0.987100 0.875230 0.935520 -0.372805
V3    V     V_3+5 0.997610 0.648190 0.988040 1.395800
V4    V     V_3+5 0.002390 0.148190 0.011960 1.395837
H35   H     H_    0.240183 0.837999 0.063191 0.136574
H36   H     H_    0.759806 0.338376 0.936813 0.136539
H37   H     H_    0.179756 0.137229 0.257975 0.136255
H38   H     H_    0.820269 0.637076 0.741918 0.136270
H39   H     H_    0.216407 0.145069 0.149023 0.135824
H40   H     H_    0.783613 0.645189 0.850864 0.135755

loop_
_geom_bond_atom_site_label_1
_geom_bond_atom_site_label_2
_ccdc_geom_bond_type
C36   H20   S    
O14   V4    S    
C25   H15   S    
C9    C11   A    
C23   C25   A    
O1    C3    A    
H24   C38   S    
O2    C4    A    
C38   C46   S    
C2    O7    A    
O3    V1    S    
C21   C23   A    
C36   H22   S    
O5    C3    A    
C32   C49   S    
C5    H5    S    
C6    H6    S    
C34   C42   S    
C20   C22   A    
C26   H16   S    
C48   H28   S    
C27   H7    S    
O15   V3    S    
C45   H33   S    
C28   H8    S    
O20   V3    S    
C5    C21   A    
C33   H17   S    
C6    C22   A    
C34   H18   S    
O11   C51   A    
C43   C45   S    
C10   C32   A    
C35   H19   S    
C17   C31   A    
C13   C15   A    
C17   C25   A    
C7    C29   A    
C16   C18   A    
C37   H31   S    
C40   C48   S    
C22   C24   A    
C49   O18   A    
C39   C47   S    
O6    V2    S    
C2    C43   S    
O19   V3    S    
C40   H38   S    
C24   C26   A    
C39   H37   S    
O13   C49   A    
C39   C41   S    
O15   C51   A    
H23   C37   S    
C34   C36   S    
C47   H27   S    
C38   C42   S    
O4    C2    A    
C48   H30   S    
C47   H29   S    
C3    C8    S    
C44   C48   S    
C42   C51   S    
C50   O17   A    
C15   C19   A    
C41   C52   S    
C14   C16   A    
O4    V2    S    
C36   C44   S    
O13   V3    S    
C35   C43   S    
O6    C4    A    
H1    C29   S    
O1    V2    S    
C46   H34   S    
O2    V1    S    
H2    C30   S    
C38   H32   S    
H3    C23   S    
C11   H13   S    
C44   C46   S    
O19   V4    S    
C18   C26   A    
C19   C27   A    
C33   H35   S    
C7    C27   A    
C18   C32   A    
O18   V4    S    
O12   C52   A    
C10   H10   S    
C16   C20   A    
C40   H40   S    
C5    C29   A    
H26   C46   S    
O3    C1    A    
O11   V4    S    
C6    C30   A    
C9    H9    S    
C8    C30   A    
O12   V3    S    
O14   C50   A    
C4    C7    S    
O17   V3    S    
C10   C12   A    
O7    V1    S    
C1    O8    A    
C19   C21   A    
O8    V2    S    
C31   C50   S    
C12   C14   A    
C1    C44   S    
C37   C45   S    
H4    C24   S    
C33   C41   S    
C35   H21   S    
C12   H14   S    
O5    V1    S    
C15   C17   A    
O20   V4    S    
O16   C52   A    
C40   C42   S    
C20   C28   A    
O16   V4    S    
C8    C28   A    
C33   C35   S    
C34   H36   S    
C11   C13   A    
O9    V2    S    
O10   V1    S    
C13   H11   S    
C39   H39   S    
C37   C41   S    
H25   C45   S    
C14   H12   S    
C43   C47   S    
C9    C31   A    
