data_mof_unit_48595.cif
_audit_creation_date              2012-12-10T20:30:09-0500
_audit_creation_method            fapswitch 2.2
_symmetry_space_group_name_H-M    P1
_symmetry_Int_Tables_number       1
_space_group_crystal_system       triclinic
_cell_length_a                    9.872222
_cell_length_b                    10.695883
_cell_length_c                    13.141666
_cell_angle_alpha                 89.688531
_cell_angle_beta                  72.006761
_cell_angle_gamma                 89.49483
_cell_volume                      1319.73370427

loop_
_atom_site_label
_atom_site_type_symbol
_atom_type_description
_atom_site_fract_x
_atom_site_fract_y
_atom_site_fract_z
_atom_type_partial_charge
C1    C     C_R   0.497793 0.739887 0.503578 0.914243
C2    C     C_R   0.447981 0.411501 0.973796 0.089416
C3    C     C_R   0.491520 0.408029 0.861375 0.066261
C4    C     C_R   0.553134 0.433819 0.024531 0.084587
C5    C     C_R   0.699665 0.433176 0.963783 0.182231
C6    C     C_R   0.739513 0.405831 0.855715 -0.246548
C7    C     C_R   0.637113 0.389544 0.805883 -0.167001
C8    C     C_R   0.516815 0.462231 0.132683 -0.265667
C9    C     C_R   0.765998 0.482371 0.120864 -0.202932
C10   C     C_R   0.387542 0.418847 0.808104 -0.170761
C11   C     C_R   0.368875 0.937524 0.518345 0.132544
C12   C     C_R   0.425759 0.471417 0.698622 0.897570
C13   C     C_R   0.487981 0.870609 0.522842 -0.157882
C14   C     C_R   0.595264 0.931005 0.552002 -0.235250
C15   C     C_R   0.597992 0.060245 0.554482 0.154818
C16   C     C_R   0.490885 0.128124 0.525983 -0.166975
C17   C     C_R   0.370479 0.065012 0.519650 0.162164
C18   C     C_3   0.290197 0.075190 0.440147 -0.466412
C19   C     C_3   0.289186 0.933446 0.438595 -0.472815
C20   C     C_R   0.913018 0.601326 0.536865 0.211439
C21   C     C_R   0.949199 0.407801 0.450768 -0.106429
C22   C     C_R   0.093025 0.407550 0.451074 -0.101581
C23   C     C_R   0.498620 0.259777 0.505718 0.889686
C24   C     C_R   0.055008 0.600749 0.537517 0.204848
C25   C     C_3   0.015688 0.654508 0.647135 -0.484121
C26   C     C_3   0.862175 0.657078 0.646021 -0.496362
C27   C     C_R   0.577333 0.499178 0.296468 0.873618
C28   C     C_R   0.804642 0.458228 0.011996 -0.183413
C29   C     C_R   0.621884 0.483900 0.181252 -0.052922
C30   C     C_R   0.249279 0.377585 0.862049 0.143362
C31   C     C_R   0.207081 0.364112 0.973107 -0.168743
C32   C     C_R   0.302592 0.389322 0.029537 -0.225163
H1    H     H_    0.848353 0.499060 0.157674 0.160032
H2    H     H_    0.182341 0.116587 0.475924 0.230921
H3    H     H_    0.354198 0.117370 0.362887 0.194815
H4    H     H_    0.180950 0.893539 0.473078 0.213888
H5    H     H_    0.353324 0.892941 0.360650 0.203132
H6    H     H_    0.911639 0.332528 0.412177 0.168770
H7    H     H_    0.163604 0.332105 0.412819 0.143387
H8    H     H_    0.034472 0.588051 0.706817 0.230182
H9    H     H_    0.060886 0.749262 0.647476 0.210621
H10   H     H_    0.791185 0.594309 0.705925 0.229984
H11   H     H_    0.849722 0.401394 0.808076 0.190355
H12   H     H_    0.820141 0.753508 0.645168 0.208892
H13   H     H_    0.916267 0.458787 0.965586 0.156570
H14   H     H_    0.406450 0.469573 0.180107 0.160002
H15   H     H_    0.263188 0.379323 0.115404 0.137355
H16   H     H_    0.100998 0.331900 0.015791 0.159455
H17   H     H_    0.674632 0.361152 0.723400 0.217611
H18   H     H_    0.681917 0.878647 0.566190 0.184906
N1    N     N_R   0.856940 0.500860 0.500710 -0.109093
N2    N     N_R   0.142580 0.500820 0.500710 -0.098897
O1    O     O_R   0.385310 0.683210 0.499990 -0.613527
O2    O     O_R   0.614650 0.683240 0.500000 -0.616742
O3    O     O_R   0.328390 0.499940 0.653610 -0.585568
O4    O     O_R   0.557730 0.499980 0.653620 -0.631626
O5    O     O_R   0.385350 0.316760 0.500000 -0.609974
O6    O     O_R   0.614690 0.316790 0.500010 -0.606293
O7    O     O_R   0.442270 0.500020 0.346380 -0.627268
O8    O     O_R   0.671610 0.500060 0.346390 -0.617471
Zn1   Zn    Zn3+2 0.346870 0.499980 0.499990 0.961891
Zn2   Zn    Zn3+2 0.653130 0.500020 0.500010 0.951495
I1    I     I_    0.774885 0.133710 0.594026 -0.425776
I2    I     I_    0.121573 0.295716 0.777577 -0.407836

loop_
_geom_bond_atom_site_label_1
_geom_bond_atom_site_label_2
_ccdc_geom_bond_type
O6    Zn2   S    
C23   O6    A    
C2    C4    A    
C1    O2    A    
C13   C14   A    
C24   N2    A    
C6    C7    A    
C19   H5    S    
C30   I2    S    
C27   C29   S    
C5    C28   A    
C18   H2    S    
C18   H3    S    
C10   C30   A    
C31   C32   A    
C9    C29   A    
C30   C31   A    
C31   H16   S    
C16   C23   S    
C17   C18   S    
C25   C26   S    
C7    H17   S    
C26   H12   S    
C3    C10   A    
C27   O7    A    
C21   C22   A    
O5    Zn1   S    
C11   C13   A    
C11   C19   S    
C27   O8    A    
C14   H18   S    
N1    Zn2   S    
C10   C12   S    
C9    H1    S    
C8    C29   A    
O3    Zn1   S    
C2    C32   A    
C22   N2    A    
C12   O4    A    
C2    C3    A    
C20   N1    A    
C3    C7    A    
N2    Zn1   S    
C25   H8    S    
C5    C6    A    
C32   H15   S    
O4    Zn2   S    
C28   H13   S    
O7    Zn1   S    
C12   O3    A    
C1    C13   S    
C22   H7    S    
C15   C16   A    
C16   C17   A    
C21   N1    A    
C24   C25   S    
C26   H10   S    
O8    Zn2   S    
C18   C19   S    
C25   H9    S    
C4    C8    A    
C23   O5    A    
C15   I1    S    
C6    H11   S    
C11   C17   A    
C1    O1    A    
O2    Zn2   S    
C8    H14   S    
C19   H4    S    
C14   C15   A    
O1    Zn1   S    
C21   H6    S    
C20   C24   A    
C9    C28   A    
C4    C5    A    
C20   C26   S    
