data_mof_unit_7684.cif
_audit_creation_date              2013-03-05T15:41:47-0500
_audit_creation_method            fapswitch 2.2
_symmetry_space_group_name_H-M    P1
_symmetry_Int_Tables_number       1
_space_group_crystal_system       triclinic
_cell_length_a                    19.300908
_cell_length_b                    8.687735
_cell_length_c                    7.438252
_cell_angle_alpha                 102.958932
_cell_angle_beta                  94.465532
_cell_angle_gamma                 92.325698
_cell_volume                      1209.63458179

loop_
_atom_site_label
_atom_site_type_symbol
_atom_site_description
_atom_site_fract_x
_atom_site_fract_y
_atom_site_fract_z
_atom_type_partial_charge
O1    O     O_R   0.505010 0.286130 0.619770 -0.588801
O2    O     O_R   0.494990 0.713870 0.380230 -0.588798
O3    O     O_R   0.491990 0.256780 0.308370 -0.578610
O4    O     O_R   0.508010 0.743220 0.691630 -0.578587
C1    C     C_R   0.497905 0.199659 0.453228 0.884354
C2    C     C_R   0.502095 0.800341 0.546771 0.884385
O5    O     O_R   0.406650 0.514660 0.655750 -0.591412
O6    O     O_R   0.593350 0.485340 0.344250 -0.591406
O7    O     O_R   0.393640 0.485310 0.344340 -0.528512
O8    O     O_R   0.606360 0.514690 0.655660 -0.528553
C3    C     C_R   0.367305 0.497101 0.501325 0.837634
C4    C     C_R   0.632694 0.502905 0.498674 0.837667
Cu1   Cu    Cu3+1 0.507710 0.517380 0.684380 1.026000
Cu2   Cu    Cu3+1 0.492290 0.482620 0.315620 1.025997
C5    C     C_R   0.262339 0.556223 0.670740 -0.216095
C6    C     C_R   0.737666 0.443759 0.329287 -0.216078
H1    H     H_    0.296364 0.610599 0.793257 0.224052
H2    H     H_    0.703646 0.389373 0.206765 0.224026
C7    C     C_R   0.190209 0.550333 0.682182 0.372560
C8    C     C_R   0.809798 0.449630 0.317878 0.372540
C9    C     C_R   0.145792 0.480967 0.521653 -0.135434
C10   C     C_R   0.854208 0.519003 0.478422 -0.135410
C11   C     C_R   0.174441 0.411899 0.357494 -0.174431
C12   C     C_R   0.825551 0.588108 0.642555 -0.174460
H3    H     H_    0.140784 0.358259 0.233816 0.221996
H4    H     H_    0.859201 0.641767 0.766239 0.221951
C13   C     C_R   0.246172 0.416567 0.346928 0.365780
C14   C     C_R   0.753818 0.583469 0.653077 0.365787
C15   C     C_R   0.290996 0.491036 0.504628 -0.226340
C16   C     C_R   0.709002 0.508978 0.495376 -0.226324
N1    N     N_R   0.027712 0.368876 0.408325 -0.183424
N2    N     N_R   0.972288 0.631078 0.591786 -0.183430
N3    N     N_R   0.959052 0.379199 0.394349 -0.143817
N4    N     N_R   0.040948 0.620755 0.605762 -0.143818
C17   C     C_R   0.930162 0.511036 0.484624 0.493570
C18   C     C_R   0.069839 0.488919 0.515483 0.493575
C19   C     C_2   0.496882 0.031814 0.426842 -0.329088
C20   C     C_2   0.503118 0.968186 0.573158 -0.329063
H5    H     H_    0.490996 0.960241 0.285801 0.185719
H6    H     H_    0.509005 0.039759 0.714199 0.185718
N5    N     N_2   0.480680 0.456420 0.038530 -0.203246
N6    N     N_2   0.519320 0.543580 0.961470 -0.203255
H7    H     H_    0.445012 0.379413 0.948600 0.250112
H8    H     H_    0.554988 0.620587 0.051400 0.250118
N7    N     N_R   0.163461 0.609266 0.858265 0.153700
O9    O     O_R   0.112749 0.531047 0.910435 -0.311642
O10   O     O_R   0.196318 0.727052 0.978079 -0.291706
N8    N     N_R   0.836556 0.390673 0.141815 0.153686
O11   O     O_R   0.887272 0.468882 0.089647 -0.311632
O12   O     O_R   0.803702 0.272881 0.022005 -0.291699
N9    N     N_R   0.272156 0.343252 0.175284 0.134668
O13   O     O_R   0.290297 0.430285 0.063482 -0.334807
O14   O     O_R   0.261907 0.191084 0.112539 -0.312783
N10   N     N_R   0.727819 0.656854 0.824670 0.134679
O15   O     O_R   0.737921 0.809076 0.887118 -0.312810
O16   O     O_R   0.709772 0.569926 0.936669 -0.334805

loop_
_geom_bond_atom_site_label_1
_geom_bond_atom_site_label_2
_geom_bond_distance
_ccdc_geom_bond_type
C20   H6    1.087789 S    
O7    Cu2   1.932936 S    
N1    N3    1.329425 A    
C5    C7    1.400939 A    
C19   C20   1.326408 D    
C11   C13   1.392262 A    
C13   C15   1.413925 A    
O7    C3    1.294356 A    
N5    N6    1.293652 D    
N1    C18   1.357018 A    
O6    C4    1.302108 A    
C6    C8    1.400939 A    
C4    C16   1.473927 S    
N8    O12   1.301481 A    
C19   H5    1.087789 S    
C9    C18   1.468028 S    
C8    N8    1.438775 S    
Cu1   Cu2   2.682818 S    
O5    C3    1.302122 A    
C10   C17   1.468033 S    
N5    H7    1.029158 S    
O2    C2    1.290555 A    
O3    Cu2   1.950413 S    
N6    H8    1.029158 S    
Cu2   N5    2.015824 S    
O1    C1    1.290554 A    
O8    C4    1.294359 A    
C10   C12   1.400093 A    
C14   C16   1.413892 A    
N8    O11   1.301477 A    
C7    C9    1.414152 A    
C13   N9    1.431147 S    
C12   H4    1.084231 S    
C5    C15   1.404039 A    
N4    C18   1.356056 A    
C9    C11   1.400088 A    
O2    Cu2   1.955628 S    
N10   O16   1.300654 A    
O1    Cu1   1.955628 S    
C1    C19   1.426167 S    
C6    C16   1.404026 A    
N9    O13   1.300677 A    
N2    C17   1.357018 A    
O3    C1    1.282790 A    
O5    Cu1   1.944189 S    
C11   H3    1.084233 S    
C3    C15   1.473950 S    
O4    C2    1.282791 A    
N7    O10   1.301480 A    
O4    Cu1   1.950413 S    
C5    H1    1.083274 S    
C14   N10   1.431115 S    
N10   O15   1.300831 A    
Cu1   N6    2.015824 S    
O6    Cu2   1.944189 S    
N3    C17   1.356055 A    
C2    C20   1.426167 S    
N7    O9    1.301478 A    
C6    H2    1.083276 S    
C7    N7    1.438776 S    
C12   C14   1.392250 A    
C8    C10   1.414165 A    
N9    O14   1.300885 A    
O8    Cu1   1.932934 S    
N2    N4    1.329427 A    
