data_mof_unit_60519.cif
_audit_creation_date              2012-12-10T17:55:47-0500
_audit_creation_method            fapswitch 2.2
_symmetry_space_group_name_H-M    P1
_symmetry_Int_Tables_number       1
_space_group_crystal_system       monoclinic
_cell_length_a                    18.342334
_cell_length_b                    18.368044
_cell_length_c                    26.031428
_cell_angle_alpha                 90.0
_cell_angle_beta                  90.0
_cell_angle_gamma                 90.000019
_cell_volume                      8770.32124276

loop_
_atom_site_label
_atom_site_type_symbol
_atom_type_description
_atom_site_fract_x
_atom_site_fract_y
_atom_site_fract_z
_atom_type_partial_charge
C1    C     C_R   0.140217 0.859819 0.249998 0.788340
C2    C     C_R   0.256588 0.809903 0.217165 -0.191658
C3    C     C_R   0.743412 0.809903 0.782835 -0.191656
C4    C     C_R   0.743408 0.809907 0.217169 -0.191689
C5    C     C_R   0.756589 0.309903 0.282835 -0.191658
C6    C     C_R   0.756592 0.309907 0.717169 -0.191691
C7    C     C_R   0.243408 0.309907 0.282831 -0.191689
C8    C     C_R   0.243412 0.309903 0.717165 -0.191656
C9    C     C_R   0.809990 0.256463 0.282835 -0.191030
C10   C     C_R   0.809994 0.256466 0.717169 -0.190698
C11   C     C_R   0.190007 0.256466 0.282831 -0.190698
C12   C     C_R   0.140217 0.859819 0.750003 0.788603
C13   C     C_R   0.190011 0.256462 0.717165 -0.191030
C14   C     C_R   0.309994 0.756466 0.782831 -0.190698
C15   C     C_R   0.309990 0.756463 0.217165 -0.191030
C16   C     C_R   0.690010 0.756462 0.782835 -0.191030
C17   C     C_R   0.690007 0.756466 0.217169 -0.190698
C18   C     C_R   0.803681 0.196267 0.250020 0.008689
C19   C     C_R   0.803680 0.196267 0.749979 0.008632
C20   C     C_R   0.196320 0.196267 0.250021 0.008632
C21   C     C_R   0.196319 0.196268 0.749979 0.008689
C22   C     C_R   0.303680 0.696267 0.750021 0.008632
C23   C     C_R   0.859783 0.859819 0.249997 0.788603
C24   C     C_R   0.303681 0.696268 0.249979 0.008689
C25   C     C_R   0.696319 0.696268 0.750020 0.008689
C26   C     C_R   0.696320 0.696267 0.249979 0.008632
C27   C     C_R   0.933967 0.000006 0.026804 -0.186249
C28   C     C_R   0.933967 0.000006 0.973196 -0.186249
C29   C     C_R   0.066033 0.999973 0.026804 -0.186249
C30   C     C_R   0.066033 0.999973 0.973196 -0.186249
C31   C     C_R   0.433967 0.500008 0.526804 -0.186249
C32   C     C_R   0.433967 0.500008 0.473196 -0.186249
C33   C     C_R   0.566033 0.499971 0.526804 -0.186249
C34   C     C_R   0.859783 0.859819 0.750002 0.788341
C35   C     C_R   0.566033 0.499971 0.473196 -0.186249
C36   C     C_R   1.000000 0.999990 0.945866 0.000857
C37   C     C_R   0.000000 0.999990 0.054133 0.000857
C38   C     C_R   0.500000 0.499990 0.445866 0.000857
C39   C     C_R   0.500000 0.499990 0.554133 0.000857
C40   C     C_R   0.859790 0.140163 0.250028 0.788624
C41   C     C_R   0.859789 0.140163 0.749972 0.788720
C42   C     C_R   0.140210 0.140163 0.250028 0.788721
C43   C     C_R   0.140210 0.140163 0.749972 0.788624
C44   C     C_R   0.359789 0.640163 0.750028 0.788720
C45   C     C_R   0.640217 0.359819 0.749997 0.788603
C46   C     C_R   0.359789 0.640163 0.249972 0.788624
C47   C     C_R   0.640210 0.640163 0.750028 0.788624
C48   C     C_R   0.640211 0.640163 0.249972 0.788721
C49   C     C_R   1.000000 0.999990 0.110814 0.781301
C50   C     C_R   1.000000 0.999990 0.889186 0.781301
C51   C     C_R   0.500000 0.499990 0.610814 0.781301
C52   C     C_R   0.500000 0.499990 0.389186 0.781301
C53   C     C_R   0.000472 0.999946 0.388563 0.852892
C54   C     C_R   0.999528 0.999946 0.611437 0.852893
C55   C     C_R   0.499528 0.499946 0.888563 0.852893
C56   C     C_R   0.640217 0.359819 0.250002 0.788340
C57   C     C_R   0.500472 0.499946 0.111437 0.852892
C58   C     C_2   0.001683 0.059730 0.528131 -0.163329
C59   C     C_2   0.998317 0.059730 0.471869 -0.163328
C60   C     C_2   0.498317 0.559730 0.028131 -0.163328
C61   C     C_2   0.501683 0.559730 0.971869 -0.163329
C62   C     C_2   0.995910 0.998698 0.556021 -0.294200
C63   C     C_2   0.004090 0.998698 0.443979 -0.294200
C64   C     C_2   0.504090 0.498698 0.056021 -0.294200
C65   C     C_2   0.495910 0.498698 0.943979 -0.294201
C66   C     C_R   0.743408 0.190071 0.217210 -0.191648
C67   C     C_R   0.359783 0.359819 0.749998 0.788341
C68   C     C_R   0.743403 0.190066 0.782785 -0.191674
C69   C     C_R   0.256597 0.190066 0.217215 -0.191673
C70   C     C_R   0.256592 0.190071 0.782790 -0.191647
C71   C     C_R   0.243403 0.690066 0.717215 -0.191674
C72   C     C_R   0.243408 0.690071 0.282790 -0.191648
C73   C     C_R   0.756592 0.690071 0.717210 -0.191647
C74   C     C_R   0.756597 0.690066 0.282785 -0.191673
C75   C     C_R   0.190002 0.743505 0.717216 -0.190455
C76   C     C_R   0.190007 0.743510 0.282789 -0.190649
C77   C     C_R   0.809993 0.743510 0.717210 -0.190648
C78   C     C_R   0.359783 0.359819 0.250003 0.788603
C79   C     C_R   0.809998 0.743505 0.282784 -0.190454
C80   C     C_R   0.690007 0.243510 0.217211 -0.190649
C81   C     C_R   0.690002 0.243505 0.782784 -0.190455
C82   C     C_R   0.309998 0.243505 0.217216 -0.190454
C83   C     C_R   0.309993 0.243510 0.782789 -0.190648
C84   C     C_R   0.196319 0.803708 0.750022 0.008387
C85   C     C_R   0.196319 0.803709 0.249979 0.008525
C86   C     C_R   0.803681 0.803709 0.750021 0.008525
C87   C     C_R   0.803681 0.803708 0.249978 0.008386
C88   C     C_R   0.696319 0.303709 0.250021 0.008525
C89   C     C_R   0.256592 0.809907 0.782831 -0.191691
C90   C     C_R   0.696319 0.303708 0.749978 0.008387
C91   C     C_R   0.303681 0.303708 0.250022 0.008386
C92   C     C_R   0.303681 0.303709 0.749979 0.008525
H1    H     H_    0.008024 0.112160 0.546927 0.174407
H2    H     H_    0.237445 0.644030 0.308446 0.160369
H3    H     H_    0.762555 0.644030 0.691554 0.160370
H4    H     H_    0.762563 0.644021 0.308437 0.160389
H5    H     H_    0.143888 0.737620 0.691559 0.161191
H6    H     H_    0.143897 0.737629 0.308449 0.161112
H7    H     H_    0.856103 0.737630 0.691550 0.161112
H8    H     H_    0.856112 0.737621 0.308441 0.161192
H9    H     H_    0.643897 0.237629 0.191550 0.161112
H10   H     H_    0.643888 0.237620 0.808440 0.161191
H11   H     H_    0.356112 0.237620 0.191559 0.161192
H12   H     H_    0.991976 0.112161 0.453073 0.174406
H13   H     H_    0.356103 0.237630 0.808450 0.161112
H14   H     H_    0.262557 0.855953 0.808483 0.160239
H15   H     H_    0.262550 0.855945 0.191509 0.160212
H16   H     H_    0.737450 0.855945 0.808491 0.160213
H17   H     H_    0.737443 0.855952 0.191517 0.160240
H18   H     H_    0.762550 0.355945 0.308490 0.160212
H19   H     H_    0.762557 0.355953 0.691517 0.160239
H20   H     H_    0.237443 0.355952 0.308483 0.160240
H21   H     H_    0.237450 0.355945 0.691509 0.160213
H22   H     H_    0.856099 0.262343 0.308496 0.160314
H23   H     H_    0.491976 0.612161 0.046927 0.174406
H24   H     H_    0.856107 0.262350 0.691511 0.160510
H25   H     H_    0.143893 0.262350 0.308489 0.160510
H26   H     H_    0.143901 0.262342 0.691504 0.160314
H27   H     H_    0.356107 0.762350 0.808489 0.160510
H28   H     H_    0.356099 0.762343 0.191504 0.160314
H29   H     H_    0.643901 0.762342 0.808496 0.160314
H30   H     H_    0.643893 0.762350 0.191511 0.160510
H31   H     H_    0.986736 0.945861 0.538874 0.149141
H32   H     H_    0.013264 0.945861 0.461126 0.149141
H33   H     H_    0.513264 0.445861 0.038874 0.149141
H34   H     H_    0.508024 0.612160 0.953073 0.174407
H35   H     H_    0.486736 0.445861 0.961126 0.149141
H36   H     H_    0.882197 0.000019 0.046806 0.158029
H37   H     H_    0.882197 0.000019 0.953193 0.158029
H38   H     H_    0.117803 0.999960 0.046806 0.158029
H39   H     H_    0.117803 0.999960 0.953193 0.158029
H40   H     H_    0.382198 0.500023 0.546806 0.158029
H41   H     H_    0.382198 0.500023 0.453193 0.158029
H42   H     H_    0.617803 0.499957 0.546806 0.158029
H43   H     H_    0.617803 0.499957 0.453193 0.158029
H44   H     H_    0.737445 0.144030 0.191554 0.160369
H45   H     H_    0.737436 0.144021 0.808437 0.160388
H46   H     H_    0.262563 0.144021 0.191562 0.160389
H47   H     H_    0.262555 0.144030 0.808446 0.160370
H48   H     H_    0.237436 0.644021 0.691562 0.160388
O1    O     O_3   1.000000 0.000000 0.250030 -0.472787
O2    O     O_R   0.585480 0.353820 0.219950 -0.649050
O3    O     O_R   0.414520 0.353820 0.780050 -0.649050
O4    O     O_R   0.414520 0.353820 0.219950 -0.648674
O5    O     O_R   0.914530 0.146170 0.280090 -0.649912
O6    O     O_R   0.914530 0.146170 0.719910 -0.649591
O7    O     O_R   0.085470 0.146170 0.280090 -0.649591
O8    O     O_R   0.085470 0.146170 0.719910 -0.649912
O9    O     O_R   0.414530 0.646170 0.780090 -0.649591
O10   O     O_R   0.414530 0.646170 0.219910 -0.649912
O11   O     O_R   0.585470 0.646170 0.780090 -0.649912
O12   O     O_3   0.000000 0.000000 0.749970 -0.472787
O13   O     O_R   0.585470 0.646170 0.219910 -0.649591
O14   O     O_R   0.146180 0.085440 0.219990 -0.649120
O15   O     O_R   0.146180 0.085440 0.780010 -0.649053
O16   O     O_R   0.853820 0.085440 0.219990 -0.649054
O17   O     O_R   0.853820 0.085440 0.780010 -0.649121
O18   O     O_R   0.646180 0.585440 0.719990 -0.649053
O19   O     O_R   0.646180 0.585440 0.280010 -0.649119
O20   O     O_R   0.353820 0.585440 0.719990 -0.649121
O21   O     O_R   0.353820 0.585440 0.280010 -0.649054
O22   O     O_R   0.853820 0.914550 0.219980 -0.649212
O23   O     O_3   0.500000 0.500000 0.750030 -0.472787
O24   O     O_R   0.853820 0.914550 0.780020 -0.649192
O25   O     O_R   0.146180 0.914550 0.219980 -0.649193
O26   O     O_R   0.146180 0.914550 0.780020 -0.649213
O27   O     O_R   0.353820 0.414550 0.719980 -0.649192
O28   O     O_R   0.353820 0.414550 0.280020 -0.649212
O29   O     O_R   0.646180 0.414550 0.719980 -0.649213
O30   O     O_R   0.646180 0.414550 0.280020 -0.649193
O31   O     O_R   0.060720 0.999990 0.135450 -0.645907
O32   O     O_R   0.060720 0.999990 0.864550 -0.645914
O33   O     O_R   0.939280 0.999990 0.135450 -0.645914
O34   O     O_3   0.500000 0.500000 0.249970 -0.472787
O35   O     O_R   0.939280 0.999990 0.864550 -0.645907
O36   O     O_R   0.560720 0.499990 0.635450 -0.645914
O37   O     O_R   0.560720 0.499990 0.364550 -0.645907
O38   O     O_R   0.439280 0.499990 0.635450 -0.645907
O39   O     O_R   0.439280 0.499990 0.364550 -0.645913
O40   O     O_R   1.000000 0.939270 0.364600 -0.645935
O41   O     O_R   0.000000 0.939270 0.635400 -0.645935
O42   O     O_R   0.500000 0.439270 0.864600 -0.645935
O43   O     O_R   0.500000 0.439270 0.135400 -0.645935
O44   O     O_R   0.000000 0.060730 0.364620 -0.643494
O45   O     O_R   0.085480 0.853820 0.280050 -0.649050
O46   O     O_R   0.000000 0.060730 0.635380 -0.643494
O47   O     O_R   0.500000 0.560730 0.864620 -0.643494
O48   O     O_R   0.500000 0.560730 0.135380 -0.643494
O49   O     O_R   0.085480 0.853820 0.719950 -0.648674
O50   O     O_R   0.914520 0.853820 0.280050 -0.648674
O51   O     O_R   0.914520 0.853820 0.719950 -0.649050
O52   O     O_R   0.585480 0.353820 0.780050 -0.648674
Zn1   Zn    Zn3+2 0.000000 0.086760 0.292960 0.964116
Zn2   Zn    Zn3+2 0.586770 0.499990 0.292890 0.964439
Zn3   Zn    Zn3+2 0.413230 0.499990 0.707110 0.964439
Zn4   Zn    Zn3+2 0.413230 0.499990 0.292890 0.964562
Zn5   Zn    Zn3+2 1.000000 0.913240 0.292940 0.966735
Zn6   Zn    Zn3+2 1.000000 0.913240 0.707060 0.966735
Zn7   Zn    Zn3+2 0.500000 0.413240 0.792940 0.966735
Zn8   Zn    Zn3+2 0.500000 0.413240 0.207060 0.966735
Zn9   Zn    Zn3+2 1.000000 0.086760 0.707040 0.964116
Zn10  Zn    Zn3+2 0.500000 0.586760 0.792960 0.964116
Zn11  Zn    Zn3+2 0.500000 0.586760 0.207040 0.964116
Zn12  Zn    Zn3+2 0.086770 0.999990 0.207110 0.964439
Zn13  Zn    Zn3+2 0.086770 0.999990 0.792890 0.964562
Zn14  Zn    Zn3+2 0.913230 0.999990 0.207110 0.964562
Zn15  Zn    Zn3+2 0.913230 0.999990 0.792890 0.964439
Zn16  Zn    Zn3+2 0.586770 0.499990 0.707110 0.964562

loop_
_geom_bond_atom_site_label_1
_geom_bond_atom_site_label_2
_ccdc_geom_bond_type
O49   Zn6   S    
C58   C62   D    
O19   Zn2   S    
C39   C51   S    
C48   O13   A    
O23   Zn10  S    
O34   Zn4   S    
C8    C13   A    
C16   C25   A    
C6    H19   S    
C2    H15   S    
O12   Zn15  S    
O17   Zn15  S    
O51   Zn6   S    
O35   Zn15  S    
C4    H17   S    
C67   O3    A    
C78   O28   A    
O29   Zn16  S    
C49   O33   A    
C63   H32   S    
C10   H24   S    
C4    C87   A    
C7    H20   S    
C7    C11   A    
C83   C92   A    
O47   Zn10  S    
C50   O32   A    
C33   C39   A    
C40   O5    A    
C17   C26   A    
C65   H35   S    
O32   Zn13  S    
C42   O14   A    
O25   Zn12  S    
O6    Zn9   S    
C34   O24   A    
C12   O26   A    
C32   H41   S    
C75   C84   A    
C56   C88   S    
C38   C52   S    
C5    H18   S    
C42   O7    A    
C76   H6    S    
O44   Zn1   S    
O23   Zn16  S    
C75   H5    S    
C15   H28   S    
C12   C84   S    
C2    C85   A    
C28   H37   S    
C34   C86   S    
O52   Zn7   S    
O31   Zn12  S    
C18   C40   S    
C52   O37   A    
C67   C92   S    
C57   O48   A    
C43   O8    A    
C26   C74   A    
O1    Zn14  S    
C5    C88   A    
C33   H42   S    
C22   C44   S    
C41   O6    A    
C31   C32   A    
C46   O21   A    
C30   C36   A    
C89   H14   S    
C82   H11   S    
O1    Zn12  S    
O7    Zn1   S    
O33   Zn14  S    
C8    C92   A    
O26   Zn13  S    
C32   C38   A    
C51   O38   A    
O16   Zn14  S    
C25   C47   S    
O5    Zn1   S    
C72   C76   A    
O39   Zn4   S    
C23   O22   A    
C56   O2    A    
O23   Zn7   S    
C70   H47   S    
C3    H16   S    
C21   C43   S    
O22   Zn14  S    
C3    C86   A    
C68   H45   S    
O1    Zn5   S    
O10   Zn11  S    
C17   H30   S    
C43   O15   A    
O41   Zn6   S    
C79   C87   A    
C62   H31   S    
C55   C65   S    
O3    Zn7   S    
O8    Zn9   S    
C13   H26   S    
C81   H10   S    
C1    C85   S    
C48   O19   A    
C11   C20   A    
O37   Zn2   S    
O12   Zn6   S    
O34   Zn8   S    
C14   H27   S    
C74   H4    S    
O12   Zn13  S    
C35   C38   A    
C53   O44   A    
C35   H43   S    
O30   Zn2   S    
C54   C62   S    
C58   C59   S    
C6    C90   A    
C82   C91   A    
C83   H13   S    
O21   Zn4   S    
C60   C61   S    
C4    C17   A    
C16   H29   S    
C14   C89   A    
C5    C9    A    
C31   H40   S    
C70   C83   A    
C78   O4    A    
C37   C49   S    
C27   H36   S    
C79   H8    S    
C45   O52   A    
O14   Zn12  S    
C29   H38   S    
O4    Zn8   S    
O23   Zn3   S    
C10   C19   A    
C7    C91   A    
C54   O41   A    
C13   C21   A    
C19   C68   A    
O1    Zn1   S    
C2    C15   A    
C72   H2    S    
C61   H34   S    
C8    H21   S    
O20   Zn3   S    
C41   O17   A    
C81   C90   A    
C15   C24   A    
C46   O10   A    
C47   O11   A    
C77   C86   A    
O34   Zn2   S    
C55   O47   A    
C74   C79   A    
C12   O49   A    
C54   O46   A    
C44   O20   A    
C66   H44   S    
O12   Zn9   S    
C84   C89   A    
C9    H22   S    
O11   Zn10  S    
C11   H25   S    
C53   O40   A    
C22   C71   A    
C57   O43   A    
C36   C50   S    
C24   C72   A    
C57   C64   S    
C49   O31   A    
O40   Zn5   S    
C67   O27   A    
C69   H46   S    
C34   O51   A    
C73   C77   A    
C56   O30   A    
C1    O25   A    
O2    Zn8   S    
C58   H1    S    
O42   Zn7   S    
C44   O9    A    
O15   Zn13  S    
O24   Zn15  S    
C45   O29   A    
C59   H12   S    
C6    C10   A    
C20   C42   S    
C71   H48   S    
C26   C48   S    
C78   C91   S    
C18   C66   A    
C66   C80   A    
O38   Zn3   S    
C21   C70   A    
O48   Zn11  S    
C59   C63   D    
O43   Zn8   S    
C68   C81   A    
C80   H9    S    
C60   C64   D    
O18   Zn16  S    
C1    O45   A    
C14   C22   A    
C19   C41   S    
C52   O39   A    
C24   C46   S    
C80   C88   A    
C71   C75   A    
C53   C63   S    
C69   C82   A    
O36   Zn16  S    
C27   C37   A    
O9    Zn10  S    
O34   Zn11  S    
C33   C35   A    
C55   O42   A    
C31   C39   A    
C77   H7    S    
C25   C73   A    
C50   O35   A    
C51   O36   A    
C20   C69   A    
O46   Zn9   S    
C29   C30   A    
C61   C65   D    
C9    C18   A    
C28   C36   A    
C64   H33   S    
O28   Zn4   S    
C29   C37   A    
C27   C28   A    
C73   H3    S    
O27   Zn3   S    
C40   O16   A    
C60   H23   S    
C23   C87   S    
O45   Zn5   S    
C76   C85   A    
C23   O50   A    
C45   C90   S    
C3    C16   A    
C30   H39   S    
O50   Zn5   S    
O13   Zn11  S    
C47   O18   A    
