data_mof_unit_21277.cif
_audit_creation_date              2012-12-10T18:44:23-0500
_audit_creation_method            fapswitch 2.2
_symmetry_space_group_name_H-M    P1
_symmetry_Int_Tables_number       1
_space_group_crystal_system       triclinic
_cell_length_a                    12.871703
_cell_length_b                    10.654072
_cell_length_c                    9.932371
_cell_angle_alpha                 88.939956
_cell_angle_beta                  97.174076
_cell_angle_gamma                 91.577647
_cell_volume                      1350.75470769

loop_
_atom_site_label
_atom_site_type_symbol
_atom_type_description
_atom_site_fract_x
_atom_site_fract_y
_atom_site_fract_z
_atom_type_partial_charge
C1    C     C_R   0.499394 0.260269 0.500711 0.860500
C2    C     C_R   0.500613 0.739731 0.499288 0.861295
C3    C     C_R   0.501269 0.872291 0.498570 -0.000030
C4    C     C_R   0.498759 0.127711 0.501417 -0.000083
C5    C     C_R   0.561434 0.585097 0.077335 0.231283
C6    C     C_R   0.438624 0.414853 0.922685 0.234973
C7    C     C_R   0.561149 0.583187 0.934364 -0.127858
C8    C     C_R   0.438872 0.416795 0.065643 -0.127403
C9    C     C_R   0.298323 0.497935 0.473060 0.890371
C10   C     C_R   0.701696 0.501210 0.526912 0.893261
C11   C     C_R   0.813986 0.499521 0.543760 -0.117463
C12   C     C_R   0.185952 0.494374 0.455754 -0.077287
C13   C     C_R   0.020977 0.529996 0.319070 0.221333
C14   C     C_R   0.977886 0.456113 0.679413 0.223262
C15   C     C_R   0.129397 0.524807 0.330677 -0.278737
C16   C     C_R   0.870163 0.467957 0.668776 -0.230138
C17   C     C_R   0.135634 0.464200 0.568329 -0.291741
C18   C     C_R   0.864429 0.524304 0.430172 -0.275053
C19   C     C_R   0.028512 0.474606 0.561940 0.074546
C20   C     C_R   0.970861 0.509060 0.436118 0.116686
C21   C     C_R   0.446228 0.064569 0.389928 -0.193155
C22   C     C_R   0.553809 0.935434 0.610052 -0.192944
C23   C     C_R   0.447276 0.935877 0.388713 -0.196383
C24   C     C_R   0.552777 0.064127 0.611255 -0.195840
H1    H     H_    0.819854 0.554801 0.336157 0.190392
H2    H     H_    0.181414 0.436283 0.662156 0.165741
H3    H     H_    0.830483 0.450327 0.757544 0.169297
H4    H     H_    0.169213 0.545996 0.242758 0.158008
H5    H     H_    0.403812 0.114610 0.305183 0.142494
H6    H     H_    0.596225 0.885392 0.694797 0.142738
H7    H     H_    0.404521 0.886151 0.304189 0.145477
H8    H     H_    0.595561 0.113855 0.695754 0.146310
H9    H     H_    0.610186 0.648848 0.884646 0.146011
H10   H     H_    0.389860 0.351103 0.115363 0.145883
N1    N     N_R   0.499970 0.499970 0.857200 -0.117476
N2    N     N_R   0.500030 0.500030 0.142800 -0.117344
O1    O     O_R   0.499990 0.316750 0.614620 -0.628706
O2    O     O_R   0.500010 0.683250 0.385380 -0.628716
O3    O     O_R   0.499990 0.316780 0.385290 -0.619160
O4    O     O_R   0.500010 0.683220 0.614710 -0.619158
O5    O     O_R   0.346360 0.499970 0.595710 -0.642818
O6    O     O_R   0.653640 0.500030 0.404290 -0.642235
O7    O     O_R   0.346360 0.499990 0.366380 -0.623389
O8    O     O_R   0.653640 0.500010 0.633620 -0.623664
Zn1   Zn    Zn3+2 0.500000 0.499980 0.653120 0.930991
Zn2   Zn    Zn3+2 0.500000 0.500020 0.346880 0.931498
N3    N     N_2   0.963352 0.560814 0.191395 -0.330621
H11   H     H_    0.003471 0.619966 0.131523 0.225132
C25   C     C_3   0.915114 0.453744 0.118034 -0.796312
H12   H     H_    0.868525 0.486566 0.022885 0.243980
H13   H     H_    0.861628 0.400908 0.179363 0.249223
H14   H     H_    0.976083 0.389680 0.092153 0.259557
N4    N     N_2   0.033117 0.426429 0.808754 -0.315649
H15   H     H_    0.082138 0.351468 0.809399 0.213535
C26   C     C_3   0.081077 0.534018 0.881249 -0.824513
H16   H     H_    0.118075 0.503573 0.983105 0.237455
H17   H     H_    0.020928 0.604283 0.893517 0.255475
H18   H     H_    0.142629 0.578787 0.826154 0.246506
C27   C     C_3   0.631644 0.684154 0.151219 -0.395620
C28   C     C_3   0.590941 0.815882 0.117319 -0.875086
H19   H     H_    0.598207 0.841661 0.009998 0.244810
H20   H     H_    0.507472 0.820551 0.133786 0.269373
H21   H     H_    0.637338 0.885337 0.183627 0.257335
H22   H     H_    0.640405 0.671202 0.261193 0.265274
H23   H     H_    0.711857 0.678077 0.121640 0.183997
C29   C     C_3   0.368589 0.315630 0.848858 -0.401122
C30   C     C_3   0.409593 0.184032 0.882688 -0.873664
H24   H     H_    0.493075 0.179657 0.866210 0.270034
H25   H     H_    0.402398 0.158173 0.990009 0.244626
H26   H     H_    0.363336 0.114474 0.816367 0.255510
H27   H     H_    0.288430 0.321404 0.878626 0.170226
H28   H     H_    0.359689 0.328653 0.738886 0.264972

loop_
_geom_bond_atom_site_label_1
_geom_bond_atom_site_label_2
_ccdc_geom_bond_type
C12   C17   A    
C26   H16   S    
C24   H8    S    
C11   C18   A    
N2    Zn2   S    
C10   O6    A    
C11   C16   A    
C2    O2    A    
N4    C26   S    
C9    O5    A    
N3    H11   S    
C12   C15   A    
C1    O1    A    
C1    C4    S    
C30   H26   S    
C16   H3    S    
C26   H17   S    
C29   C30   S    
C27   H22   S    
C27   C28   S    
N3    C25   S    
C8    H10   S    
N4    H15   S    
C27   H23   S    
C4    C21   A    
C7    H9    S    
C15   H4    S    
C18   H1    S    
C7    N1    A    
C29   H27   S    
C28   H21   S    
C17   H2    S    
C10   O8    A    
C22   C24   A    
C13   N3    S    
C17   C19   A    
O5    Zn1   S    
O3    Zn2   S    
C2    C3    S    
C10   C11   S    
C13   C15   A    
C21   C23   A    
C8    N2    A    
O4    Zn1   S    
C4    C24   A    
O7    Zn2   S    
C14   C16   A    
O2    Zn2   S    
C9    O7    A    
C9    C12   S    
C1    O3    A    
O1    Zn1   S    
C30   H24   S    
N1    Zn1   S    
C5    N2    A    
C2    O4    A    
C6    C29   S    
C14   N4    S    
C6    N1    A    
C18   C20   A    
C28   H20   S    
C25   H12   S    
O6    Zn2   S    
C26   H18   S    
C5    C7    A    
C5    C27   S    
C3    C22   A    
C6    C8    A    
C22   H6    S    
C13   C20   A    
C30   H25   S    
C3    C23   A    
C21   H5    S    
C14   C19   A    
C29   H28   S    
O8    Zn1   S    
C19   C20   A    
C25   H14   S    
C28   H19   S    
C25   H13   S    
C23   H7    S    
