data_mof_unit_63362.cif
_audit_creation_date              2012-10-26T20:11:59-0400
_audit_creation_method            fapswitch 2.2
_symmetry_space_group_name_H-M    P1
_symmetry_Int_Tables_number       1
_space_group_crystal_system       triclinic
_cell_length_a                    12.933729
_cell_length_b                    15.202822
_cell_length_c                    13.939782
_cell_angle_alpha                 89.758264
_cell_angle_beta                  96.507502
_cell_angle_gamma                 92.881313
_cell_volume                      2719.86210427

loop_
_atom_site_label
_atom_site_type_symbol
_atom_type_description
_atom_site_fract_x
_atom_site_fract_y
_atom_site_fract_z
_atom_type_partial_charge
C1    C     C_R   0.498622 0.330080 0.499968 0.553105
C2    C     C_R   0.509863 0.951640 0.501208 0.035223
C3    C     C_R   0.545843 0.572034 0.112541 0.223781
C4    C     C_R   0.454136 0.427979 0.887456 0.223817
C5    C     C_R   0.558070 0.563182 0.213971 0.234574
C6    C     C_R   0.441901 0.436841 0.786028 0.234607
C7    C     C_R   0.428456 0.447162 0.202146 0.370576
C8    C     C_R   0.571552 0.552827 0.797857 0.370694
C9    C     C_R   0.418395 0.453726 0.100253 0.249864
C10   C     C_R   0.581605 0.546265 0.899750 0.249879
C11   C     C_R   0.493200 0.504615 0.054014 0.010998
C12   C     C_R   0.501326 0.669913 0.500007 0.553107
C13   C     C_R   0.506790 0.495387 0.945986 0.011007
C14   C     C_R   0.301152 0.509178 0.481616 0.566415
C15   C     C_R   0.698853 0.490832 0.518383 0.566440
C16   C     C_R   0.812017 0.477873 0.529466 -0.053753
C17   C     C_R   0.187999 0.522174 0.470532 -0.053750
C18   C     C_R   0.020666 0.525141 0.372051 0.263977
C19   C     C_R   0.979350 0.474987 0.627962 0.263946
C20   C     C_R   0.129913 0.533577 0.379420 0.111051
C21   C     C_R   0.870104 0.466495 0.620581 0.111079
C22   C     C_R   0.136016 0.524249 0.553733 0.103076
C23   C     C_R   0.492981 0.233767 0.499355 -0.004476
C24   C     C_R   0.864010 0.475837 0.446266 0.103059
C25   C     C_R   0.029053 0.500904 0.546313 -0.034877
C26   C     C_R   0.970962 0.499220 0.453697 -0.034873
C27   C     C_R   0.487623 0.095606 0.584173 -0.087986
C28   C     C_R   0.510236 0.904056 0.414858 -0.088225
C29   C     C_R   0.494065 0.186907 0.585664 -0.102262
C30   C     C_R   0.504211 0.812774 0.413806 -0.102574
C31   C     C_R   0.506636 0.766215 0.500378 -0.004506
C32   C     C_R   0.475021 0.187988 0.411856 -0.067255
C33   C     C_R   0.525500 0.812317 0.587624 -0.067497
C34   C     C_R   0.465347 0.096306 0.410272 0.083244
C35   C     C_R   0.534663 0.904040 0.588725 0.083245
C36   C     C_R   0.488945 0.048338 0.497733 0.035341
Cl1   Cl    Cl    0.343853 0.371382 0.254515 -0.433113
Cl2   Cl    Cl    0.656159 0.628605 0.745491 -0.433301
Cl3   Cl    Cl    0.294084 0.425392 0.037858 -0.333019
Cl4   Cl    Cl    0.705910 0.574597 0.962151 -0.333060
Cl5   Cl    Cl    0.947647 0.560773 0.264950 -0.390948
Cl6   Cl    Cl    0.052374 0.439430 0.735087 -0.390944
Cl7   Cl    Cl    0.557436 0.680110 0.065385 -0.425352
Cl8   Cl    Cl    0.442544 0.319893 0.934598 -0.425232
Cu1   Cu    Cu3+1 0.500000 0.499990 0.596430 1.104369
Cu2   Cu    Cu3+1 0.500000 0.500010 0.403570 1.104125
H1    H     H_    0.477650 0.063100 0.651211 0.171956
H2    H     H_    0.519458 0.936193 0.347535 0.172166
H3    H     H_    0.498593 0.220462 0.654487 0.178216
H4    H     H_    0.499025 0.778992 0.345065 0.178123
H5    H     H_    0.461145 0.223572 0.344571 0.203572
H6    H     H_    0.540410 0.776988 0.654961 0.203658
I1    I     I_    0.794281 0.395912 0.326501 -0.105853
I2    I     I_    0.205778 0.604221 0.673442 -0.105786
I3    I     I_    0.798514 0.419328 0.744172 -0.016889
I4    I     I_    0.201516 0.580673 0.255808 -0.017441
I5    I     I_    0.375732 0.047840 0.281007 -0.161468
I6    I     I_    0.624785 0.953622 0.717210 -0.162484
I7    I     I_    0.672592 0.651150 0.290182 -0.047749
I8    I     I_    0.327284 0.348953 0.709831 -0.048270
N1    N     N_R   0.500000 0.500020 0.258690 -0.290189
N2    N     N_R   0.500000 0.499980 0.741310 -0.290117
O1    O     O_R   0.500010 0.371450 0.581430 -0.509325
O2    O     O_R   0.499990 0.628550 0.418570 -0.509564
O3    O     O_R   0.500010 0.371460 0.418560 -0.470657
O4    O     O_R   0.499990 0.628540 0.581440 -0.470320
O5    O     O_R   0.349000 0.499980 0.568210 -0.475624
O6    O     O_R   0.651000 0.500020 0.431790 -0.475604
O7    O     O_R   0.349000 0.499990 0.405340 -0.451980
O8    O     O_R   0.651000 0.500010 0.594660 -0.451967

loop_
_geom_bond_atom_site_label_1
_geom_bond_atom_site_label_2
_ccdc_geom_bond_type
C2    C35   A    
Cu1   O5    S    
C34   I5    S    
C1    O3    A    
C14   O5    A    
C31   C33   A    
C32   H5    S    
Cu2   O6    S    
C16   C21   A    
C27   C36   A    
C27   C29   A    
C11   C13   S    
C34   C36   A    
C17   C22   A    
C18   C26   A    
C19   Cl6   S    
C20   I4    S    
C23   C32   A    
C6    N2    A    
C28   C30   A    
C25   C26   A    
C3    C5    A    
C5    N1    A    
C10   C13   A    
C16   C24   A    
C29   H3    S    
Cu1   Cu2   S    
C33   H6    S    
C9    C11   A    
C14   C17   S    
C3    Cl7   S    
C23   C29   A    
C4    C13   A    
C8    Cl2   S    
C35   I6    S    
C19   C25   A    
C15   O6    A    
C1    O1    A    
Cu1   O8    S    
C10   Cl4   S    
C33   C35   A    
C24   C26   A    
C1    C23   S    
C18   C20   A    
C22   I2    S    
C12   C31   S    
C30   H4    S    
C30   C31   A    
C12   O2    A    
C14   O7    A    
C3    C11   A    
C5    I7    S    
Cu2   N1    S    
C27   H1    S    
C15   C16   S    
C6    I8    S    
Cu1   N2    S    
C9    Cl3   S    
C17   C20   A    
Cu2   O3    S    
C4    C6    A    
C18   Cl5   S    
C2    C36   S    
Cu1   O4    S    
C21   I3    S    
C15   O8    A    
C7    C9    A    
C7    N1    A    
Cu2   O7    S    
C2    C28   A    
C4    Cl8   S    
C19   C21   A    
C24   I1    S    
C12   O4    A    
Cu1   O1    S    
C8    C10   A    
C28   H2    S    
C8    N2    A    
Cu2   O2    S    
C7    Cl1   S    
C22   C25   A    
C32   C34   A    
