data_mof_unit_54945.cif
_audit_creation_date              2012-12-10T18:04:44-0500
_audit_creation_method            fapswitch 2.2
_symmetry_space_group_name_H-M    P1
_symmetry_Int_Tables_number       1
_space_group_crystal_system       triclinic
_cell_length_a                    19.516945
_cell_length_b                    17.621604
_cell_length_c                    12.622108
_cell_angle_alpha                 90.332048
_cell_angle_beta                  98.966303
_cell_angle_gamma                 89.773166
_cell_volume                      4287.85509823

loop_
_atom_site_label
_atom_site_type_symbol
_atom_type_description
_atom_site_fract_x
_atom_site_fract_y
_atom_site_fract_z
_atom_type_partial_charge
C1    C     C_R   0.408353 0.099574 0.442091 0.865487
C2    C     C_R   0.688794 0.685017 0.576534 0.066497
C3    C     C_R   0.280814 0.711869 0.641012 0.066537
C4    C     C_R   0.188795 0.185019 0.576532 0.066488
C5    C     C_R   0.349345 0.738073 0.660564 0.350029
C6    C     C_R   0.218103 0.112554 0.570324 0.338653
C7    C     C_R   0.849356 0.238050 0.660533 0.350038
C8    C     C_R   0.718103 0.612552 0.570329 0.338651
C9    C     C_R   0.375878 0.776746 0.580818 -0.227315
C10   C     C_R   0.271711 0.102161 0.510691 -0.248322
C11   C     C_R   0.875881 0.276733 0.580790 -0.227319
C12   C     C_R   0.410952 0.897572 0.443519 0.853307
C13   C     C_R   0.771711 0.602158 0.510694 -0.248327
C14   C     C_R   0.672704 0.194804 0.520010 -0.195402
C15   C     C_R   0.684859 0.817666 0.526748 -0.217266
C16   C     C_R   0.172708 0.694800 0.520007 -0.195386
C17   C     C_R   0.184862 0.317670 0.526755 -0.217271
C18   C     C_R   0.686488 0.141562 0.697869 -0.221445
C19   C     C_R   0.607089 0.770992 0.642102 -0.207806
C20   C     C_R   0.186474 0.641581 0.697879 -0.221448
C21   C     C_R   0.107088 0.270991 0.642099 -0.207797
C22   C     C_R   0.358299 0.841098 0.406968 -0.132018
C23   C     C_R   0.908352 0.599573 0.442090 0.865483
C24   C     C_R   0.355702 0.156270 0.405336 -0.139866
C25   C     C_R   0.858288 0.341113 0.406961 -0.131988
C26   C     C_R   0.855699 0.656267 0.405333 -0.139873
C27   C     C_R   0.642569 0.002362 0.131112 -0.339418
C28   C     C_R   0.142568 0.502371 0.131110 -0.339395
C29   C     C_R   0.378679 0.998092 0.762252 0.064517
C30   C     C_R   0.878679 0.498092 0.762252 0.064501
C31   C     C_R   0.352648 0.996740 0.858349 -0.191683
C32   C     C_R   0.852648 0.496743 0.858348 -0.191675
C33   C     C_R   0.588864 0.897348 0.555976 0.850607
C34   C     C_R   0.910949 0.397575 0.443517 0.853298
C35   C     C_R   0.590538 0.100595 0.557465 0.862935
C36   C     C_R   0.088864 0.397349 0.555976 0.850610
C37   C     C_R   0.090537 0.600596 0.557464 0.862939
C38   C     C_R   0.398581 0.997172 0.954296 -0.198708
C39   C     C_R   0.898581 0.497175 0.954296 -0.198708
C40   C     C_R   0.471045 0.998654 0.953809 0.038333
C41   C     C_R   0.971045 0.498655 0.953809 0.038316
C42   C     C_R   0.494675 0.999766 0.853582 0.237437
C43   C     C_R   0.994675 0.499767 0.853582 0.237438
C44   C     C_R   0.520838 0.999147 0.047957 -0.002668
C45   C     C_R   0.740407 0.222239 0.537686 0.042115
C46   C     C_R   0.020838 0.499149 0.047956 -0.002665
C47   C     C_R   0.592643 0.000718 0.039625 0.151226
C48   C     C_R   0.092643 0.500723 0.039624 0.151214
C49   C     C_R   0.614208 0.000834 0.939949 -0.268105
C50   C     C_R   0.114208 0.500839 0.939948 -0.268110
C51   C     C_R   0.565669 0.000303 0.848174 -0.197120
C52   C     C_R   0.065669 0.500304 0.848173 -0.197120
C53   C     C_R   0.502519 0.998216 0.150694 -0.102431
C54   C     C_R   0.002519 0.498214 0.150694 -0.102418
C55   C     C_R   0.621305 0.003509 0.231159 0.363370
C56   C     C_R   0.710832 0.745068 0.515077 0.050484
C57   C     C_R   0.121305 0.503516 0.231158 0.363364
C58   C     C_R   0.752111 0.173577 0.721241 -0.123629
C59   C     C_R   0.637480 0.699288 0.641335 -0.121270
C60   C     C_R   0.252095 0.673603 0.721260 -0.123632
C61   C     C_R   0.137479 0.199288 0.641330 -0.121259
C62   C     C_R   0.648268 0.149975 0.595504 -0.044991
C63   C     C_R   0.630030 0.829524 0.582059 -0.056242
C64   C     C_R   0.148265 0.649979 0.595503 -0.045007
C65   C     C_R   0.130031 0.329525 0.582060 -0.056242
C66   C     C_R   0.324043 0.844655 0.301041 -0.191577
C67   C     C_R   0.240410 0.722238 0.537694 0.042114
C68   C     C_R   0.369559 0.210145 0.330042 -0.205860
C69   C     C_R   0.824013 0.344701 0.301048 -0.191611
C70   C     C_R   0.869554 0.710140 0.330035 -0.205862
C71   C     C_R   0.262406 0.805216 0.270316 0.277079
C72   C     C_R   0.326054 0.272773 0.306678 0.281371
C73   C     C_R   0.762371 0.305272 0.270329 0.277056
C74   C     C_R   0.826046 0.772765 0.306665 0.281370
C75   C     C_R   0.234201 0.764214 0.347609 -0.252944
C76   C     C_R   0.272607 0.284679 0.366829 -0.242490
C77   C     C_R   0.734175 0.264253 0.347614 -0.252916
C78   C     C_R   0.210835 0.245072 0.515081 0.050490
C79   C     C_R   0.772598 0.784670 0.366816 -0.242488
C80   C     C_R   0.268833 0.759143 0.455145 0.068910
C81   C     C_R   0.259420 0.231723 0.445303 0.063748
C82   C     C_R   0.768822 0.259156 0.455138 0.068907
C83   C     C_R   0.759415 0.731718 0.445297 0.063749
C84   C     C_R   0.334804 0.792207 0.481092 0.021205
C85   C     C_R   0.295782 0.162689 0.453798 0.023515
C86   C     C_R   0.834799 0.292211 0.481077 0.021201
C87   C     C_R   0.795780 0.662684 0.453796 0.023515
C88   C     C_3   0.204323 0.881275 0.122905 -0.745270
C89   C     C_R   0.780823 0.211852 0.640992 0.066533
C90   C     C_3   0.336128 0.297804 0.120920 -0.764335
C91   C     C_3   0.704136 0.381386 0.123126 -0.745294
C92   C     C_3   0.836112 0.797790 0.120904 -0.764335
C93   C     C_3   0.730194 0.053689 0.329525 -0.804882
C94   C     C_3   0.230220 0.553663 0.329500 -0.804980
Cl1   Cl    Cl    0.404366 0.724484 0.783864 -0.636734
Cl2   Cl    Cl    0.190631 0.033426 0.637446 -0.668447
Cl3   Cl    Cl    0.904389 0.224441 0.783817 -0.636738
Cl4   Cl    Cl    0.690632 0.533426 0.637455 -0.668457
H1    H     H_    0.667558 0.106778 0.757446 0.149680
H2    H     H_    0.949674 0.496373 0.165263 0.137276
H3    H     H_    0.343566 0.997125 0.687155 0.172176
H4    H     H_    0.843566 0.497125 0.687155 0.172178
H5    H     H_    0.375847 0.996146 0.026756 0.137242
H6    H     H_    0.875847 0.496152 0.026756 0.137278
H7    H     H_    0.297220 0.995225 0.858529 0.192645
H8    H     H_    0.797220 0.495229 0.858529 0.192660
H9    H     H_    0.585159 0.000389 0.773865 0.208357
H10   H     H_    0.085158 0.500390 0.773865 0.208358
H11   H     H_    0.781113 0.164898 0.800542 0.195971
H12   H     H_    0.563846 0.779664 0.685251 0.187099
H13   H     H_    0.618773 0.654976 0.688342 0.208499
H14   H     H_    0.281089 0.664936 0.800570 0.195975
H15   H     H_    0.118770 0.154975 0.688334 0.208509
H16   H     H_    0.638255 0.203949 0.445839 0.147652
H17   H     H_    0.705254 0.866151 0.490630 0.133016
H18   H     H_    0.138265 0.703938 0.445828 0.147672
H19   H     H_    0.205259 0.366156 0.490642 0.133002
H20   H     H_    0.344133 0.880085 0.243195 0.159705
H21   H     H_    0.415477 0.204897 0.292093 0.165094
H22   H     H_    0.844085 0.380151 0.243205 0.159703
H23   H     H_    0.167539 0.606804 0.757459 0.149694
H24   H     H_    0.915471 0.704892 0.292084 0.165100
H25   H     H_    0.685740 0.236266 0.320129 0.124637
H26   H     H_    0.740272 0.833964 0.347784 0.118895
H27   H     H_    0.185775 0.736211 0.320122 0.124639
H28   H     H_    0.240284 0.333977 0.347801 0.118908
H29   H     H_    0.429605 0.794217 0.597523 0.186100
H30   H     H_    0.293298 0.045716 0.507067 0.183438
H31   H     H_    0.929610 0.294202 0.597486 0.186087
H32   H     H_    0.793298 0.545713 0.507073 0.183437
H33   H     H_    0.191086 0.765707 0.142493 0.223570
H34   H     H_    0.063842 0.279662 0.685245 0.187111
H35   H     H_    0.178474 0.876310 0.038321 0.250329
H36   H     H_    0.248459 0.921064 0.125044 0.234749
H37   H     H_    0.166461 0.904585 0.171959 0.244118
H38   H     H_    0.312880 0.377703 0.231480 0.219513
H39   H     H_    0.347869 0.344111 0.067265 0.243171
H40   H     H_    0.283347 0.275739 0.090936 0.244619
H41   H     H_    0.374994 0.251978 0.118005 0.243676
H42   H     H_    0.691084 0.265763 0.142475 0.223585
H43   H     H_    0.678316 0.376490 0.038518 0.250335
H44   H     H_    0.748202 0.421288 0.125409 0.234786
H45   H     H_    0.668862 0.001676 0.932788 0.154884
H46   H     H_    0.666215 0.404519 0.172213 0.244124
H47   H     H_    0.812868 0.877692 0.231462 0.219517
H48   H     H_    0.847852 0.844094 0.067245 0.243174
H49   H     H_    0.783331 0.775725 0.090925 0.244616
H50   H     H_    0.874977 0.751962 0.117989 0.243678
H51   H     H_    0.683299 0.951615 0.355932 0.215100
H52   H     H_    0.770200 0.025539 0.289119 0.224023
H53   H     H_    0.752981 0.065236 0.414227 0.258401
H54   H     H_    0.714934 0.108465 0.289746 0.246297
H55   H     H_    0.183272 0.451634 0.355973 0.215161
H56   H     H_    0.168861 0.501683 0.932787 0.154887
H57   H     H_    0.270221 0.525461 0.289139 0.224031
H58   H     H_    0.252999 0.565242 0.414197 0.258422
H59   H     H_    0.214993 0.608427 0.289661 0.246310
H60   H     H_    0.697251 0.002624 0.124434 0.159856
H61   H     H_    0.197250 0.502637 0.124430 0.159875
H62   H     H_    0.449674 0.996380 0.165263 0.137274
N1    N     N_R   0.552340 0.000000 0.237260 -0.124569
N2    N     N_2   0.170450 0.504950 0.326891 -0.260108
N3    N     N_R   0.052340 0.500000 0.237260 -0.124582
N4    N     N_R   0.448170 0.000000 0.762060 -0.142114
N5    N     N_R   0.948170 0.500000 0.762060 -0.142113
N6    N     N_2   0.228160 0.807179 0.161992 -0.302777
N7    N     N_2   0.339219 0.326984 0.228975 -0.306096
N8    N     N_2   0.728101 0.307289 0.162025 -0.302801
N9    N     N_2   0.839207 0.826973 0.228958 -0.306093
N10   N     N_2   0.670449 0.004936 0.326893 -0.260091
O1    O     O_R   0.448200 0.076800 0.373930 -0.621063
O2    O     O_R   0.585240 0.076800 0.457600 -0.584904
O3    O     O_R   0.085240 0.423200 0.457600 -0.608469
O4    O     O_R   0.085240 0.576800 0.457600 -0.584915
O5    O     O_R   0.551780 0.923190 0.626070 -0.635579
O6    O     O_R   0.551780 0.076810 0.626070 -0.631883
O7    O     O_R   0.051780 0.423190 0.626070 -0.635571
O8    O     O_R   0.051780 0.576810 0.626070 -0.631884
O9    O     O_R   0.448200 0.923200 0.373930 -0.613350
O10   O     O_R   0.948200 0.576800 0.373930 -0.621066
O11   O     O_R   0.948200 0.423200 0.373930 -0.613341
O12   O     O_R   0.414750 0.076790 0.542400 -0.608859
O13   O     O_R   0.414750 0.923210 0.542400 -0.614918
O14   O     O_R   0.914750 0.576790 0.542400 -0.608859
O15   O     O_R   0.914750 0.423210 0.542400 -0.614913
O16   O     O_R   0.585240 0.923200 0.457600 -0.608435
Zn1   Zn    Zn3+2 0.522330 0.000000 0.387520 0.951869
Zn2   Zn    Zn3+2 0.022330 0.500000 0.387520 0.951858
Zn3   Zn    Zn3+2 0.477660 0.000000 0.612480 0.943839
Zn4   Zn    Zn3+2 0.977660 0.500000 0.612480 0.943841

loop_
_geom_bond_atom_site_label_1
_geom_bond_atom_site_label_2
_ccdc_geom_bond_type
H42   N8    S    
C83   C87   A    
C13   C87   A    
O3    Zn2   S    
C8    C13   A    
C90   N7    S    
C92   H50   S    
C58   H11   S    
C76   H28   S    
C31   H7    S    
C45   C82   A    
C80   C84   A    
C37   C64   S    
C90   H41   S    
O15   Zn4   S    
C47   C49   A    
C28   C57   A    
C27   H60   S    
C7    C11   A    
C37   O8    A    
C9    H29   S    
C77   H25   S    
C35   O6    A    
C10   C85   A    
C88   H35   S    
C68   H21   S    
O8    Zn4   S    
C27   C55   A    
C43   C52   A    
C32   C39   A    
C12   O13   A    
O9    Zn1   S    
C11   C86   A    
C51   H9    S    
C14   C62   A    
C12   C22   S    
C34   O11   A    
C4    C78   A    
C23   C26   S    
C8    Cl4   S    
C22   C66   A    
C74   N9    S    
O10   Zn2   S    
O4    Zn2   S    
C37   O4    A    
C44   C53   A    
C18   C58   A    
C57   N2    S    
H33   N6    S    
C19   C63   A    
C94   H57   S    
C49   C51   A    
C71   N6    S    
C70   C74   A    
C59   H13   S    
C13   H32   S    
C69   C73   A    
C33   O16   A    
N1    Zn1   S    
O12   Zn3   S    
C54   N3    A    
C20   C60   A    
C45   C89   A    
C24   C85   A    
C94   N2    S    
C55   N10   S    
C21   C61   A    
C44   C47   A    
C17   H19   S    
C42   C51   A    
C91   H44   S    
C3    C60   A    
C40   C42   A    
C36   O3    A    
C32   H8    S    
C92   H49   S    
C35   O2    A    
C41   C43   A    
C29   N4    A    
C54   H2    S    
C93   H52   S    
C73   N8    S    
C10   H30   S    
O13   Zn3   S    
C5    Cl1   S    
O11   Zn2   S    
C14   C45   A    
C46   C48   A    
C43   N5    A    
H47   N9    S    
C93   N10   S    
C71   C75   A    
C67   C80   A    
C92   H48   S    
H51   N10   S    
C30   C32   A    
C91   N8    S    
C39   H6    S    
C55   N1    A    
C39   C41   A    
C2    C59   A    
C26   C87   A    
C19   C59   A    
C14   H16   S    
C4    C61   A    
C1    O1    A    
C28   H61   S    
N3    Zn2   S    
C75   H27   S    
C22   C84   A    
C20   C64   A    
C34   O15   A    
C21   H34   S    
C5    C9    A    
C38   H5    S    
C60   H14   S    
C70   H24   S    
C50   C52   A    
C66   C71   A    
C57   N3    A    
C11   H31   S    
C92   N9    S    
C41   C46   A    
C46   C54   A    
N5    Zn4   S    
C20   H23   S    
C29   H3    S    
C72   C76   A    
C16   C67   A    
C23   O10   A    
C30   H4    S    
C90   H40   S    
C4    C6    A    
C94   H59   S    
C6    Cl2   S    
C74   C79   A    
C61   H15   S    
C26   C70   A    
C72   N7    S    
C15   H17   S    
C93   H53   S    
C25   C69   A    
C18   H1    S    
N4    Zn3   S    
C90   H39   S    
C56   C83   A    
C91   H46   S    
C75   C80   A    
C19   H12   S    
C27   C47   A    
C28   C48   A    
C53   H62   S    
C73   C77   A    
O7    Zn4   S    
C7    Cl3   S    
C21   C65   A    
C36   C65   S    
C17   C65   A    
C18   C62   A    
C36   O7    A    
C88   H37   S    
C3    C5    A    
C76   C81   A    
O5    Zn3   S    
C1    O12   A    
H38   N7    S    
C68   C72   A    
C16   C64   A    
C79   H26   S    
C25   C34   S    
C69   H22   S    
C88   N6    S    
C31   C38   A    
O1    Zn1   S    
H55   N2    S    
C16   H18   S    
C15   C56   A    
C88   H36   S    
C23   O14   A    
C29   C31   A    
C82   C86   A    
C38   C40   A    
C78   C81   A    
C53   N1    A    
O6    Zn3   S    
C25   C86   A    
C3    C67   A    
C77   C82   A    
C50   H56   S    
O14   Zn4   S    
C49   H45   S    
C48   C50   A    
C17   C78   A    
C35   C62   S    
C42   N4    A    
C33   O5    A    
C58   C89   A    
C33   C63   S    
C6    C10   A    
C24   C68   A    
C9    C84   A    
C79   C83   A    
C40   C44   A    
C12   O9    A    
O2    Zn1   S    
C52   H10   S    
C1    C24   S    
C94   H58   S    
C66   H20   S    
C2    C8    A    
C15   C63   A    
C93   H54   S    
C2    C56   A    
C30   N5    A    
O16   Zn1   S    
C81   C85   A    
C91   H43   S    
C7    C89   A    
