data_mof_unit_15361.cif
_audit_creation_date              2012-12-10T18:58:45-0500
_audit_creation_method            fapswitch 2.2
_symmetry_space_group_name_H-M    P1
_symmetry_Int_Tables_number       1
_space_group_crystal_system       triclinic
_cell_length_a                    12.978414
_cell_length_b                    10.822602
_cell_length_c                    9.544054
_cell_angle_alpha                 89.943868
_cell_angle_beta                  95.953789
_cell_angle_gamma                 90.101121
_cell_volume                      1333.32617462

loop_
_atom_site_label
_atom_site_type_symbol
_atom_type_description
_atom_site_fract_x
_atom_site_fract_y
_atom_site_fract_z
_atom_type_partial_charge
C1    C     C_R   0.498377 0.262327 0.499721 0.801618
C2    C     C_R   0.027371 0.484270 0.561529 0.089874
C3    C     C_R   0.972297 0.538617 0.441845 0.025249
C4    C     C_R   0.865079 0.548202 0.435122 -0.134866
C5    C     C_R   0.866953 0.447883 0.662718 -0.178703
C6    C     C_R   0.974476 0.440695 0.672434 -0.147619
C7    C     C_R   0.475182 0.063359 0.619754 0.110452
C8    C     C_R   0.489084 0.129170 0.497220 -0.092340
C9    C     C_R   0.489728 0.064400 0.369677 -0.209413
C10   C     C_R   0.490885 0.935813 0.369911 -0.232094
C11   C     C_R   0.490029 0.870781 0.497311 -0.089845
C12   C     C_R   0.300581 0.504565 0.473514 0.824019
C13   C     C_R   0.475525 0.936108 0.619762 0.125103
C14   C     C_3   0.533885 0.929851 0.763005 -0.470921
C15   C     C_3   0.533302 0.070175 0.763082 -0.446018
C16   C     C_R   0.555685 0.586353 0.081083 0.127656
C17   C     C_R   0.438550 0.421346 0.065887 -0.021559
C18   C     C_R   0.438800 0.421038 0.917029 -0.059744
C19   C     C_R   0.554051 0.588009 0.933323 0.136204
C20   C     C_3   0.667546 0.610678 0.939720 -0.467571
C21   C     C_3   0.670646 0.602588 0.098221 0.439740
C22   C     C_R   0.498879 0.737670 0.499695 0.783108
C23   C     C_R   0.699388 0.500485 0.526438 0.809592
C24   C     C_R   0.812053 0.499739 0.542699 -0.090070
C25   C     C_R   0.187736 0.516195 0.457667 -0.169274
C26   C     C_R   0.024859 0.581123 0.330187 0.562283
C27   C     C_R   0.132610 0.570411 0.336769 -0.148491
C28   C     C_R   0.134305 0.473583 0.568374 -0.283112
Cu1   Cu    Cu3+1 0.499990 0.499980 0.640670 0.940287
Cu2   Cu    Cu3+1 0.500010 0.500020 0.359330 0.982916
H1    H     H_    0.822597 0.593475 0.346274 0.225635
H2    H     H_    0.612630 0.889899 0.761484 0.200646
H3    H     H_    0.485596 0.110081 0.842037 0.190949
H4    H     H_    0.611702 0.111613 0.762000 0.209083
H5    H     H_    0.390078 0.356326 0.115029 0.118297
H6    H     H_    0.390725 0.355539 0.854496 0.121364
H7    H     H_    0.710358 0.534484 0.893940 0.244059
H8    H     H_    0.685477 0.704576 0.901749 0.139522
H9    H     H_    0.696927 0.688506 0.154856 0.064844
H10   H     H_    0.826711 0.410404 0.747164 0.160733
H11   H     H_    0.016000 0.399350 0.765162 0.134462
H12   H     H_    0.176054 0.430290 0.659788 0.155029
H13   H     H_    0.495147 0.112378 0.271042 0.167758
H14   H     H_    0.498149 0.888105 0.271791 0.156362
H15   H     H_    0.486777 0.888784 0.842161 0.186586
N1    N     N_R   0.500660 0.500930 0.148010 -0.153085
N2    N     N_R   0.500660 0.500890 0.852110 -0.163685
O1    O     O_R   0.500000 0.319640 0.618810 -0.583533
O2    O     O_R   0.500010 0.319680 0.381230 -0.579346
O3    O     O_R   0.348990 0.499960 0.599490 -0.591263
O4    O     O_R   0.349000 0.500000 0.361910 -0.585732
O5    O     O_R   0.499990 0.680320 0.618770 -0.578407
O6    O     O_R   0.500000 0.680360 0.381190 -0.600319
O7    O     O_R   0.651000 0.500000 0.638090 -0.594382
O8    O     O_R   0.651010 0.500040 0.400510 -0.521270
F1    F     F_    0.721055 0.496101 0.147839 -0.625015
F2    F     F_    0.971514 0.633744 0.215105 -0.667299
C29   C     C_R   0.184635 0.619047 0.217136 0.202404
C30   C     C_R   0.173148 0.557683 0.086815 -0.081071
C31   C     C_R   0.221485 0.603780 0.973301 -0.146499
C32   C     C_R   0.281019 0.711513 0.988823 -0.113408
C33   C     C_R   0.291858 0.773737 0.117766 -0.139755
C34   C     C_R   0.244108 0.727709 0.231955 -0.086683
H16   H     H_    0.127269 0.474015 0.073532 0.126894
H17   H     H_    0.213018 0.555872 0.873411 0.133233
H18   H     H_    0.318479 0.746934 0.900836 0.129387
H19   H     H_    0.336760 0.858031 0.128748 0.120152
H20   H     H_    0.253192 0.776575 0.331484 0.106893

loop_
_geom_bond_atom_site_label_1
_geom_bond_atom_site_label_2
_ccdc_geom_bond_type
C21   F1    S    
C12   O3    A    
Cu2   O4    S    
C1    O1    A    
C23   O8    A    
C33   C34   A    
C22   O6    A    
C1    C8    S    
C20   H8    S    
Cu2   O8    S    
C15   H4    S    
C19   C20   S    
C21   H9    S    
C7    C13   A    
C12   C25   S    
C23   C24   S    
C18   N2    A    
C7    C15   S    
C17   C18   A    
C30   H16   S    
C30   C31   A    
Cu1   O5    S    
C13   C14   S    
C17   N1    A    
C25   C28   A    
C20   H7    S    
C11   C13   A    
C26   C27   A    
C2    C6    A    
C5    C24   A    
C18   H6    S    
C33   H19   S    
Cu1   N2    S    
C16   C19   A    
C5    C6    A    
C9    C10   A    
C28   H12   S    
Cu2   O6    S    
Cu2   O2    S    
Cu2   N1    S    
C31   H17   S    
C2    C3    A    
C14   H15   S    
Cu1   O3    S    
C32   C33   A    
C4    C24   A    
C26   F2    S    
C19   N2    A    
C9    H13   S    
C4    H1    S    
C25   C27   A    
C10   C11   A    
Cu1   O1    S    
C10   H14   S    
C3    C4    A    
C7    C8    A    
C12   O4    A    
C17   H5    S    
C20   C21   S    
C23   O7    A    
C22   O5    A    
Cu1   O7    S    
C5    H10   S    
C16   N1    A    
C29   C34   A    
C16   C21   S    
C14   C15   S    
C8    C9    A    
C2    C28   A    
C11   C22   S    
C29   C30   A    
C34   H20   S    
C1    O2    A    
C32   H18   S    
C15   H3    S    
C3    C26   A    
Cu1   Cu2   S    
C14   H2    S    
C31   C32   A    
C6    H11   S    
C27   C29   S    
