data_mof_unit_14846.cif
_audit_creation_date              2012-12-10T18:58:13-0500
_audit_creation_method            fapswitch 2.2
_symmetry_space_group_name_H-M    P1
_symmetry_Int_Tables_number       1
_space_group_crystal_system       triclinic
_cell_length_a                    11.036526
_cell_length_b                    10.812992
_cell_length_c                    9.616274
_cell_angle_alpha                 89.483833
_cell_angle_beta                  102.797777
_cell_angle_gamma                 92.622299
_cell_volume                      1117.90465029

loop_
_atom_site_label
_atom_site_type_symbol
_atom_type_description
_atom_site_fract_x
_atom_site_fract_y
_atom_site_fract_z
_atom_type_partial_charge
C1    C     C_R   0.504287 0.262909 0.501730 0.840844
C2    C     C_R   0.521406 0.130657 0.508828 -0.183588
C3    C     C_R   0.596419 0.071899 0.429171 -0.093681
C4    C     C_R   0.596413 0.940393 0.428468 -0.073140
C5    C     C_R   0.521141 0.871635 0.506416 -0.171251
C6    C     C_R   0.468564 0.933951 0.602313 0.128242
C7    C     C_3   0.342065 0.920109 0.633173 -0.462465
C8    C     C_3   0.343592 0.060580 0.636937 -0.424329
C9    C     C_R   0.571603 0.585325 0.090762 0.270359
C10   C     C_R   0.428451 0.415497 0.055871 -0.063489
C11   C     C_R   0.422324 0.420691 0.905290 0.472798
C12   C     C_R   0.262613 0.502924 0.441325 0.789562
C13   C     C_R   0.571183 0.585505 0.943333 0.166589
C14   C     C_3   0.708723 0.598799 0.969552 -0.423747
C15   C     C_3   0.710531 0.592867 0.126402 -0.481951
C16   C     C_R   0.505955 0.737533 0.501079 0.817570
C17   C     C_R   0.737784 0.504722 0.558756 0.847631
C18   C     C_2   0.126245 0.506225 0.406862 -0.184714
C19   C     C_2   0.069631 0.546125 0.507453 -0.277072
C20   C     C_2   0.874496 0.521074 0.594351 -0.105995
C21   C     C_2   0.934004 0.542805 0.488086 -0.137003
C22   C     C_R   0.469483 0.060409 0.604416 0.151118
Cu1   Cu    Cu3+1 0.499990 0.499980 0.640670 1.010806
Cu2   Cu    Cu3+1 0.500010 0.500020 0.359330 1.020263
H1    H     H_    0.880931 0.550393 0.380182 0.175337
H2    H     H_    0.348624 0.097101 0.745573 0.259452
H3    H     H_    0.750863 0.517548 0.932875 0.250672
H4    H     H_    0.741060 0.690311 0.934432 0.222802
H5    H     H_    0.749048 0.505551 0.175038 0.221592
H6    H     H_    0.750661 0.678431 0.183501 0.226194
H7    H     H_    0.125783 0.580609 0.607709 0.210451
H8    H     H_    0.271698 0.878688 0.542640 0.200322
H9    H     H_    0.343818 0.876720 0.738811 0.224250
H10   H     H_    0.273275 0.101515 0.549788 0.193290
N1    N     N_R   0.500780 0.500930 0.148120 -0.254950
N2    N     N_R   0.500790 0.500890 0.852210 -0.228902
O1    O     O_R   0.500000 0.319640 0.618810 -0.523040
O2    O     O_R   0.500010 0.319680 0.381230 -0.575473
O3    O     O_R   0.320680 0.500000 0.575130 -0.579783
O4    O     O_R   0.320690 0.500040 0.337550 -0.520093
O5    O     O_R   0.499990 0.680320 0.618770 -0.579117
O6    O     O_R   0.500000 0.680360 0.381190 -0.574185
O7    O     O_R   0.679310 0.499960 0.662450 -0.579559
O8    O     O_R   0.679320 0.500000 0.424870 -0.571399
C23   C     C_2   0.370439 0.305399 0.110642 0.932615
O9    O     O_2   0.415133 0.204645 0.105210 -0.568111
O10   O     O_R   0.261595 0.313942 0.160239 -0.738888
H11   H     H_    0.230764 0.231258 0.192856 0.317834
O11   O     O_3   0.348019 0.334900 0.813859 -0.566790
C24   C     C_3   0.219904 0.349339 0.810036 0.048811
H12   H     H_    0.176654 0.391770 0.707767 0.188671
H13   H     H_    0.200883 0.409659 0.895470 0.164565
C25   C     C_3   0.152675 0.223597 0.815614 -0.725328
H14   H     H_    0.204494 0.165579 0.902346 0.258887
H15   H     H_    0.058557 0.236150 0.834873 0.260383
H16   H     H_    0.141543 0.174650 0.712413 0.233493
C26   C     C_2   0.941514 0.517107 0.746019 0.810918
O12   O     O_2   0.920109 0.431110 0.821650 -0.600598
O13   O     O_R   0.025360 0.614013 0.803373 -0.768093
H17   H     H_    0.064564 0.601455 0.907814 0.364658
C27   C     C_2   0.055580 0.460133 0.265719 0.904334
O14   O     O_2   0.083492 0.499333 0.156907 -0.571511
O15   O     O_R   0.958908 0.370424 0.257473 -0.751327
H18   H     H_    0.918807 0.346167 0.155494 0.337045
C28   C     C_2   0.680023 0.147305 0.356562 0.917320
O16   O     O_2   0.754273 0.223786 0.424760 -0.591144
O17   O     O_R   0.672309 0.132889 0.210589 -0.670688
H19   H     H_    0.732651 0.191061 0.173684 0.338622
C29   C     C_2   0.684492 0.876609 0.361763 0.860738
O18   O     O_2   0.677878 0.885480 0.233597 -0.556614
O19   O     O_R   0.777000 0.808468 0.447609 -0.779577
H20   H     H_    0.839468 0.778891 0.393952 0.318558

loop_
_geom_bond_atom_site_label_1
_geom_bond_atom_site_label_2
_ccdc_geom_bond_type
C2    C22   A    
C8    C22   S    
Cu1   Cu2   S    
C17   O7    A    
C18   C27   S    
C12   O4    A    
C6    C7    S    
C11   O11   S    
C15   H5    S    
Cu1   O1    S    
C14   H3    S    
Cu2   O6    S    
C24   H13   S    
O10   H11   S    
Cu1   O5    S    
C1    O1    A    
C19   H7    S    
O19   H20   S    
C10   C23   S    
C23   O10   S    
C2    C3    A    
C9    C15   S    
C17   O8    A    
O13   H17   S    
C24   H12   S    
C8    H10   S    
C13   C14   S    
Cu2   N1    S    
C7    H9    S    
C26   O12   D    
C3    C28   S    
C1    O2    A    
C12   O3    A    
O17   H19   S    
Cu1   O3    S    
C5    C6    A    
C6    C22   A    
C4    C29   S    
Cu2   O4    S    
C1    C2    S    
C29   O18   D    
C25   H15   S    
C27   O14   D    
Cu2   O8    S    
C10   N1    A    
C26   O13   S    
C24   C25   S    
C29   O19   S    
C10   C11   A    
C8    H2    S    
Cu2   O2    S    
Cu1   N2    S    
C23   O9    D    
C7    C8    S    
C17   C20   S    
Cu1   O7    S    
C20   C21   D    
C13   N2    A    
C9    N1    A    
C28   O16   D    
C15   H6    S    
C25   H16   S    
C12   C18   S    
O11   C24   S    
C21   H1    S    
C14   C15   S    
C18   C19   D    
C5    C16   S    
C9    C13   A    
C7    H8    S    
C14   H4    S    
C20   C26   S    
C25   H14   S    
C16   O6    A    
C28   O17   S    
C16   O5    A    
C27   O15   S    
C3    C4    A    
O15   H18   S    
C4    C5    A    
C19   C21   S    
C11   N2    A    
