data_mof_unit_39643.cif
_audit_creation_date              2012-12-11T17:15:02-0500
_audit_creation_method            fapswitch 2.2
_symmetry_space_group_name_H-M    P1
_symmetry_Int_Tables_number       1
_space_group_crystal_system       triclinic
_cell_length_a                    7.222761
_cell_length_b                    12.133549
_cell_length_c                    21.405636
_cell_angle_alpha                 89.999313
_cell_angle_beta                  90.139828
_cell_angle_gamma                 90.000529
_cell_volume                      1875.93564409

loop_
_atom_site_label
_atom_site_type_symbol
_atom_type_description
_atom_site_fract_x
_atom_site_fract_y
_atom_site_fract_z
_atom_type_partial_charge
O1    O     O_R   0.354460 0.152320 0.595720 -0.535698
O2    O     O_R   0.645540 0.847680 0.404280 -0.536460
O3    O     O_R   0.145540 0.652320 0.404280 -0.536456
O4    O     O_R   0.854460 0.347680 0.595720 -0.535699
O5    O     O_R   0.683670 0.140090 0.727290 -0.532367
O6    O     O_R   0.316330 0.859910 0.272710 -0.537748
O7    O     O_R   0.816330 0.640090 0.272710 -0.537752
O8    O     O_R   0.183670 0.359910 0.727290 -0.532371
O9    O     O_R   0.854010 0.349340 0.727750 -0.532999
O10   O     O_R   0.145990 0.650660 0.272250 -0.526334
O11   O     O_R   0.645990 0.849340 0.272250 -0.526295
O12   O     O_R   0.354010 0.150660 0.727750 -0.533000
C1    C     C_R   0.515960 0.112900 0.747064 0.703604
C2    C     C_R   0.484398 0.888460 0.253386 0.717486
C3    C     C_R   0.984394 0.611545 0.253385 0.717502
C4    C     C_R   0.015961 0.387107 0.747059 0.703607
O13   O     O_R   0.684170 0.139420 0.596190 -0.539126
O14   O     O_R   0.315830 0.860580 0.403810 -0.539164
O15   O     O_R   0.815830 0.639420 0.403810 -0.539164
O16   O     O_R   0.184170 0.360580 0.596190 -0.539128
C5    C     C_R   0.515403 0.113095 0.574428 0.701923
C6    C     C_R   0.484598 0.886907 0.425570 0.700086
C7    C     C_R   0.984598 0.613092 0.425570 0.700098
C8    C     C_R   0.015404 0.386905 0.574428 0.701920
O17   O     O_3   0.520730 0.319480 0.661730 -0.377301
O18   O     O_3   0.479270 0.680520 0.338270 -0.378179
O19   O     O_3   0.979270 0.819480 0.338270 -0.378161
O20   O     O_3   0.020730 0.180520 0.661730 -0.377301
V1    V     V_3+5 0.795560 0.238090 0.661730 1.457337
V2    V     V_3+5 0.204440 0.761910 0.338270 1.455244
V3    V     V_3+5 0.704440 0.738090 0.338270 1.455255
V4    V     V_3+5 0.295560 0.261910 0.661730 1.457332
C9    C     C_R   0.009318 0.460869 0.800834 -0.058613
C10   C     C_R   0.996905 0.530064 0.203018 -0.078695
C11   C     C_R   0.496938 0.969966 0.203029 -0.078662
C12   C     C_R   0.509297 0.039149 0.800847 -0.058624
C13   C     C_R   0.985032 0.645871 0.840711 -0.161749
C14   C     C_R   0.138626 0.363058 0.164602 -0.166446
C15   C     C_R   0.638900 0.136898 0.164603 -0.166403
C16   C     C_R   0.484766 0.854165 0.840740 -0.161731
C17   C     C_R   0.002806 0.574234 0.790604 -0.194992
C18   C     C_R   0.099439 0.434174 0.213609 -0.183051
C19   C     C_R   0.599671 0.065785 0.213611 -0.182962
C20   C     C_R   0.502661 0.925784 0.790628 -0.194988
C21   C     C_R   0.003724 0.417687 0.861926 -0.070357
C22   C     C_R   0.932541 0.554888 0.142574 -0.088653
C23   C     C_R   0.432420 0.945217 0.142595 -0.088548
C24   C     C_R   0.503708 0.082345 0.861937 -0.070359
C25   C     C_R   0.007097 0.490843 0.914111 0.043685
C26   C     C_R   0.000860 0.493806 0.090653 0.035763
C27   C     C_R   0.500798 0.006260 0.090669 0.035829
C28   C     C_R   0.506982 0.009198 0.914127 0.043671
C29   C     C_R   0.984436 0.605374 0.901978 0.127111
C30   C     C_R   0.093475 0.392855 0.103246 0.124604
C31   C     C_R   0.593605 0.107150 0.103253 0.124609
C32   C     C_R   0.484183 0.894675 0.902003 0.127111
C33   C     C_R   0.031236 0.456162 0.977605 0.047482
C34   C     C_R   0.989226 0.530584 0.027227 0.053210
C35   C     C_R   0.489054 0.969487 0.027246 0.053244
C36   C     C_R   0.531159 0.043881 0.977619 0.047424
C37   C     C_R   0.961659 0.642687 0.012256 -0.163993
C38   C     C_R   0.116643 0.355038 0.992995 -0.166938
C39   C     C_R   0.616697 0.144971 0.993001 -0.166921
C40   C     C_R   0.461296 0.857397 0.012285 -0.163815
C41   C     C_R   0.963349 0.679428 0.951048 -0.198968
C42   C     C_R   0.148642 0.324706 0.054455 -0.200267
C43   C     C_R   0.648806 0.175281 0.054458 -0.200210
C44   C     C_R   0.462959 0.820642 0.951079 -0.198956
H1    H     H_    0.947898 0.766944 0.942089 0.143541
H2    H     H_    0.221527 0.248271 0.063785 0.141011
H3    H     H_    0.721810 0.251679 0.063781 0.141027
H4    H     H_    0.447376 0.733132 0.942126 0.143523
H5    H     H_    0.148840 0.414361 0.260115 0.112725
H6    H     H_    0.005067 0.606988 0.743515 0.108344
H7    H     H_    0.504897 0.893018 0.743541 0.108348
H8    H     H_    0.649191 0.085549 0.260108 0.112743
H9    H     H_    0.972697 0.733460 0.831565 0.128714
H10   H     H_    0.213998 0.287642 0.174253 0.125518
H11   H     H_    0.714422 0.212265 0.174249 0.125523
H12   H     H_    0.472320 0.766579 0.831599 0.128719
H13   H     H_    0.954534 0.705984 0.047303 0.171700
H14   H     H_    0.177059 0.302071 0.958344 0.167946
H15   H     H_    0.677135 0.197918 0.958343 0.167966
H16   H     H_    0.454040 0.794117 0.047343 0.171583
C45   C     C_1   0.994995 0.533093 0.478096 -0.176062
C46   C     C_1   0.005009 0.466902 0.521900 -0.176592
C47   C     C_1   0.505008 0.033098 0.521900 -0.176592
C48   C     C_1   0.494996 0.966907 0.478096 -0.176056
C49   C     C_1   0.784101 0.634418 0.136424 0.315288
N1    N     N_1   0.665042 0.697735 0.132142 -0.373294
C50   C     C_1   0.972814 0.300019 0.868551 0.283690
N2    N     N_1   0.948989 0.206009 0.873053 -0.372137
C51   C     C_1   0.472850 0.200019 0.868555 0.283692
N3    N     N_1   0.449057 0.294032 0.873054 -0.372102
C52   C     C_1   0.283710 0.865862 0.136463 0.315037
N4    N     N_1   0.164419 0.802695 0.132199 -0.373337

loop_
_geom_bond_atom_site_label_1
_geom_bond_atom_site_label_2
_ccdc_geom_bond_type
C47   C48   T    
C5    C47   S    
O1    C5    A    
C51   N3    T    
O3    V2    S    
C9    C21   A    
O3    C7    A    
C52   N4    T    
C10   C18   A    
C11   C23   A    
C25   C33   A    
C33   C38   A    
C22   C49   S    
C45   C46   T    
C35   C40   A    
C26   C30   A    
C36   C39   A    
C40   C44   A    
O20   V1    S    
O9    C4    A    
C14   C18   A    
O10   C3    A    
O4    C8    A    
O11   C2    A    
C25   C29   A    
C43   H3    S    
O13   V1    S    
C40   H16   S    
C28   C36   A    
C17   H6    S    
C15   C31   A    
O16   C8    A    
C16   C32   A    
O2    C6    A    
C16   H12   S    
C10   C22   A    
C6    C48   S    
C11   C19   A    
C3    C10   S    
O5    C1    A    
O4    V1    S    
O9    V1    S    
C13   C29   A    
C34   C37   A    
O7    C3    A    
C38   H14   S    
O15   V3    S    
C35   C36   A    
O8    C4    A    
O12   V4    S    
O19   V2    S    
O5    V1    S    
C39   C43   A    
O7    V3    S    
C24   C51   S    
C38   C42   A    
O8    V4    S    
C1    C12   S    
C2    C11   S    
C23   C27   A    
C14   H10   S    
C32   C44   A    
C13   H9    S    
O1    V4    S    
O13   C5    A    
C39   H15   S    
O2    V3    S    
C26   C34   A    
C20   H7    S    
O15   C7    A    
C4    C9    S    
O6    C2    A    
O10   V2    S    
C31   C43   A    
C14   C30   A    
C21   C25   A    
C44   H4    S    
O14   V2    S    
O6    V2    S    
C16   C20   A    
C12   C20   A    
C27   C35   A    
C50   N2    T    
C29   C41   A    
O16   V4    S    
C19   H8    S    
C18   H5    S    
O14   C6    A    
O18   V3    S    
C15   C19   A    
C30   C42   A    
C22   C26   A    
C9    C17   A    
C37   H13   S    
C33   C34   A    
C42   H2    S    
O17   V4    S    
C41   H1    S    
C12   C24   A    
C27   C31   A    
C13   C17   A    
C21   C50   S    
O11   V3    S    
C37   C41   A    
C24   C28   A    
O12   C1    A    
C7    C45   S    
C23   C52   S    
C49   N1    T    
C8    C46   S    
C28   C32   A    
C15   H11   S    
