data_mof_unit_58719.cif
_audit_creation_date              2012-12-10T17:48:53-0500
_audit_creation_method            fapswitch 2.2
_symmetry_space_group_name_H-M    P1
_symmetry_Int_Tables_number       1
_space_group_crystal_system       triclinic
_cell_length_a                    10.745667
_cell_length_b                    14.717669
_cell_length_c                    14.800438
_cell_angle_alpha                 64.795188
_cell_angle_beta                  104.238093
_cell_angle_gamma                 102.115833
_cell_volume                      2037.98686947

loop_
_atom_site_label
_atom_site_type_symbol
_atom_type_description
_atom_site_fract_x
_atom_site_fract_y
_atom_site_fract_z
_atom_type_partial_charge
C1    C     C_R   0.481383 0.119600 0.312519 0.818351
C2    C     C_3   0.876394 0.998131 0.500071 0.103072
C3    C     C_3   0.957986 0.984619 0.605939 -0.394391
C4    C     C_3   0.925253 0.099565 0.419235 -0.426027
C5    C     C_R   0.482624 0.187104 0.205672 -0.046448
C6    C     C_R   0.542464 0.811967 0.795452 -0.053421
C7    C     C_R   0.476715 0.215704 0.031241 -0.195566
C8    C     C_R   0.470493 0.149241 0.131295 -0.224912
C9    C     C_R   0.502497 0.291582 0.179221 -0.224458
C10   C     C_R   0.516296 0.359871 0.080283 0.077091
C11   C     C_R   0.498736 0.320558 0.005100 0.156285
C12   C     C_R   0.259939 0.000779 0.499638 0.806019
C13   C     C_R   0.543808 0.466049 0.053826 0.068255
C14   C     C_R   0.536821 0.532329 0.949887 0.064787
C15   C     C_R   0.520249 0.490123 0.877091 -0.226068
C16   C     C_R   0.503327 0.386188 0.904729 -0.226744
C17   C     C_R   0.581334 0.507885 0.128073 -0.223741
C18   C     C_R   0.600934 0.611669 0.101087 -0.236733
C19   C     C_R   0.583018 0.677525 0.999389 0.165058
C20   C     C_R   0.549455 0.638639 0.922690 0.089189
C21   C     C_R   0.598639 0.782232 0.973525 -0.200542
C22   C     C_R   0.579486 0.849165 0.872087 -0.178076
C23   C     C_R   0.522963 0.880218 0.687664 0.797069
C24   C     C_R   0.526238 0.707537 0.821270 -0.261822
C25   C     C_R   0.712290 0.276024 0.677161 -0.312733
C26   C     C_R   0.679387 0.197729 0.643030 0.045629
C27   C     C_R   0.525863 0.291186 0.505951 0.389279
C28   C     C_R   0.567819 0.378168 0.530316 -0.062069
C29   C     C_R   0.654106 0.365350 0.622645 0.131511
C30   C     C_R   0.521126 0.474636 0.470903 0.101532
C31   C     C_R   0.535768 0.546860 0.514699 0.074151
C32   C     C_R   0.615626 0.527433 0.610699 -0.236851
C33   C     C_R   0.678035 0.440380 0.661271 -0.181449
C34   C     C_R   0.739440 0.998752 0.500700 0.765033
C35   C     C_R   0.468552 0.504258 0.366950 -0.183328
C36   C     C_R   0.403482 0.588987 0.314168 -0.197719
C37   C     C_R   0.399539 0.652780 0.360691 0.159739
C38   C     C_R   0.471729 0.636405 0.459290 -0.022890
C39   C     C_R   0.330045 0.736285 0.306942 -0.311979
C40   C     C_R   0.338138 0.806727 0.348163 0.073042
C41   C     C_R   0.478589 0.712441 0.495766 0.010073
C42   C     C_3   0.035373 0.913215 0.471858 -0.431177
C43   C     C_3   0.893026 0.910984 0.473528 -0.381597
C44   C     C_3   0.101577 0.982152 0.607210 0.085642
C45   C     C_3   0.071693 0.106063 0.421553 -0.123118
C46   C     C_3   0.121150 0.001978 0.498215 0.039651
Cu1   Cu    Cu3+1 0.465900 0.918260 0.475680 0.923859
Cu2   Cu    Cu3+1 0.534100 0.081740 0.524320 0.996442
H1    H     H_    0.068237 0.839567 0.528166 0.179622
H2    H     H_    0.907915 0.164465 0.432625 0.174410
H3    H     H_    0.947698 0.047466 0.625461 0.210556
H4    H     H_    0.492002 0.357062 0.846717 0.161507
H5    H     H_    0.492273 0.681426 0.760750 0.151128
H6    H     H_    0.592797 0.929704 0.853760 0.161228
H7    H     H_    0.629216 0.640501 0.160433 0.147594
H8    H     H_    0.464884 0.185147 0.974304 0.149316
H9    H     H_    0.455493 0.068558 0.150256 0.155652
H10   H     H_    0.503947 0.318267 0.236833 0.174060
H11   H     H_    0.042486 0.917610 0.396842 0.180131
H12   H     H_    0.524116 0.535343 0.798176 0.140749
H13   H     H_    0.601236 0.462200 0.208165 0.140315
H14   H     H_    0.625591 0.812320 0.031885 0.134348
H15   H     H_    0.741763 0.429901 0.733333 0.141670
H16   H     H_    0.539274 0.709887 0.566252 0.117236
H17   H     H_    0.290308 0.874108 0.304429 0.116890
H18   H     H_    0.358160 0.605753 0.235679 0.150337
H19   H     H_    0.781788 0.266278 0.746512 0.147073
H20   H     H_    0.725003 0.129115 0.685181 0.134546
H21   H     H_    0.834293 0.918279 0.397920 0.184468
H22   H     H_    0.634775 0.579590 0.647414 0.123870
H23   H     H_    0.479325 0.463198 0.324505 0.168062
H24   H     H_    0.273831 0.749020 0.231862 0.139185
H25   H     H_    0.858439 0.836745 0.530403 0.172689
H26   H     H_    0.128176 0.905538 0.660191 0.123816
H27   H     H_    0.920818 0.913039 0.664698 0.135213
H28   H     H_    0.120852 0.161511 0.455423 0.219873
H29   H     H_    0.868081 0.106305 0.343258 0.164564
N1    N     N_R   0.585360 0.204570 0.560800 -0.184580
N2    N     N_R   0.414550 0.795430 0.439160 -0.178257
O1    O     O_R   0.455060 0.022100 0.338110 -0.603791
O2    O     O_R   0.512640 0.160150 0.379180 -0.554774
O3    O     O_R   0.288900 0.930980 0.479450 -0.608154
O4    O     O_R   0.346480 0.069030 0.520520 -0.487199
O5    O     O_R   0.487360 0.839850 0.620820 -0.596675
O6    O     O_R   0.544940 0.977900 0.661890 -0.575756
O7    O     O_R   0.653520 0.930970 0.479480 -0.590230
O8    O     O_R   0.711100 0.069020 0.520550 -0.596861
Br1   Br    Br    0.209935 0.074304 0.667546 -0.531392
Br2   Br    Br    0.364294 0.283600 0.416219 -0.550968
C47   C     C_R   0.099448 0.154652 0.312717 0.130970
C48   C     C_R   0.074636 0.255894 0.254525 -0.102537
C49   C     C_R   0.095271 0.305619 0.154358 -0.119966
C50   C     C_R   0.139335 0.254887 0.109690 -0.095206
C51   C     C_R   0.163532 0.154662 0.165435 -0.143740
C52   C     C_R   0.145968 0.105228 0.266454 -0.143368
H30   H     H_    0.039474 0.296766 0.287278 0.133527
H31   H     H_    0.076425 0.383452 0.111240 0.129552
H32   H     H_    0.154959 0.293210 0.031984 0.133620
H33   H     H_    0.197386 0.115240 0.130587 0.136552
H34   H     H_    0.170385 0.029388 0.305992 0.122221

loop_
_geom_bond_atom_site_label_1
_geom_bond_atom_site_label_2
_ccdc_geom_bond_type
C43   H25   S    
C50   C51   A    
C15   H12   S    
C19   C20   A    
C25   H19   S    
Cu1   N2    S    
C27   N1    A    
C47   C52   A    
C22   H6    S    
C45   C46   S    
C7    C11   A    
C26   N1    A    
C30   C35   A    
C45   H28   S    
C1    C5    S    
C7    H8    S    
C28   C29   A    
C19   C21   A    
C18   C19   A    
C42   C46   S    
C30   C31   A    
C36   H18   S    
C1    O2    A    
C15   C16   A    
C6    C22   A    
C29   C33   A    
Cu2   O2    S    
C9    H10   S    
C34   O7    A    
Cu1   O3    S    
Cu2   N1    S    
C20   C24   A    
C17   H13   S    
C48   H30   S    
C31   C32   A    
C39   H24   S    
C3    H27   S    
C9    C10   A    
C2    C34   S    
C35   H23   S    
C43   H21   S    
C21   C22   A    
Cu1   O1    S    
C44   C46   S    
C49   H31   S    
C4    C45   S    
C25   C29   A    
C3    C44   S    
Cu2   O8    S    
C23   O5    A    
Cu1   O7    S    
C14   C20   A    
C7    C8    A    
C38   C41   A    
C12   C46   S    
C39   C40   A    
C3    H3    S    
C52   H34   S    
C32   H22   S    
C24   H5    S    
C12   O4    A    
C4    H2    S    
C35   C36   A    
C2    C4    S    
C5    C9    A    
C37   C38   A    
C8    H9    S    
C11   C16   A    
Cu1   Cu2   S    
C2    C43   S    
C33   H15   S    
C6    C24   A    
C17   C18   A    
C40   N2    A    
C12   O3    A    
Cu1   O5    S    
C44   H26   S    
C45   C47   S    
C21   H14   S    
C18   H7    S    
C40   H17   S    
C42   C43   S    
C48   C49   A    
C36   C37   A    
C14   C15   A    
C16   H4    S    
C10   C13   A    
C42   H11   S    
C41   N2    A    
C5    C8    A    
Cu2   O4    S    
C31   C38   A    
C13   C17   A    
C26   H20   S    
C32   C33   A    
C28   C30   A    
C2    C3    S    
C25   C26   A    
C4    H29   S    
C37   C39   A    
C44   Br1   S    
C47   C48   A    
C51   H33   S    
C6    C23   S    
C49   C50   A    
C27   Br2   S    
C34   O8    A    
C51   C52   A    
C10   C11   A    
C42   H1    S    
C23   O6    A    
C27   C28   A    
C1    O1    A    
Cu2   O6    S    
C41   H16   S    
C13   C14   A    
C50   H32   S    
