data_mof_unit_50739.cif
_audit_creation_date              2013-03-05T15:42:10-0500
_audit_creation_method            fapswitch 2.2
_symmetry_space_group_name_H-M    P1
_symmetry_Int_Tables_number       1
_space_group_crystal_system       triclinic
_cell_length_a                    15.234956
_cell_length_b                    15.886037
_cell_length_c                    9.800468
_cell_angle_alpha                 90.607827
_cell_angle_beta                  87.688728
_cell_angle_gamma                 89.702278
_cell_volume                      2369.83887366

loop_
_atom_site_label
_atom_site_type_symbol
_atom_site_description
_atom_site_fract_x
_atom_site_fract_y
_atom_site_fract_z
_atom_type_partial_charge
O1    O     O_R   0.410990 0.910970 0.617040 -0.564109
O2    O     O_R   0.410990 0.089030 0.617040 -0.530657
O3    O     O_R   0.910990 0.410970 0.617040 -0.564191
O4    O     O_R   0.910990 0.589030 0.617040 -0.530771
O5    O     O_R   0.410950 0.910970 0.382900 -0.553493
O6    O     O_R   0.410950 0.089030 0.382900 -0.555318
O7    O     O_R   0.910950 0.410970 0.382900 -0.552708
O8    O     O_R   0.910950 0.589030 0.382900 -0.554892
C1    C     C_R   0.383735 0.882034 0.501894 0.787544
C2    C     C_R   0.387240 0.120959 0.501810 0.835665
C3    C     C_R   0.883613 0.382137 0.501895 0.788615
C4    C     C_R   0.887244 0.620965 0.501813 0.836303
Cu1   Cu    Cu3+1 0.500020 0.000000 0.638630 1.157856
Cu2   Cu    Cu3+1 0.000020 0.500000 0.638630 1.158035
Cu3   Cu    Cu3+1 0.499980 0.000000 0.361370 1.053945
Cu4   Cu    Cu3+1 0.999980 0.500000 0.361370 1.054614
O9    O     O_R   0.589050 0.089030 0.617100 -0.498405
O10   O     O_R   0.589050 0.910970 0.617100 -0.525288
O11   O     O_R   0.089050 0.589030 0.617100 -0.498387
O12   O     O_R   0.089050 0.410970 0.617100 -0.524967
O13   O     O_R   0.589010 0.089030 0.382960 -0.656486
O14   O     O_R   0.589010 0.910970 0.382960 -0.583436
O15   O     O_R   0.089010 0.589030 0.382960 -0.657039
O16   O     O_R   0.089010 0.410970 0.382960 -0.583336
C5    C     C_R   0.620136 0.112986 0.497995 0.854108
C6    C     C_R   0.615877 0.881724 0.497541 0.806574
C7    C     C_R   0.120125 0.612982 0.497990 0.853858
C8    C     C_R   0.115873 0.381720 0.497544 0.806601
C9    C     C_2   0.748147 0.810430 0.407696 0.201633
C10   C     C_2   0.698890 0.235853 0.418661 0.140111
C11   C     C_2   0.248031 0.310305 0.407544 0.201965
C12   C     C_2   0.198907 0.735879 0.418948 0.139623
C13   C     C_2   0.673588 0.808223 0.488833 0.102176
C14   C     C_2   0.699225 0.162618 0.488371 0.088127
C15   C     C_2   0.173555 0.308195 0.488872 0.101860
C16   C     C_2   0.199244 0.662529 0.488327 0.089197
C17   C     C_2   0.308384 0.237497 0.394514 0.340416
C18   C     C_2   0.281284 0.783377 0.399140 0.406784
C19   C     C_2   0.808468 0.737591 0.394564 0.340963
C20   C     C_2   0.781215 0.283461 0.399041 0.406632
C21   C     C_2   0.335678 0.199017 0.508560 0.231152
C22   C     C_2   0.314255 0.818813 0.511701 0.249294
C23   C     C_2   0.835710 0.699045 0.508587 0.231008
C24   C     C_2   0.813827 0.319212 0.511625 0.249668
C25   C     C_2   0.427586 0.001177 0.925758 0.326510
C26   C     C_2   0.927566 0.501751 0.925707 0.323960
N1    N     N_2   0.498660 0.000000 0.846910 -0.101301
N2    N     N_2   0.998660 0.500000 0.846910 -0.101110
C27   C     C_2   0.428516 0.009578 0.082085 0.579976
C28   C     C_2   0.928490 0.509530 0.082145 0.580228
N3    N     N_2   0.498630 0.000000 0.153040 -0.054960
N4    N     N_2   0.998630 0.500000 0.153040 -0.054935
N5    N     N_R   0.774361 0.886345 0.339511 0.072274
O17   O     O_R   0.786706 0.954618 0.410091 -0.332026
O18   O     O_R   0.795456 0.885116 0.209635 -0.368180
N6    N     N_R   0.618387 0.276393 0.381048 0.100680
O19   O     O_R   0.620793 0.334302 0.288077 -0.359706
O20   O     O_R   0.547584 0.269935 0.458857 -0.442571
N7    N     N_R   0.274094 0.386085 0.338862 0.072185
O21   O     O_R   0.286903 0.454398 0.409094 -0.331879
O22   O     O_R   0.294764 0.384625 0.208847 -0.367844
N8    N     N_R   0.118405 0.776581 0.381691 0.100617
O23   O     O_R   0.120816 0.834776 0.289187 -0.358662
O24   O     O_R   0.047585 0.769894 0.459399 -0.442785
N9    N     N_R   0.641643 0.731563 0.550646 0.145052
O25   O     O_R   0.593375 0.735175 0.663184 -0.293561
O26   O     O_R   0.646899 0.660567 0.483171 -0.297952
N10   N     N_R   0.779154 0.123451 0.531606 0.101393
O27   O     O_R   0.776265 0.072522 0.634765 -0.280579
O28   O     O_R   0.851621 0.127575 0.456982 -0.327545
N11   N     N_R   0.141662 0.231602 0.550976 0.145312
O29   O     O_R   0.093488 0.235331 0.663601 -0.292404
O30   O     O_R   0.146862 0.160534 0.483696 -0.298244
N12   N     N_R   0.279193 0.623108 0.530904 0.101326
O31   O     O_R   0.276447 0.572084 0.633943 -0.280897
O32   O     O_R   0.351453 0.627080 0.455750 -0.328177
O33   O     O_3   0.331669 0.208201 0.263871 -0.532057
C29   C     C_3   0.412865 0.243244 0.218065 0.008024
H1    H     H_    0.431184 0.302185 0.272377 0.191754
H2    H     H_    0.408884 0.258217 0.108166 0.202164
H3    H     H_    0.466730 0.196661 0.226317 0.179326
O34   O     O_3   0.321878 0.796011 0.270626 -0.597550
C30   C     C_3   0.298361 0.734778 0.173313 -0.228502
H4    H     H_    0.229493 0.743610 0.143234 0.192157
H5    H     H_    0.308874 0.669752 0.210373 0.198124
H6    H     H_    0.341068 0.742611 0.079986 0.188205
O35   O     O_3   0.831674 0.708268 0.263902 -0.531994
C31   C     C_3   0.912907 0.743206 0.218029 0.006592
H7    H     H_    0.931456 0.801991 0.272574 0.191986
H8    H     H_    0.908830 0.758401 0.108226 0.202246
H9    H     H_    0.966668 0.696474 0.225894 0.178845
O36   O     O_3   0.822295 0.295640 0.270731 -0.597150
C32   C     C_3   0.798796 0.234334 0.173529 -0.229563
H10   H     H_    0.730061 0.243373 0.142944 0.191652
H11   H     H_    0.808937 0.169336 0.210972 0.198579
H12   H     H_    0.841787 0.241852 0.080431 0.188104
O37   O     O_3   0.313236 0.232307 0.636915 -0.555710
C33   C     C_3   0.381331 0.285537 0.677723 -0.112390
H13   H     H_    0.393128 0.337451 0.603875 0.184077
H14   H     H_    0.442965 0.249403 0.691973 0.197257
H15   H     H_    0.361445 0.314712 0.777637 0.213882
O38   O     O_3   0.274603 0.802783 0.639561 -0.566539
C34   C     C_3   0.334013 0.760822 0.723898 -0.081601
H16   H     H_    0.365952 0.805863 0.792812 0.187297
H17   H     H_    0.386249 0.724122 0.666526 0.184217
H18   H     H_    0.296279 0.716368 0.789814 0.199463
O39   O     O_3   0.813215 0.732284 0.636959 -0.555554
C35   C     C_3   0.881306 0.785467 0.677929 -0.111599
H19   H     H_    0.893180 0.837403 0.604148 0.183977
H20   H     H_    0.942907 0.749298 0.692254 0.197325
H21   H     H_    0.861365 0.814616 0.777841 0.213818
O40   O     O_3   0.773516 0.303825 0.639248 -0.566643
C36   C     C_3   0.832278 0.261954 0.724752 -0.084207
H22   H     H_    0.863489 0.307085 0.794362 0.186926
H23   H     H_    0.885045 0.225358 0.668405 0.183927
H24   H     H_    0.794114 0.217413 0.789910 0.199666
N13   N     N_R   0.344611 0.009962 0.863486 0.112905
O41   O     O_R   0.307963 0.084042 0.861034 -0.250512
O42   O     O_R   0.296783 0.944057 0.842191 -0.358143
N14   N     N_R   0.844778 0.512096 0.863461 0.113475
O43   O     O_R   0.808708 0.586499 0.863547 -0.250968
O44   O     O_R   0.796619 0.446886 0.838863 -0.356166
N15   N     N_R   0.562420 0.057369 0.884568 0.217862
O45   O     O_R   0.643906 0.042796 0.846476 -0.300990
O46   O     O_R   0.539982 0.133500 0.923575 -0.407519
N16   N     N_R   0.062711 0.557128 0.884322 0.218432
O47   O     O_R   0.144105 0.542189 0.846093 -0.300453
O48   O     O_R   0.040652 0.633372 0.923250 -0.407329
O49   O     O_3   0.353076 0.039453 0.150278 -0.563830
C37   C     C_3   0.286390 0.977998 0.153282 -0.021747
H25   H     H_    0.305881 0.916140 0.106531 0.146455
H26   H     H_    0.229004 0.002519 0.099601 0.219973
H27   H     H_    0.264581 0.967362 0.261046 0.198889
O50   O     O_3   0.852856 0.538594 0.150777 -0.563155
C38   C     C_3   0.786327 0.476982 0.151781 -0.023770
H28   H     H_    0.806211 0.415450 0.104165 0.143817
H29   H     H_    0.729155 0.501772 0.097879 0.220133
H30   H     H_    0.764014 0.465564 0.259092 0.200127
O51   O     O_3   0.566680 0.958143 0.091263 -0.526928
C39   C     C_3   0.644217 0.000897 0.125084 0.113532
H31   H     H_    0.664505 0.988304 0.228306 0.196825
H32   H     H_    0.638266 0.070357 0.114542 0.121691
H33   H     H_    0.698873 0.978537 0.055731 0.194031
O52   O     O_3   0.066779 0.458340 0.091179 -0.526592
C40   C     C_3   0.144217 0.501183 0.125221 0.113955
H34   H     H_    0.164451 0.488524 0.228446 0.196944
H35   H     H_    0.138164 0.570639 0.114755 0.121302
H36   H     H_    0.198962 0.478953 0.055936 0.194188

loop_
_geom_bond_atom_site_label_1
_geom_bond_atom_site_label_2
_geom_bond_distance
_ccdc_geom_bond_type
C38   H30   1.109230 S    
O35   C31   1.417507 S    
N16   O47   1.300762 A    
O10   C6    1.305261 A    
C39   H33   1.108002 S    
C19   O35   1.389570 S    
O37   C33   1.409502 S    
C13   N9    1.443949 S    
N15   O45   1.300740 A    
N5    O17   1.298803 A    
C35   H19   1.113533 S    
O7    C3    1.310510 A    
C1    C22   1.463991 S    
C32   H10   1.109825 S    
N12   O32   1.301804 A    
Cu1   O10   1.958379 S    
C12   C16   1.355430 D    
C39   H32   1.112940 S    
O49   C37   1.412337 S    
C4    C23   1.464008 S    
N13   O42   1.298542 A    
C29   H2    1.109452 S    
N15   O46   1.304241 A    
C9    C13   1.360877 D    
N6    O19   1.301268 A    
C11   N7    1.435470 S    
O2    Cu1   1.973424 S    
C21   O37   1.388634 S    
N8    O24   1.300784 A    
O6    Cu3   1.958378 S    
Cu3   O14   1.973425 S    
C8    C15   1.457725 S    
C35   H20   1.112368 S    
N10   O27   1.301063 A    
N9    O26   1.301812 A    
C28   N4    1.306890 D    
O39   C35   1.409497 S    
C12   C18   1.474918 S    
O4    C4    1.306414 A    
O11   C7    1.303189 A    
C5    C14   1.443826 S    
C36   H24   1.109245 S    
C25   N1    1.304596 D    
C15   N11   1.443970 S    
N7    O21   1.298756 A    
Cu4   O16   1.973425 S    
C18   O34   1.397467 S    
C2    C21   1.463926 S    
C17   C21   1.358386 D    
C22   O38   1.395471 S    
O40   C36   1.418534 S    
C40   H35   1.112919 S    
N14   O44   1.298631 A    
C40   H34   1.089838 S    
N5    O18   1.300081 A    
C26   N2    1.304620 D    
N7    O22   1.300088 A    
N12   O31   1.301089 A    
C10   C14   1.355496 D    
C10   C20   1.474972 S    
Cu2   O12   1.958379 S    
C38   H28   1.113957 S    
O1    C1    1.298447 A    
C39   H31   1.089863 S    
C28   O50   1.385186 S    
C14   N10   1.445294 S    
N11   O30   1.301815 A    
C29   H1    1.114479 S    
C19   C23   1.358399 D    
O12   C8    1.305238 A    
C27   N3    1.306992 D    
O33   C29   1.417505 S    
C27   O49   1.385089 S    
C11   C17   1.475081 S    
C37   H26   1.109409 S    
O5    C1    1.310566 A    
N8    O23   1.301281 A    
C6    C13   1.457699 S    
N1    N15   1.393329 S    
C30   H4    1.109824 S    
C31   H9    1.108118 S    
C25   C27   1.537109 S    
O8    C4    1.302908 A    
C9    C19   1.475225 S    
C26   N14   1.432484 S    
C3    C24   1.464100 S    
C34   H17   1.114221 S    
C23   O39   1.388647 S    
C20   O36   1.397625 S    
O3    Cu2   1.980298 S    
C16   N12   1.445162 S    
C24   O40   1.395496 S    
N10   O28   1.301803 A    
O7    Cu4   1.971747 S    
Cu3   N3    2.042664 S    
C31   H8    1.109459 S    
C33   H13   1.113537 S    
C32   H12   1.109347 S    
O15   C7    1.294719 A    
N4    O52   1.347989 S    
Cu2   Cu4   2.717301 S    
C37   H27   1.109251 S    
O1    Cu1   1.980298 S    
O2    C2    1.306417 A    
C40   H36   1.107954 S    
N14   O43   1.300860 A    
O16   C8    1.300255 A    
Cu1   N1    2.040511 S    
C36   H22   1.106743 S    
C25   N13   1.432517 S    
C38   H29   1.109398 S    
O13   C5    1.294845 A    
N16   O48   1.304282 A    
C30   H5    1.111577 S    
Cu2   O11   1.971746 S    
Cu4   N4    2.042664 S    
O52   C40   1.414790 S    
O6    C2    1.302865 A    
Cu2   N2    2.040511 S    
O51   C39   1.414809 S    
C10   N6    1.445041 S    
O50   C38   1.412491 S    
C7    C16   1.443481 S    
Cu4   O15   1.980297 S    
C33   H15   1.109249 S    
C26   C28   1.537462 S    
C33   H14   1.112379 S    
C35   H21   1.109249 S    
Cu1   O9    1.971746 S    
O9    C5    1.303228 A    
Cu1   Cu3   2.717301 S    
C37   H25   1.113641 S    
C12   N8    1.445159 S    
N11   O29   1.301273 A    
N13   O41   1.300803 A    
C29   H3    1.108106 S    
C32   H11   1.111596 S    
Cu3   O13   1.980297 S    
C9    N5    1.435622 S    
O36   C32   1.412661 S    
N6    O20   1.300793 A    
C34   H18   1.109269 S    
C11   C15   1.360826 D    
N9    O25   1.301270 A    
O4    Cu2   1.973424 S    
O38   C34   1.418624 S    
O5    Cu3   1.971747 S    
O3    C3    1.298545 A    
N2    N16   1.393298 S    
C18   C22   1.349295 D    
C20   C24   1.349329 D    
C30   H6    1.109349 S    
C17   O33   1.389522 S    
C31   H7    1.114479 S    
O8    Cu4   1.958378 S    
O34   C30   1.412682 S    
O14   C6    1.300214 A    
C34   H16   1.106697 S    
C36   H23   1.114323 S    
N3    O51   1.348038 S    
