data_mof_unit_21702.cif
_audit_creation_date              2013-03-05T15:59:47-0500
_audit_creation_method            fapswitch 2.2
_symmetry_space_group_name_H-M    P1
_symmetry_Int_Tables_number       1
_space_group_crystal_system       triclinic
_cell_length_a                    12.576585
_cell_length_b                    13.212367
_cell_length_c                    16.88974
_cell_angle_alpha                 90.422546
_cell_angle_beta                  98.076326
_cell_angle_gamma                 98.283063
_cell_volume                      2748.59436435

loop_
_atom_site_label
_atom_site_type_symbol
_atom_site_description
_atom_site_fract_x
_atom_site_fract_y
_atom_site_fract_z
_atom_type_partial_charge
O1    O     O_R   0.631480 0.627510 0.519670 -0.616562
O2    O     O_R   0.455770 0.662400 0.493360 -0.638715
C1    C     C_R   0.559350 0.690873 0.516549 0.865477
O3    O     O_R   0.598240 0.480510 0.398910 -0.612911
O4    O     O_R   0.422540 0.515400 0.372600 -0.614877
C2    C     C_R   0.514390 0.500058 0.349756 0.871195
Zn1   Zn    Zn3+2 0.617320 0.476700 0.517570 0.964449
Zn2   Zn    Zn3+2 0.382680 0.523300 0.482430 0.989835
O5    O     O_R   0.544230 0.337600 0.506640 -0.621163
O6    O     O_R   0.368520 0.372490 0.480330 -0.560925
O7    O     O_R   0.577460 0.484600 0.627400 -0.622429
O8    O     O_R   0.401760 0.519490 0.601090 -0.623503
C3    C     C_R   0.439891 0.308445 0.491149 0.909116
C4    C     C_R   0.487178 0.504427 0.650278 0.867245
C5    C     C_R   0.530483 0.520778 0.267360 -0.093596
C6    C     C_R   0.443589 0.507838 0.204226 -0.026916
C7    C     C_R   0.462189 0.538756 0.128404 -0.171073
C8    C     C_R   0.566336 0.583198 0.114409 0.120529
C9    C     C_R   0.653451 0.593817 0.177119 0.006231
C10   C     C_R   0.634975 0.563067 0.253091 -0.213650
C11   C     C_R   0.550243 0.507018 0.873723 -0.156113
C12   C     C_R   0.542269 0.473792 0.794651 -0.018409
C13   C     C_R   0.437237 0.610726 0.754221 -0.167382
C14   C     C_R   0.445537 0.643400 0.833272 -0.128263
C15   C     C_R   0.504388 0.593553 0.893027 0.165721
C16   C     C_2   0.585943 0.604042 0.032236 -0.207871
C17   C     C_2   0.506414 0.624444 0.976365 -0.205930
C18   C     C_R   0.487056 0.527262 0.734344 -0.035185
H1    H     H_    0.394332 0.652635 0.708296 0.144318
H2    H     H_    0.434666 0.651285 0.993076 0.169175
H3    H     H_    0.589672 0.463360 0.920201 0.146530
H4    H     H_    0.702214 0.574358 0.301668 0.168130
H5    H     H_    0.661820 0.587257 0.015076 0.164708
H6    H     H_    0.395516 0.524371 0.079674 0.156965
H7    H     H_    0.407013 0.708073 0.847764 0.148942
C19   C     C_R   0.273600 0.045828 0.467377 -0.020458
H8    H     H_    0.247033 0.193346 0.423165 0.217295
H9    H     H_    0.243240 0.852092 0.523133 0.151889
C20   C     C_R   0.405978 0.198264 0.491111 -0.067839
C21   C     C_R   0.705213 0.838841 0.543590 -0.242930
C22   C     C_R   0.738607 0.943520 0.540893 0.004212
C23   C     C_R   0.660749 0.010330 0.526556 -0.041861
C24   C     C_R   0.548585 0.973183 0.530891 0.032646
C25   C     C_R   0.518081 0.867628 0.541912 0.086146
C26   C     C_R   0.463274 0.033937 0.518450 0.065836
C27   C     C_R   0.353293 0.987623 0.501769 0.123889
C28   C     C_R   0.326856 0.887114 0.524453 -0.201526
C29   C     C_R   0.409315 0.831842 0.552357 -0.181516
C30   C     C_R   0.482726 0.139366 0.525568 -0.227014
C31   C     C_R   0.303656 0.150168 0.456399 -0.130830
C32   C     C_R   0.594900 0.799978 0.537341 -0.129382
H10   H     H_    0.557558 0.176096 0.559710 0.175880
H11   H     H_    0.765327 0.787344 0.545820 0.172517
H12   H     H_    0.385848 0.758680 0.577936 0.165705
C33   C     C_R   0.905067 0.373123 0.630553 0.281664
H13   H     H_    0.731961 0.341338 0.629137 0.169349
N1    N     N_R   0.774070 0.445420 0.541180 -0.126091
C34   C     C_R   0.208895 0.628227 0.404395 -0.029250
C35   C     C_R   0.108156 0.665255 0.391598 0.223349
C36   C     C_R   0.026721 0.623187 0.434827 -0.241461
C37   C     C_R   0.043969 0.546077 0.489778 -0.035813
C38   C     C_R   0.147566 0.514425 0.503064 0.063736
C39   C     C_R   0.960531 0.494917 0.529601 -0.051648
C40   C     C_R   0.988356 0.432391 0.595390 -0.110874
C41   C     C_R   0.099124 0.426604 0.618657 0.202355
C42   C     C_R   0.164279 0.436568 0.557924 0.259738
C43   C     C_R   0.850619 0.500375 0.504483 0.002364
C44   C     C_R   0.797714 0.383769 0.602802 -0.062232
N2    N     N_R   0.226730 0.554050 0.459240 -0.148971
H14   H     H_    0.823065 0.546450 0.455556 0.128290
H15   H     H_    0.951341 0.654290 0.426636 0.174763
C45   C     C_1   0.335761 0.460110 0.214684 0.207267
N3    N     N_1   0.249426 0.421950 0.223075 -0.146618
C46   C     C_1   0.162800 0.000524 0.440455 0.276542
N4    N     N_1   0.073950 0.964543 0.418705 -0.107712
C47   C     C_1   0.697160 0.110213 0.496656 0.174313
N5    N     N_1   0.726891 0.189440 0.472388 -0.157003
C48   C     C_1   0.853624 0.980142 0.547069 0.237363
N6    N     N_1   0.945592 0.009767 0.552528 -0.115178
C49   C     C_1   0.587092 0.382678 0.777414 0.221885
N7    N     N_1   0.622666 0.309481 0.763745 -0.141781
N8    N     N_R   0.144066 0.406474 0.699261 0.256118
O9    O     O_R   0.241880 0.383280 0.714275 -0.337265
O10   O     O_R   0.098154 0.433310 0.758979 -0.340564
N9    N     N_R   0.925907 0.293878 0.685939 0.237197
O11   O     O_R   0.989504 0.228849 0.670952 -0.309207
O12   O     O_R   0.866527 0.274928 0.742778 -0.353544
C50   C     C_1   0.294152 0.669894 0.360050 0.381889
N10   N     N_1   0.361772 0.704748 0.324064 -0.169028
N11   N     N_R   0.086437 0.744606 0.335594 0.210691
O13   O     O_R   0.164343 0.811391 0.316103 -0.397130
O14   O     O_R   0.986784 0.756014 0.308846 -0.375082
N12   N     N_R   0.181178 0.340975 0.525526 0.224911
O15   O     O_R   0.208849 0.269346 0.573280 -0.339927
O16   O     O_R   0.138675 0.315737 0.451980 -0.412112
C51   C     C_1   0.762172 0.636383 0.164883 0.198136
N13   N     N_1   0.849131 0.670327 0.154722 -0.099178

loop_
_geom_bond_atom_site_label_1
_geom_bond_atom_site_label_2
_geom_bond_distance
_ccdc_geom_bond_type
N12   O15   1.301753 A    
C22   C23   1.407908 A    
C9    C10   1.389161 A    
C6    C45   1.445833 S    
C33   C44   1.392913 A    
N11   O13   1.301064 A    
N9    O11   1.301422 A    
C29   H12   1.080705 S    
C11   H3    1.083775 S    
C16   C17   1.334074 D    
C13   H1    1.083621 S    
O4    C2    1.309925 A    
O7    C4    1.309440 A    
C5    C6    1.405915 A    
C8    C9    1.403316 A    
C37   C39   1.418132 A    
O5    C3    1.301984 A    
C2    C5    1.456482 S    
C6    C7    1.387773 A    
C8    C16   1.464624 S    
C13   C14   1.385370 A    
C19   C27   1.413652 A    
C35   C36   1.393935 A    
N12   O16   1.302266 A    
C12   C18   1.404268 A    
C11   C12   1.388315 A    
C51   N13   1.157246 T    
C17   H2    1.087163 S    
N1    C43   1.345766 A    
O3    Zn1   1.986584 S    
N9    O12   1.301194 A    
C5    C10   1.405952 A    
C39   C43   1.400135 A    
C14   H7    1.083663 S    
C46   N4    1.156984 T    
C38   C42   1.408023 A    
C14   C15   1.393014 A    
O3    C2    1.305240 A    
C22   C48   1.446587 S    
C1    C32   1.471043 S    
C48   N6    1.156979 T    
C49   N7    1.157219 T    
C36   H15   1.078429 S    
C34   C35   1.412241 A    
C26   C27   1.418137 A    
C38   N2    1.369597 A    
C36   C37   1.402660 A    
O1    C1    1.316279 A    
C35   N11   1.446724 S    
C33   N9    1.436887 S    
Zn1   O7    1.994176 S    
C24   C25   1.412993 A    
C16   H5    1.086994 S    
N11   O14   1.301508 A    
C28   C29   1.384494 A    
C26   C30   1.380483 A    
Zn2   O8    1.986584 S    
C30   H10   1.079601 S    
C33   C40   1.417215 A    
C7    C8    1.408441 A    
Zn2   N2    2.044831 S    
C13   C18   1.405020 A    
C47   N5    1.157658 T    
C24   C26   1.423702 A    
H9    C28   1.083297 S    
C19   C46   1.443773 S    
C42   N12   1.428149 S    
C25   C32   1.416692 A    
C21   C22   1.389335 A    
C20   C30   1.393260 A    
O8    C4    1.302734 A    
N8    O9    1.301396 A    
N8    O10   1.301464 A    
C23   C24   1.437444 A    
N1    C44   1.352951 A    
C19   C31   1.396799 A    
C10   H4    1.085083 S    
Zn1   O5    1.928020 S    
C11   C15   1.408325 A    
C27   C28   1.391735 A    
O1    Zn1   1.974387 S    
O2    Zn2   1.928020 S    
C45   N3    1.157497 T    
O6    C3    1.315356 A    
C34   C50   1.440616 S    
O4    Zn2   1.994175 S    
C21   H11   1.084679 S    
C34   N2    1.373763 A    
C15   C17   1.458404 S    
C21   C32   1.397268 A    
C23   C47   1.451545 S    
C43   H14   1.077621 S    
C40   C41   1.406506 A    
O2    C1    1.305816 A    
C12   C49   1.445067 S    
H13   C44   1.081403 S    
H8    C31   1.075687 S    
C41   N8    1.440832 S    
C37   C38   1.413859 A    
C3    C20   1.456755 S    
C39   C40   1.423787 A    
C20   C31   1.396594 A    
C50   N10   1.158116 T    
Zn2   O6    1.974387 S    
C41   C42   1.395739 A    
C7    H6    1.083725 S    
C4    C18   1.449631 S    
Zn1   N1    2.057292 S    
C9    C51   1.445047 S    
C25   C29   1.417232 A    
