data_mof_unit_38797.cif
_audit_creation_date              2013-03-05T16:05:59-0500
_audit_creation_method            fapswitch 2.2
_symmetry_space_group_name_H-M    P1
_symmetry_Int_Tables_number       1
_space_group_crystal_system       triclinic
_cell_length_a                    8.264255
_cell_length_b                    15.055587
_cell_length_c                    17.489451
_cell_angle_alpha                 101.216904
_cell_angle_beta                  97.364898
_cell_angle_gamma                 98.470522
_cell_volume                      2083.47167184

loop_
_atom_site_label
_atom_site_type_symbol
_atom_site_description
_atom_site_fract_x
_atom_site_fract_y
_atom_site_fract_z
_atom_type_partial_charge
P1    P     P_3+3 0.993950 0.412000 0.316970 0.506924
O1    O     O_2   0.823670 0.438410 0.305690 -0.357508
O2    O     O_3   0.097540 0.445020 0.403910 -0.353531
O3    O     O_3   0.626660 0.608370 0.360070 -0.411830
O4    O     O_2   0.737946 0.567860 0.225290 -0.316781
O5    O     O_3   0.935299 0.291622 0.296617 -0.642836
O6    O     O_3   0.564015 0.698348 0.233248 -0.547443
H1    H     H_    0.760144 0.756676 0.325121 0.187830
C1    C     C_3   0.665206 0.860461 0.274533 -0.874965
H2    H     H_    0.717664 0.916462 0.327170 0.240933
H3    H     H_    0.753188 0.859163 0.231532 0.312395
P2    P     P_3+3 0.694070 0.714570 0.569730 0.474720
P3    P     P_3+3 0.108873 0.775302 0.408583 0.470308
O7    O     O_2   0.863840 0.726690 0.546510 -0.332806
O8    O     O_3   0.059500 0.657930 0.401470 -0.324323
O9    O     O_2   0.985373 0.821530 0.455281 -0.397630
O10   O     O_3   0.737551 0.747275 0.672829 -0.562356
O11   O     O_3   0.057914 0.791148 0.312543 -0.519499
C2    C     C_3   0.173084 0.756800 0.267439 0.260545
H4    H     H_    0.184157 0.685249 0.272420 0.047963
H5    H     H_    0.296308 0.801456 0.287467 0.016932
C3    C     C_3   0.117034 0.755216 0.180294 0.197631
H6    H     H_    0.006584 0.699989 0.158239 0.129395
C4    C     C_3   0.362943 0.758414 0.749387 0.879364
H7    H     H_    0.475317 0.736834 0.728432 0.002291
C5    C     C_3   0.363135 0.743917 0.834350 -0.141639
H8    H     H_    0.431362 0.687393 0.842038 0.040731
H9    H     H_    0.233595 0.725037 0.844359 0.103557
Ba1   Ba    Ba6+2 0.844370 0.541120 0.463210 1.598150
C6    C     C_3   0.067958 0.244768 0.285512 0.845514
H10   H     H_    0.181973 0.285380 0.321110 0.037784
C7    C     C_3   0.090886 0.225190 0.198428 -1.096896
H11   H     H_    0.974107 0.186590 0.160321 0.269356
H12   H     H_    0.190338 0.183709 0.190036 0.275236
H13   H     H_    0.128969 0.289718 0.179188 0.192982
C8    C     C_3   0.787217 0.674914 0.703830 0.384855
H14   H     H_    0.892080 0.652281 0.676835 0.126658
H15   H     H_    0.682514 0.616264 0.693341 0.113751
C9    C     C_3   0.843016 0.709024 0.792458 -0.929766
H16   H     H_    0.947764 0.767844 0.804331 0.287178
H17   H     H_    0.883405 0.653616 0.819437 0.204119
H18   H     H_    0.738844 0.731449 0.820558 0.277225
P4    P     P_3+3 0.195760 0.588070 0.683040 0.450897
O12   O     O_2   0.366040 0.561620 0.694360 -0.405231
O13   O     O_3   0.092170 0.555060 0.596100 -0.357118
O14   O     O_3   0.563060 0.391710 0.639940 -0.399496
O15   O     O_3   0.218844 0.708700 0.697519 -0.623541
P5    P     P_3+3 0.086609 0.222907 0.590695 0.506815
O16   O     O_3   0.598320 0.387100 0.455790 -0.459462
O17   O     O_3   0.130210 0.342150 0.598540 -0.349779
O18   O     O_2   0.202828 0.179834 0.537793 -0.344489
O19   O     O_3   0.160632 0.200758 0.682032 -0.493981
Ba2   Ba    Ba6+2 0.345470 0.458960 0.536800 1.595066
P6    P     P_3+3 0.579386 0.591377 0.256646 0.503978
C10   C     C_3   0.637977 0.768612 0.299186 0.448613
H19   H     H_    0.556008 0.772568 0.344738 0.043129
H20   H     H_    0.546220 0.874747 0.246840 0.217876
O20   O     O_3   0.591400 0.612970 0.544220 -0.440740
C11   C     C_3   0.571472 0.237599 0.284036 0.282795
H21   H     H_    0.539662 0.261248 0.228552 0.079973
H22   H     H_    0.677423 0.287167 0.319369 0.181622
C12   C     C_3   0.610197 0.140693 0.262708 -0.836749
H23   H     H_    0.496256 0.091664 0.231741 0.233408
H24   H     H_    0.704367 0.139345 0.222826 0.246888
H25   H     H_    0.658771 0.118369 0.316641 0.259255
P7    P     P_3+3 0.499180 0.270228 0.425626 0.401186
O21   O     O_2   0.325880 0.273340 0.453540 -0.331948
O22   O     O_3   0.435257 0.237047 0.323218 -0.607103
H26   H     H_    0.214066 0.735381 0.144843 0.047431
C13   C     C_3   0.038292 0.206804 0.730319 0.357694
H27   H     H_    0.006183 0.276945 0.740358 0.059628
H28   H     H_    0.926159 0.154094 0.703703 0.053611
C14   C     C_3   0.105699 0.187392 0.809391 -0.885038
H29   H     H_    0.207071 0.244281 0.841748 0.269168
H30   H     H_    0.005848 0.180465 0.845645 0.199160
H31   H     H_    0.154691 0.121923 0.799901 0.273471
P8    P     P_3+3 0.600097 0.400249 0.740828 0.521642
C15   C     C_3   0.576321 0.225501 0.696179 0.540217
H32   H     H_    0.706610 0.243744 0.686947 -0.070483
O23   O     O_2   0.481208 0.459592 0.778312 -0.350001
O24   O     O_3   0.537372 0.290392 0.757415 -0.482699
H33   H     H_    0.491452 0.220567 0.640273 0.141610
H34   H     H_    0.582320 0.079841 0.668424 0.212282
C16   C     C_3   0.554394 0.131647 0.717115 -1.002893
H35   H     H_    0.424773 0.111338 0.726180 0.292834
H36   H     H_    0.639891 0.133444 0.772014 0.254998
C17   C     C_2   0.262637 0.498094 0.266616 0.154151
C18   C     C_3   0.388960 0.500774 0.210357 0.078099
C19   C     C_2   0.310521 0.514327 0.132142 -0.316598
C20   C     C_2   0.144109 0.492149 0.109405 -0.102870
C21   C     C_2   0.037134 0.459044 0.166773 0.427478
C22   C     C_1   0.104067 0.460897 0.241554 0.038756
C23   C     C_R   0.889736 0.453532 0.855550 0.490013
C24   C     C_R   0.818952 0.451360 0.777772 0.093583
C25   C     C_R   0.078879 0.531131 0.752006 0.294094
C26   C     C_R   0.150621 0.532280 0.830309 -0.328629
C27   C     C_R   0.057127 0.496067 0.883436 -0.030979
C28   C     C_2   0.064758 0.501961 0.029810 -0.065985
C29   C     C_2   0.141613 0.497443 0.965142 -0.170540
C30   C     C_R   0.914421 0.486970 0.726102 -0.546302
H37   H     H_    0.271491 0.491499 0.970576 0.156403
H38   H     H_    0.936167 0.510347 0.024455 0.214419
H39   H     H_    0.391535 0.540020 0.094240 0.194145
H40   H     H_    0.279848 0.560580 0.850489 0.176240
H41   H     H_    0.858315 0.483282 0.665952 0.181434
C31   C     C_R   0.327077 0.821631 0.454412 0.145529
H42   H     H_    0.361149 0.691527 0.481243 0.202245
H43   H     H_    0.187396 0.950015 0.394015 0.208102
C32   C     C_R   0.582581 0.792477 0.522076 0.285051
C33   C     C_R   0.771383 0.228038 0.513344 -0.368066
C34   C     C_R   0.869760 0.172522 0.545408 0.243593
C35   C     C_R   0.806656 0.079472 0.539094 -0.307632
C36   C     C_R   0.641860 0.040516 0.501397 0.077483
C37   C     C_R   0.545197 0.098208 0.466778 -0.034194
C38   C     C_R   0.569740 0.946368 0.496402 0.047046
C39   C     C_R   0.402289 0.913328 0.458357 -0.019869
C40   C     C_R   0.313645 0.971978 0.424005 -0.178939
C41   C     C_R   0.384667 0.061418 0.426636 -0.094534
C42   C     C_R   0.656800 0.884126 0.528748 -0.326705
C43   C     C_R   0.419019 0.761805 0.484656 -0.441757
C44   C     C_R   0.611215 0.191872 0.472943 0.184765
H44   H     H_    0.781760 0.904615 0.560172 0.173991
H45   H     H_    0.822407 0.299581 0.517409 0.167438
H46   H     H_    0.889274 0.039887 0.564201 0.150055
H47   H     H_    0.309472 0.101570 0.397436 0.218100
N1    N     N_R   0.445236 0.826094 0.893569 0.289829
O25   O     O_R   0.601634 0.858103 0.896943 -0.362627
O26   O     O_R   0.363440 0.866022 0.944993 -0.359545
N2    N     N_R   0.034623 0.158877 0.313029 0.228563
O27   O     O_R   0.029365 0.078984 0.266987 -0.427268
O28   O     O_R   0.001883 0.161940 0.384104 -0.413174
O29   O     O_3   0.866867 0.439387 0.144246 -0.560516
C45   C     C_3   0.817824 0.345460 0.107866 -0.181983
H48   H     H_    0.904922 0.318700 0.069231 0.109220
H49   H     H_    0.695091 0.336173 0.070416 0.165491
H50   H     H_    0.802048 0.304214 0.153264 0.158947
O30   O     O_3   0.793794 0.413014 0.903005 -0.608454
C46   C     C_3   0.825027 0.322912 0.900127 -0.167389
H51   H     H_    0.814859 0.283532 0.838620 0.120190
H52   H     H_    0.730781 0.285728 0.927825 0.172077
H53   H     H_    0.949257 0.323685 0.933327 0.127228
O31   O     O_3   0.317243 0.530528 0.345491 -0.634698
C47   C     C_3   0.415047 0.469440 0.369817 0.185522
H54   H     H_    0.502475 0.445682 0.330141 0.058945
H55   H     H_    0.341149 0.407477 0.378524 0.108849
H56   H     H_    0.488683 0.506978 0.425992 0.227826
O32   O     O_3   0.069658 0.839205 0.169604 -0.552264
C48   C     C_3   0.210089 0.905753 0.170929 0.012002
H57   H     H_    0.291260 0.880021 0.128674 0.121093
H58   H     H_    0.281104 0.930303 0.231678 0.098859
H59   H     H_    0.167284 0.966047 0.152636 0.182249
O33   O     O_3   0.365453 0.853181 0.751411 -0.590209
C49   C     C_3   0.404434 0.874874 0.680383 -0.120865
H60   H     H_    0.538325 0.876079 0.678240 0.139857
H61   H     H_    0.378143 0.944445 0.678536 0.161357
H62   H     H_    0.326595 0.827210 0.627648 0.133261

loop_
_geom_bond_atom_site_label_1
_geom_bond_atom_site_label_2
_geom_bond_distance
_ccdc_geom_bond_type
C47   H56   1.088294 S    
P7    O22   1.751608 S    
C10   H19   1.108565 S    
C23   C24   1.402406 A    
P2    Ba1   3.389550 S    
C25   C26   1.416636 A    
C14   H29   1.110933 S    
C34   C35   1.398769 A    
C48   H59   1.109091 S    
O6    C10   1.405986 S    
C17   C18   1.525117 S    
C9    H17   1.106669 S    
Ba1   O16   2.820445 S    
C30   H41   1.081374 S    
N1    O25   1.300844 A    
P3    O11   1.749225 S    
O1    Ba1   2.855527 S    
C8    H14   1.104231 S    
C2    H5    1.107694 S    
C4    C5    1.543166 S    
O11   C2    1.405134 S    
C33   C44   1.395009 A    
C6    H10   1.086774 S    
C11   O22   1.390734 S    
P8    O23   1.545717 D    
C38   C39   1.427444 A    
P8    C24   1.837893 S    
C39   C40   1.400521 A    
P1    O1    1.517076 D    
C5    N1    1.462119 S    
O2    Ba1   2.900151 S    
C33   C34   1.392754 A    
P2    C32   1.849636 S    
C12   H24   1.109475 S    
C4    O33   1.417319 S    
O32   C48   1.411659 S    
C37   C44   1.413135 A    
C16   H35   1.109978 S    
P4    Ba2   3.381779 S    
P5    O18   1.541743 D    
C2    H4    1.113519 S    
O29   C45   1.408490 S    
P2    O10   1.749075 S    
C45   H50   1.107953 S    
P4    C25   1.892036 S    
C13   H27   1.113004 S    
C1    C10   1.521167 S    
C41   H47   1.077879 S    
C24   C30   1.404712 A    
C49   H61   1.106240 S    
C1    H2    1.111009 S    
C3    H26   1.114722 S    
O3    Ba1   2.816266 S    
C31   C43   1.397275 A    
C18   C19   1.501111 S    
P5    O17   1.752876 S    
P7    O21   1.575385 D    
O13   Ba2   2.901054 S    
C11   H21   1.110906 S    
C17   C22   1.328193 D    
C19   H39   1.083766 S    
C14   H30   1.108315 S    
O12   Ba2   2.856016 S    
H1    C10   1.106846 S    
C35   C36   1.420387 A    
C27   C29   1.502786 S    
O8    Ba1   2.780205 S    
C9    H18   1.107342 S    
C3    H6    1.111162 S    
C11   H22   1.093084 S    
O17   Ba2   2.780847 S    
O16   P7    1.774558 S    
P1    O5    1.758486 S    
C7    H13   1.104704 S    
O4    P6    1.545512 D    
C2    C3    1.529589 S    
C23   O30   1.383045 S    
C4    H7    1.110037 S    
C21   C22   1.346519 D    
C15   H32   1.111565 S    
C21   O29   1.382979 S    
C28   H38   1.082905 S    
O5    C6    1.402274 S    
C31   C39   1.412857 A    
P1    O2    1.593381 S    
C7    H12   1.110665 S    
P4    O12   1.517376 D    
C12   H23   1.110787 S    
C33   H45   1.082484 S    
P4    O13   1.593374 S    
C15   H33   1.110883 S    
H34   C16   1.109877 S    
P8    O24   1.749607 S    
C26   C27   1.419382 A    
C13   C14   1.521818 S    
P1    Ba1   3.381264 S    
C5    H8    1.107541 S    
P7    C44   1.854439 S    
C48   H57   1.112890 S    
C49   H62   1.110781 S    
C1    H3    1.110544 S    
C37   C41   1.397554 A    
C46   H52   1.108374 S    
O10   C8    1.397769 S    
P2    O7    1.505382 D    
P1    C22   1.896824 S    
C38   C42   1.419991 A    
P3    O8    1.730223 S    
C45   H48   1.114095 S    
C14   H31   1.110939 S    
O7    Ba1   2.859715 S    
C19   C20   1.354193 D    
C23   C27   1.416399 A    
H42   C43   1.082064 S    
C9    H16   1.110526 S    
Ba1   O20   2.894400 S    
C32   C42   1.401232 A    
C36   C37   1.429763 A    
C42   H44   1.076273 S    
C47   H55   1.085229 S    
C11   C12   1.525315 S    
N1    O26   1.300941 A    
C12   H25   1.108990 S    
O3    P6    1.760477 S    
C25   C30   1.397597 A    
C4    O15   1.413357 S    
H43   C40   1.078713 S    
C8    C9    1.521961 S    
C48   H58   1.110554 S    
P3    C31   1.849920 S    
C46   H53   1.110117 S    
O14   P8    1.727801 S    
Ba2   O20   2.819751 S    
C35   H46   1.076585 S    
C6    N2    1.466586 S    
O30   C46   1.410417 S    
C5    H9    1.111428 S    
C7    H11   1.110181 S    
P6    C18   1.898439 S    
C26   H40   1.075850 S    
N2    O27   1.302278 A    
P2    O20   1.585525 S    
C40   C41   1.376965 A    
C6    C7    1.535648 S    
O2    Ba2   2.847225 S    
C15   O24   1.406788 S    
C20   C21   1.526049 S    
Ba1   Ba2   4.545698 S    
O16   Ba2   2.893626 S    
O14   Ba2   2.815663 S    
C8    H15   1.110536 S    
C20   C28   1.504740 S    
C1    H20   1.108387 S    
C17   O31   1.363262 S    
Ba2   O21   2.860000 S    
O19   C13   1.399935 S    
C46   H51   1.108960 S    
C15   C16   1.518685 S    
P5    O19   1.747586 S    
P5    C34   1.848303 S    
C3    O32   1.416440 S    
C28   C29   1.361688 D    
P3    O9    1.547567 D    
Ba1   O13   2.846576 S    
C45   H49   1.108881 S    
O31   C47   1.401171 S    
C16   H36   1.110057 S    
C13   H28   1.110969 S    
O33   C49   1.408215 S    
O6    P6    1.755177 S    
C36   C38   1.435837 A    
C49   H60   1.109537 S    
P4    O15   1.762256 S    
C29   H37   1.083773 S    
C47   H54   1.113375 S    
C32   C43   1.392989 A    
N2    O28   1.299295 A    
