data_mof_unit_57080.cif
_audit_creation_date              2012-12-10T21:29:40-0500
_audit_creation_method            fapswitch 2.2
_symmetry_space_group_name_H-M    P1
_symmetry_Int_Tables_number       1
_space_group_crystal_system       triclinic
_cell_length_a                    10.640372
_cell_length_b                    16.15011
_cell_length_c                    16.903168
_cell_angle_alpha                 87.153586
_cell_angle_beta                  90.25192
_cell_angle_gamma                 91.894625
_cell_volume                      2899.51339209

loop_
_atom_site_label
_atom_site_type_symbol
_atom_type_description
_atom_site_fract_x
_atom_site_fract_y
_atom_site_fract_z
_atom_type_partial_charge
C1    C     C_R   0.497565 0.488513 0.652629 0.837207
C2    C     C_R   0.502440 0.511480 0.347371 0.836774
C3    C     C_R   0.489516 0.480706 0.738002 -0.028570
C4    C     C_R   0.510568 0.519251 0.262000 -0.027534
C5    C     C_R   0.452561 0.548851 0.779094 -0.240293
C6    C     C_R   0.547612 0.451095 0.220949 -0.240669
C7    C     C_R   0.449517 0.543873 0.860729 -0.157489
C8    C     C_R   0.550785 0.456052 0.139314 -0.157664
C9    C     C_R   0.485301 0.470639 0.902272 0.338694
C10   C     C_R   0.515048 0.529274 0.097734 0.338699
C11   C     C_R   0.515707 0.401250 0.861128 -0.177071
C12   C     C_R   0.484530 0.598663 0.138842 -0.176751
C13   C     C_R   0.518220 0.406114 0.778934 -0.212968
C14   C     C_R   0.481874 0.593817 0.221031 -0.213079
C15   C     C_R   0.433247 0.747514 0.454626 -0.056577
C16   C     C_R   0.566174 0.250387 0.544783 -0.023550
C17   C     C_R   0.413955 0.832740 0.441924 0.048546
C18   C     C_R   0.581231 0.164605 0.555321 0.057163
C19   C     C_R   0.482975 0.889261 0.488692 0.328968
C20   C     C_R   0.511028 0.110372 0.508158 0.298804
C21   C     C_R   0.568223 0.855634 0.546001 -0.318384
C22   C     C_R   0.426671 0.145737 0.451593 -0.309806
C23   C     C_R   0.739190 0.499547 0.499568 0.882024
C24   C     C_R   0.260812 0.500454 0.500433 0.881743
C25   C     C_R   0.582934 0.769115 0.555522 -0.036213
C26   C     C_R   0.414930 0.232656 0.443687 -0.037453
C27   C     C_R   0.868889 0.493508 0.353640 -0.171551
C28   C     C_R   0.131119 0.506509 0.646361 -0.170980
C29   C     C_R   0.933863 0.492297 0.282310 -0.180901
C30   C     C_R   0.066147 0.507731 0.717689 -0.180897
C31   C     C_R   0.064839 0.494327 0.282270 0.063243
C32   C     C_R   0.935171 0.505708 0.717730 0.063123
C33   C     C_R   0.130395 0.497425 0.353880 -0.207937
C34   C     C_R   0.869613 0.502600 0.646121 -0.206407
C35   C     C_R   0.065377 0.498364 0.426925 0.050875
C36   C     C_R   0.934629 0.501649 0.573076 0.050819
C37   C     C_R   0.934183 0.496589 0.426791 0.070750
C38   C     C_R   0.065823 0.503422 0.573210 0.070816
C39   C     C_R   0.128572 0.501498 0.500156 -0.172988
C40   C     C_R   0.871433 0.498506 0.499845 -0.173142
H1    H     H_    0.623168 0.895646 0.583411 0.168828
H2    H     H_    0.370454 0.107220 0.413745 0.164727
H3    H     H_    0.647783 0.744133 0.599289 0.137671
H4    H     H_    0.350615 0.259397 0.400544 0.138904
H5    H     H_    0.767383 0.492001 0.350792 0.136214
H6    H     H_    0.232626 0.508014 0.649207 0.136172
H7    H     H_    0.881722 0.489897 0.227198 0.149046
H8    H     H_    0.118289 0.510138 0.772800 0.149019
H9    H     H_    0.232085 0.499337 0.351795 0.129588
H10   H     H_    0.767924 0.500694 0.648207 0.129780
H11   H     H_    0.573510 0.393753 0.251861 0.166620
H12   H     H_    0.426635 0.606202 0.748213 0.166916
H13   H     H_    0.578954 0.402257 0.108848 0.149729
H14   H     H_    0.421407 0.597664 0.891222 0.149733
H15   H     H_    0.541598 0.344436 0.892930 0.138423
H16   H     H_    0.458649 0.655461 0.107007 0.137919
H17   H     H_    0.545717 0.352660 0.747653 0.155461
H18   H     H_    0.454275 0.647262 0.252285 0.151304
H19   H     H_    0.620121 0.291973 0.581083 0.149003
H20   H     H_    0.380676 0.704212 0.419355 0.154008
N1    N     N_2   0.494862 0.465425 0.985291 -0.201004
N2    N     N_2   0.505561 0.534468 0.014714 -0.201026
N3    N     N_R   0.515300 0.716920 0.509720 -0.095552
N4    N     N_R   0.484700 0.283080 0.490280 -0.101921
N5    N     N_2   0.464558 0.976919 0.477121 -0.174689
N6    N     N_2   0.529701 0.022680 0.519714 -0.187334
O1    O     O_R   0.494530 0.422540 0.612660 -0.631467
O2    O     O_R   0.505470 0.577460 0.387340 -0.633428
O3    O     O_R   0.504350 0.561840 0.618900 -0.617823
O4    O     O_R   0.495650 0.438160 0.381100 -0.618641
O5    O     O_R   0.678310 0.430340 0.496890 -0.629539
O6    O     O_R   0.321690 0.569660 0.503110 -0.629536
O7    O     O_R   0.688140 0.569650 0.503130 -0.604357
O8    O     O_R   0.311860 0.430350 0.496870 -0.604909
Zn1   Zn    Zn3+2 0.493440 0.406980 0.495830 0.942380
Zn2   Zn    Zn3+2 0.506560 0.593020 0.504170 0.942182
C41   C     C_1   0.867592 0.506796 0.791301 0.140613
N7    N     N_1   0.813218 0.507701 0.850380 -0.190250
C42   C     C_1   0.132421 0.493260 0.208698 0.139502
N8    N     N_1   0.186797 0.492373 0.149618 -0.190513
C43   C     C_3   0.672815 0.132298 0.617224 -0.426586
C44   C     C_3   0.604030 0.098166 0.691526 -0.842118
H21   H     H_    0.548675 0.147498 0.717018 0.254987
H22   H     H_    0.539883 0.045166 0.677740 0.268644
H23   H     H_    0.673553 0.076254 0.736371 0.247135
H24   H     H_    0.729945 0.083204 0.592803 0.219679
H25   H     H_    0.739881 0.182618 0.634364 0.200158
C45   C     C_3   0.317914 0.854399 0.377302 -0.423041
C46   C     C_3   0.290384 0.945379 0.358627 -0.831034
H26   H     H_    0.250066 0.973403 0.411131 0.264770
H27   H     H_    0.376523 0.980029 0.337258 0.263495
H28   H     H_    0.219320 0.949587 0.310398 0.240587
H29   H     H_    0.349733 0.828362 0.321360 0.202253
H30   H     H_    0.227133 0.822019 0.393616 0.209945

loop_
_geom_bond_atom_site_label_1
_geom_bond_atom_site_label_2
_ccdc_geom_bond_type
O5    Zn1   S    
C27   C29   A    
C17   C45   S    
C15   H20   S    
C2    C4    S    
O6    Zn2   S    
C25   H3    S    
C43   C44   S    
C26   H4    S    
C41   N7    T    
C28   H6    S    
C29   H7    S    
C9    N1    S    
C30   H8    S    
C35   C37   A    
C37   C40   A    
C2    O2    A    
C38   C39   A    
C33   C35   A    
C13   H17   S    
N3    Zn2   S    
C33   H9    S    
C23   C40   S    
C18   C43   S    
O3    Zn2   S    
C7    C9    A    
C25   N3    A    
C26   N4    A    
C17   C19   A    
C32   C41   S    
C31   C33   A    
C5    H12   S    
C6    H11   S    
C46   H27   S    
C18   C20   A    
C43   H24   S    
C3    C13   A    
C27   H5    S    
C10   N2    S    
C23   O7    A    
C14   H18   S    
C45   H30   S    
C34   H10   S    
O8    Zn1   S    
C23   O5    A    
C36   C40   A    
C4    C6    A    
C5    C7    A    
C6    C8    A    
C1    O3    A    
C1    C3    S    
C16   H19   S    
C32   C34   A    
C35   C39   A    
C28   C38   A    
C43   H25   S    
C46   H28   S    
C9    C11   A    
C12   H16   S    
C10   C12   A    
C21   H1    S    
C16   C18   A    
C12   C14   A    
C44   H21   S    
C44   H22   S    
O7    Zn2   S    
O1    Zn1   S    
C11   H15   S    
C24   O6    A    
C20   N6    S    
C15   C17   A    
C21   C25   A    
C45   H29   S    
C19   C21   A    
C20   C22   A    
C3    C5    A    
C8    H13   S    
C31   C42   S    
O2    Zn2   S    
C44   H23   S    
C28   C30   A    
C29   C31   A    
C30   C32   A    
C11   C13   A    
C24   O8    A    
C22   H2    S    
C27   C37   A    
C36   C38   A    
C1    O1    A    
N4    Zn1   S    
C19   N5    S    
C34   C36   A    
C4    C14   A    
N1    N2    D    
C42   N8    T    
C45   C46   S    
C8    C10   A    
N5    N6    D    
C22   C26   A    
O4    Zn1   S    
C15   N3    A    
C16   N4    A    
C7    H14   S    
C46   H26   S    
C2    O4    A    
C24   C39   S    
