data_mof_unit_57768.cif
_audit_creation_date              2012-12-11T18:11:27-0500
_audit_creation_method            fapswitch 2.2
_symmetry_space_group_name_H-M    P1
_symmetry_Int_Tables_number       1
_space_group_crystal_system       triclinic
_cell_length_a                    8.231813
_cell_length_b                    12.810685
_cell_length_c                    18.730503
_cell_angle_alpha                 99.830919
_cell_angle_beta                  90.681562
_cell_angle_gamma                 99.182902
_cell_volume                      1919.72453943

loop_
_atom_site_label
_atom_site_type_symbol
_atom_type_description
_atom_site_fract_x
_atom_site_fract_y
_atom_site_fract_z
_atom_type_partial_charge
Ba1   Ba    Ba6+2 0.852780 0.548340 0.465070 1.655368
Ba2   Ba    Ba6+2 0.337060 0.451750 0.534940 1.684466
C1    C     C_3   0.546061 0.869521 0.238641 -0.387096
C2    C     C_R   0.917512 0.378647 0.092370 -0.099186
C3    C     C_R   0.756559 0.424709 0.957691 0.057522
C4    C     C_3   0.117145 0.752131 0.264049 0.348928
C5    C     C_R   0.926806 0.459272 0.979661 0.016535
C6    C     C_R   0.704570 0.421816 0.885964 -0.102983
C7    C     C_R   0.812081 0.456733 0.834620 -0.060396
C8    C     C_R   0.973846 0.507135 0.857761 0.005898
C9    C     C_R   0.031179 0.510095 0.930807 0.007804
C10   C     C_R   0.760321 0.445652 0.761018 -0.032670
C11   C     C_R   0.869112 0.485235 0.711584 -0.273869
C12   C     C_3   0.615427 0.814916 0.294698 0.282149
C13   C     C_R   0.024073 0.544063 0.733854 0.027394
C14   C     C_R   0.076837 0.556494 0.808176 -0.035125
C15   C     C_R   0.153809 0.506908 0.073061 0.021560
C16   C     C_3   0.076114 0.769487 0.187363 0.181274
C17   C     C_R   0.213727 0.506470 0.145275 -0.008243
C18   C     C_R   0.114543 0.450770 0.193022 -0.058391
C19   C     C_R   0.971403 0.383005 0.163716 -0.035134
C20   C     C_R   0.228123 0.617614 0.834862 -0.030610
C21   C     C_R   0.285224 0.620745 0.905556 -0.082773
C22   C     C_R   0.192087 0.564635 0.954386 0.014953
C23   C     C_3   0.494547 0.259107 0.306741 0.682285
C24   C     C_R   0.252928 0.563979 0.026138 0.024618
C25   C     C_R   0.413106 0.614914 0.051961 -0.069525
C26   C     C_R   0.373837 0.559678 0.169215 -0.040962
C27   C     C_R   0.472873 0.610463 0.120906 -0.100717
C28   C     C_3   0.233590 0.785089 0.619411 0.286888
C29   C     C_R   0.429154 0.561584 0.241200 -0.018857
C30   C     C_R   0.319664 0.521448 0.290321 -0.252348
C31   C     C_R   0.165541 0.461217 0.267412 0.090142
C32   C     C_R   0.763638 0.182602 0.529610 0.120706
C33   C     C_R   0.430849 0.807440 0.470004 -0.284045
C34   C     C_3   0.480069 0.208783 0.224781 0.409487
C35   C     C_R   0.403946 0.982944 0.445812 -0.096678
C36   C     C_R   0.340421 0.874909 0.441431 -0.006628
C37   C     C_R   0.580571 0.848160 0.508511 0.080449
C38   C     C_R   0.646408 0.959841 0.514751 -0.052114
C39   C     C_R   0.555756 0.027511 0.482649 -0.112667
C40   C     C_3   0.260540 0.906587 0.637339 -0.380791
C41   C     C_R   0.616170 0.138961 0.490493 0.038130
C42   C     C_R   0.860706 0.116012 0.555633 -0.033299
C43   C     C_R   0.799997 0.006239 0.550766 -0.142647
C44   C     C_3   0.949326 0.211363 0.375210 0.366308
C45   C     C_3   0.035779 0.238653 0.732644 0.378723
C46   C     C_3   0.886879 0.090683 0.353288 -0.275360
C47   C     C_3   0.726792 0.706938 0.682556 0.332504
C48   C     C_3   0.726033 0.738592 0.765106 -0.223932
C49   C     C_3   0.973417 0.038874 0.288248 -0.304716
C50   C     C_3   0.864376 0.830986 0.794378 -0.400534
C51   C     C_3   0.484814 0.295865 0.177155 -0.448482
C52   C     C_3   0.623466 0.147927 0.205150 -0.305863
C53   C     C_3   0.571565 0.138046 0.685034 -0.332361
C54   C     C_3   0.619584 0.401257 0.008560 -0.423659
C55   C     C_3   0.022119 0.209374 0.807935 -0.391286
C56   C     C_3   0.548399 0.200716 0.759819 0.363282
C57   C     C_3   0.472689 0.124394 0.809319 -0.344754
C58   C     C_R   0.995604 0.449615 0.048576 0.013508
H1    H     H_    0.692077 0.875869 0.335900 0.065748
H2    H     H_    0.633139 0.633703 0.666430 0.054516
H3    H     H_    0.470193 0.928080 0.265410 0.135009
H4    H     H_    0.740331 0.668464 0.790721 0.061642
H5    H     H_    0.605518 0.762493 0.780645 0.117896
H6    H     H_    0.510580 0.777477 0.323632 -0.033408
H7    H     H_    0.468030 0.808817 0.198177 0.172907
H8    H     H_    0.609779 0.318197 0.316917 -0.040726
H9    H     H_    0.648050 0.909244 0.209603 0.109714
H10   H     H_    0.122490 0.315541 0.736212 0.086836
H11   H     H_    0.911979 0.249729 0.714193 -0.065638
H12   H     H_    0.359879 0.934269 0.680060 0.115426
H13   H     H_    0.145137 0.202075 0.829484 0.140927
H14   H     H_    0.972861 0.272628 0.845331 0.073659
H15   H     H_    0.937628 0.131936 0.805587 0.106819
H16   H     H_    0.670427 0.239992 0.784852 -0.014884
H17   H     H_    0.456801 0.170834 0.863834 0.101041
H18   H     H_    0.554556 0.065149 0.815507 0.074812
H19   H     H_    0.029466 0.681978 0.274782 0.064286
H20   H     H_    0.350363 0.080773 0.786784 0.135266
H21   H     H_    0.828155 0.476415 0.655482 0.110787
H22   H     H_    0.575992 0.393152 0.871101 0.102209
H23   H     H_    0.296308 0.941273 0.588534 0.086705
H24   H     H_    0.901360 0.331224 0.195307 0.080734
H25   H     H_    0.305927 0.663626 0.801416 0.097487
H26   H     H_    0.597822 0.649197 0.135904 0.098687
H27   H     H_    0.359097 0.532132 0.346692 0.066612
H28   H     H_    0.815992 0.316411 0.072023 0.072704
H29   H     H_    0.404085 0.669045 0.920040 0.061070
H30   H     H_    0.243967 0.734137 0.266785 -0.058828
H31   H     H_    0.499062 0.656741 0.019548 0.069794
H32   H     H_    0.329803 0.031479 0.422129 0.113266
H33   H     H_    0.874212 0.959120 0.575646 0.116656
H34   H     H_    0.145578 0.934490 0.657313 0.141311
H35   H     H_    0.379463 0.723310 0.465736 0.060870
H36   H     H_    0.074171 0.693399 0.148957 0.052236
H37   H     H_    0.951497 0.791505 0.183890 0.085993
H38   H     H_    0.349002 0.758297 0.600515 0.005231
H39   H     H_    0.135294 0.758570 0.576160 0.077150
H40   H     H_    0.955219 0.075653 0.239848 0.131202
H41   H     H_    0.107084 0.046847 0.301676 0.182183
H42   H     H_    0.918698 0.953300 0.273558 0.147343
H43   H     H_    0.986011 0.806518 0.782694 0.142015
H44   H     H_    0.853877 0.902713 0.769727 0.153102
H45   H     H_    0.846679 0.249353 0.398888 -0.081131
H46   H     H_    0.856476 0.852804 0.854054 0.119006
H47   H     H_    0.393797 0.367943 0.365842 0.282291
H48   H     H_    0.239047 0.174494 0.215343 0.324655
H49   H     H_    0.377912 0.337768 0.187053 0.116157
H50   H     H_    0.599463 0.355476 0.188610 0.102131
H51   H     H_    0.477988 0.259022 0.118863 0.131088
H52   H     H_    0.623796 0.118366 0.145824 0.114049
H53   H     H_    0.742396 0.198309 0.223810 0.057165
H54   H     H_    0.612320 0.078569 0.232848 0.131671
H55   H     H_    0.168057 0.918848 0.189240 0.343444
H56   H     H_    0.053199 0.224126 0.415664 0.058625
H57   H     H_    0.646529 0.192959 0.654618 0.092459
H58   H     H_    0.636900 0.069569 0.688776 0.059690
H59   H     H_    0.451343 0.109371 0.655268 0.152923
H60   H     H_    0.589266 0.313473 0.007541 0.108323
H61   H     H_    0.649985 0.446384 0.064290 0.134612
H62   H     H_    0.505255 0.426643 0.990727 0.122071
H63   H     H_    0.885968 0.315728 0.514203 0.300182
H64   H     H_    0.752959 0.077068 0.339871 0.082780
H65   H     H_    0.904840 0.050085 0.399912 0.089273
H66   H     H_    0.849388 0.688958 0.666170 -0.004439
O1    O     O_2   0.873090 0.425890 0.325140 -0.484820
O2    O     O_2   0.203206 0.124036 0.554991 -0.490306
O3    O     O_3   0.095030 0.156497 0.685727 -0.595170
O4    O     O_3   0.122420 0.434370 0.414380 -0.494114
O5    O     O_3   0.578370 0.633800 0.536380 -0.491614
O6    O     O_2   0.341510 0.231850 0.465510 -0.446594
O7    O     O_3   0.499274 0.177561 0.347747 -0.665052
O8    O     O_2   0.440069 0.475389 0.754993 -0.493160
O9    O     O_3   0.441927 0.275088 0.754387 -0.577949
O10   O     O_3   0.659500 0.627100 0.368810 -0.463994
O11   O     O_2   0.769260 0.545308 0.242459 -0.508335
O12   O     O_3   0.689238 0.791962 0.650651 -0.644064
O13   O     O_3   0.000557 0.255129 0.314369 -0.617726
O14   O     O_3   0.715428 0.743936 0.259662 -0.607618
O15   O     O_2   0.848200 0.768190 0.534530 -0.477272
O16   O     O_3   0.081160 0.685950 0.404810 -0.492675
O17   O     O_2   0.003493 0.878285 0.446830 -0.481285
O18   O     O_3   0.358098 0.308922 0.324569 -0.770276
O19   O     O_3   0.333117 0.134401 0.209302 -0.707795
O20   O     O_3   0.193707 0.848340 0.165633 -0.722535
O21   O     O_3   0.803947 0.292145 0.548710 -0.720485
O22   O     O_3   0.101754 0.844497 0.314251 -0.623125
O23   O     O_2   0.316610 0.574140 0.674900 -0.461370
O24   O     O_3   0.067290 0.565720 0.585630 -0.497463
O25   O     O_3   0.530210 0.372990 0.631200 -0.418691
O26   O     O_3   0.189764 0.745431 0.682575 -0.647827
O27   O     O_3   0.611340 0.366290 0.463630 -0.451481
O28   O     O_3   0.108550 0.314140 0.595200 -0.457948
P1    P     P_3+3 0.041040 0.394770 0.336330 1.010987
P2    P     P_3+3 0.672880 0.754030 0.556100 0.969437
P3    P     P_3+3 0.132150 0.821952 0.402635 0.948524
P4    P     P_3+3 0.148670 0.605320 0.663680 0.966534
P5    P     P_3+3 0.066982 0.176056 0.596508 0.987935
P6    P     P_3+3 0.642894 0.615116 0.275573 0.941593
P7    P     P_3+3 0.522243 0.229022 0.441164 0.982067
P8    P     P_3+3 0.546982 0.390445 0.726005 0.966093

loop_
_geom_bond_atom_site_label_1
_geom_bond_atom_site_label_2
_ccdc_geom_bond_type
C51   H50   S    
Ba2   O24   S    
C44   H45   S    
C50   H43   S    
C25   C27   A    
C48   H4    S    
C3    C54   S    
C17   C18   A    
C43   H33   S    
C57   H17   S    
C56   H16   S    
C53   H59   S    
C49   H42   S    
C5    C9    A    
C47   H66   S    
H55   O20   S    
C24   C25   A    
C45   O3    S    
C6    H22   S    
C15   C24   A    
C26   C27   A    
C1    H9    S    
C22   C24   A    
C51   H49   S    
C13   C14   A    
C52   H53   S    
C11   H21   S    
C9    C22   A    
C49   H40   S    
C16   H36   S    
Ba1   Ba2   S    
C20   H25   S    
C55   H13   S    
Ba1   P1    S    
O6    P7    D    
C34   C51   S    
Ba2   O4    S    
C46   H65   S    
C28   O26   S    
C46   C49   S    
C50   H44   S    
O23   P4    D    
C6    C7    A    
C48   C50   S    
C21   C22   A    
C21   H29   S    
C25   H31   S    
O4    P1    S    
Ba1   O16   S    
C16   H37   S    
Ba1   O10   S    
C23   O7    S    
C7    C8    A    
C29   P6    S    
C35   H32   S    
C51   H51   S    
Ba2   O23   S    
C50   H46   S    
Ba2   O28   S    
C47   O12   S    
C39   C41   A    
C2    C58   A    
C23   H8    S    
C57   H18   S    
C48   H5    S    
C54   H60   S    
O26   P4    S    
C38   C43   A    
C4    C16   S    
C44   C46   S    
C40   H23   S    
O17   P3    D    
C32   C42   A    
C13   P4    S    
Ba1   O4    S    
O1    P1    D    
C37   C38   A    
C3    C5    A    
C15   C58   A    
Ba1   O5    S    
C56   C57   S    
C4    H30   S    
C30   H27   S    
C28   H39   S    
O8    P8    D    
O27   P7    S    
C54   H62   S    
C55   H14   S    
Ba1   P2    S    
C33   C37   A    
C45   H10   S    
C35   C36   A    
C45   C55   S    
C4    O22   S    
C32   O21   S    
Ba2   O6    S    
C29   C30   A    
C19   H24   S    
O13   P1    S    
Ba2   P4    S    
O25   P8    S    
C33   C36   A    
C40   H12   S    
Ba2   O5    S    
C12   H6    S    
C52   H52   S    
Ba1   O24   S    
C18   C19   A    
Ba1   O27   S    
C17   C26   A    
C45   H11   S    
C27   H26   S    
C1    C12   S    
C18   C31   A    
C41   P7    S    
C38   C39   A    
C12   O14   S    
Ba2   O27   S    
C1    H3    S    
C11   C13   A    
O9    P8    S    
C23   O18   S    
O16   P3    S    
C5    C58   A    
O3    P5    S    
C42   C43   A    
H48   O19   S    
C53   H57   S    
O12   P2    S    
Ba2   O25   S    
O5    P2    S    
C14   C20   A    
C47   H2    S    
O24   P4    S    
O11   P6    D    
C40   H34   S    
C26   C29   A    
C1    H7    S    
C32   C41   A    
Ba1   O1    S    
C36   P3    S    
H63   O21   S    
C16   O20   S    
O7    P7    S    
C57   H20   S    
C46   H64   S    
C3    C6    A    
C31   P1    S    
O15   P2    D    
C2    H28   S    
C33   H35   S    
C56   O9    S    
C49   H41   S    
C28   H38   S    
C44   H56   S    
C37   P2    S    
C30   C31   A    
C55   H15   S    
O28   P5    S    
C8    C14   A    
C54   H61   S    
C2    C19   A    
C12   H1    S    
C4    H19   S    
C52   H54   S    
C15   C17   A    
O22   P3    S    
C35   C39   A    
C7    C10   A    
Ba1   O15   S    
C34   C52   S    
C8    C9    A    
C23   C34   S    
C10   P8    S    
O10   P6    S    
C34   O19   S    
C10   C11   A    
C47   C48   S    
C53   C56   S    
C42   P5    S    
C20   C21   A    
C28   C40   S    
H47   O18   S    
O14   P6    S    
O2    P5    D    
C44   O13   S    
C53   H58   S    
