data_mof_unit_40368.cif
_audit_creation_date              2013-03-05T15:42:33-0500
_audit_creation_method            fapswitch 2.2
_symmetry_space_group_name_H-M    P1
_symmetry_Int_Tables_number       1
_space_group_crystal_system       triclinic
_cell_length_a                    10.776997
_cell_length_b                    10.936091
_cell_length_c                    9.715704
_cell_angle_alpha                 90.194209
_cell_angle_beta                  90.060539
_cell_angle_gamma                 90.489645
_cell_volume                      1145.02651222

loop_
_atom_site_label
_atom_site_type_symbol
_atom_site_description
_atom_site_fract_x
_atom_site_fract_y
_atom_site_fract_z
_atom_type_partial_charge
O1    O     O_R   0.500020 0.321960 0.617040 -0.576395
O2    O     O_R   0.499980 0.321920 0.382900 -0.525781
C1    C     C_R   0.499227 0.265498 0.499909 0.887200
O3    O     O_R   0.319670 0.500020 0.617100 -0.582717
O4    O     O_R   0.319630 0.499980 0.382950 -0.532618
C2    C     C_R   0.262865 0.501225 0.500026 0.801382
Cu1   Cu    Cu3+1 0.500020 0.500020 0.638630 0.991798
Cu2   Cu    Cu3+1 0.499980 0.499980 0.361370 1.049058
O5    O     O_R   0.500020 0.678080 0.617100 -0.580765
O6    O     O_R   0.499980 0.678040 0.382960 -0.582906
O7    O     O_R   0.680370 0.500020 0.617050 -0.571274
O8    O     O_R   0.680330 0.499980 0.382900 -0.542336
C3    C     C_R   0.500712 0.734518 0.500290 0.804894
C4    C     C_R   0.737370 0.498407 0.499838 0.847228
C5    C     C_R   0.130025 0.717484 0.587248 -0.209467
H1    H     H_    0.230303 0.722422 0.587401 0.150215
C6    C     C_R   0.065791 0.820672 0.630233 -0.177474
H2    H     H_    0.118198 0.900587 0.662767 0.186148
C7    C     C_R   0.935918 0.821075 0.630995 0.395576
C8    C     C_R   0.871264 0.715897 0.586731 -0.222242
H3    H     H_    0.771054 0.718107 0.585586 0.165766
C9    C     C_R   0.935055 0.609616 0.543933 -0.002630
C10   C     C_R   0.065927 0.610845 0.544580 0.101527
C11   C     C_R   0.129425 0.505776 0.500262 -0.126759
C12   C     C_R   0.065838 0.401591 0.456231 -0.177863
C13   C     C_R   0.937173 0.398162 0.455055 0.327452
C14   C     C_R   0.871496 0.502482 0.498972 -0.189354
C15   C     C_2   0.505963 0.932715 0.387544 -0.137113
C16   C     C_2   0.503395 0.866473 0.503300 -0.266286
H4    H     H_    0.507127 0.887741 0.287692 0.181016
H5    H     H_    0.505871 0.907194 0.604693 0.183019
C17   C     C_2   0.510155 0.066772 0.387864 -0.049775
C18   C     C_2   0.494703 0.133599 0.502260 -0.253755
H6    H     H_    0.476858 0.093444 0.601807 0.150665
C19   C     C_2   0.425280 0.432760 0.921399 -0.092770
N1    N     N_2   0.498640 0.498660 0.846910 -0.300314
H7    H     H_    0.361419 0.370827 0.869262 0.190073
H8    H     H_    0.554908 0.562134 0.894512 0.199545
C20   C     C_2   0.419549 0.438129 0.076728 0.417911
N2    N     N_2   0.498610 0.498630 0.153040 -0.331759
H9    H     H_    0.572056 0.541882 0.106232 0.174144
H10   H     H_    0.117193 0.321886 0.422989 0.199000
N3    N     N_R   0.320934 0.370953 0.140359 0.149404
O9    O     O_R   0.338397 0.257322 0.173508 -0.363736
O10   O     O_R   0.207920 0.410179 0.127569 -0.343230
N4    N     N_R   0.870036 0.927841 0.676626 0.150070
O11   O     O_R   0.930200 0.024957 0.717937 -0.300516
O12   O     O_R   0.749371 0.928220 0.680147 -0.368994
N5    N     N_R   0.875435 0.286438 0.414416 0.125816
O13   O     O_R   0.921804 0.181684 0.449964 -0.295668
O14   O     O_R   0.786377 0.287691 0.324047 -0.332485
H11   H     H_    0.525877 0.111246 0.289544 0.208074

loop_
_geom_bond_atom_site_label_1
_geom_bond_atom_site_label_2
_geom_bond_distance
_ccdc_geom_bond_type
C12   H10   1.084957 S    
O4    Cu2   1.955128 S    
C19   C20   1.511414 S    
C10   C11   1.408789 A    
C5    C6    1.392057 A    
C4    C14   1.445822 S    
Cu1   N1    2.023761 S    
C7    C8    1.405634 A    
Cu2   O8    1.954635 S    
C2    C11   1.439379 S    
C17   C18   1.339447 D    
N5    O14   1.300290 A    
C5    C10   1.411189 A    
C6    H2    1.082599 S    
C7    N4    1.440580 S    
Cu1   Cu2   2.693774 S    
C16   H5    1.079922 S    
O1    Cu1   1.957839 S    
C8    H3    1.080485 S    
Cu1   O7    1.955127 S    
N3    O10   1.300709 A    
C13   C14   1.412702 A    
O3    Cu1   1.954635 S    
N1    H8    1.026407 S    
N2    H9    1.026102 S    
C6    C7    1.399714 A    
C8    C9    1.416836 A    
O2    C1    1.295322 A    
C9    C14   1.419474 A    
N3    O9    1.299987 A    
O4    C2    1.292206 A    
O7    C4    1.294621 A    
N4    O12   1.300934 A    
C1    C18   1.443122 S    
C5    H1    1.081584 S    
C15   C17   1.466357 S    
C18   H6    1.080308 S    
C11   C12   1.390509 A    
O3    C2    1.291321 A    
N5    O13   1.301355 A    
C13   N5    1.440034 S    
C3    C16   1.443317 S    
C20   N2    1.303517 D    
Cu1   O5    1.959188 S    
O5    C3    1.293706 A    
C9    C10   1.410360 A    
C15   C16   1.340022 D    
O2    Cu2   1.959189 S    
C20   N3    1.429168 S    
Cu2   N2    2.024115 S    
C19   H7    1.085338 S    
C12   C13   1.386843 A    
N4    O11   1.301647 A    
Cu2   O6    1.957837 S    
C17   H11   1.086210 S    
C19   N1    1.289661 D    
O8    C4    1.291438 A    
C15   H4    1.086336 S    
O1    C1    1.292879 A    
O6    C3    1.294657 A    
