data_mof_unit_39931.cif
_audit_creation_date              2012-12-10T16:35:58-0500
_audit_creation_method            fapswitch 2.2
_symmetry_space_group_name_H-M    P1
_symmetry_Int_Tables_number       1
_space_group_crystal_system       triclinic
_cell_length_a                    14.219099
_cell_length_b                    16.562964
_cell_length_c                    13.078291
_cell_angle_alpha                 90.029505
_cell_angle_beta                  107.168266
_cell_angle_gamma                 89.945559
_cell_volume                      2942.83051277

loop_
_atom_site_label
_atom_site_type_symbol
_atom_type_description
_atom_site_fract_x
_atom_site_fract_y
_atom_site_fract_z
_atom_type_partial_charge
C1    C     C_R   0.315661 0.844641 0.477096 0.595870
C2    C     C_R   0.685659 0.843786 0.522806 0.551905
C3    C     C_R   0.185339 0.656731 0.523832 0.541980
C4    C     C_R   0.185659 0.343786 0.522806 0.551905
C5    C     C_R   0.546564 0.002740 0.785843 0.546170
C6    C     C_R   0.046564 0.502740 0.785843 0.546170
C7    C     C_R   0.455117 0.999958 0.215200 0.545428
C8    C     C_R   0.955117 0.499957 0.215200 0.545427
C9    C     C_2   0.446532 0.000238 0.101449 -0.037041
C10   C     C_2   0.946532 0.500238 0.101449 -0.037042
C11   C     C_2   0.517010 0.032165 0.064418 0.208936
C12   C     C_R   0.315752 0.155344 0.477370 0.598495
C13   C     C_2   0.017009 0.532165 0.064418 0.208936
C14   C     C_2   0.564284 0.007484 0.902312 -0.055161
C15   C     C_2   0.064284 0.507485 0.902312 -0.055161
C16   C     C_2   0.499121 0.039857 0.948326 0.198763
C17   C     C_2   0.999121 0.539857 0.948326 0.198764
C18   C     C_2   0.757749 0.221356 0.534759 0.160220
C19   C     C_2   0.761483 0.783180 0.527554 0.186674
C20   C     C_2   0.257749 0.721356 0.534759 0.160220
C21   C     C_2   0.261483 0.283180 0.527554 0.186675
C22   C     C_R   0.815661 0.344641 0.477096 0.595870
C23   C     C_R   0.815752 0.655344 0.477370 0.598495
C24   C     C_2   0.241065 0.784871 0.465225 0.220138
C25   C     C_2   0.241153 0.214509 0.467300 0.206361
C26   C     C_2   0.741065 0.284871 0.465225 0.220138
C27   C     C_2   0.741153 0.714509 0.467299 0.206362
C28   C     C_R   0.685338 0.156731 0.523832 0.541979
Cl1   Cl    Cl    0.630527 0.065792 0.151351 -0.477168
Cl2   Cl    Cl    0.130526 0.565793 0.151350 -0.477167
H1    H     H_    0.631879 0.980553 0.952553 0.139950
H2    H     H_    0.938439 0.847166 0.777824 0.392095
H3    H     H_    0.587574 0.399185 0.237390 0.384583
H4    H     H_    0.569011 0.576711 0.285867 0.389464
H5    H     H_    0.087570 0.899190 0.237398 0.384583
H6    H     H_    0.069006 0.076705 0.285882 0.389465
H7    H     H_    0.131880 0.480554 0.952553 0.139950
H8    H     H_    0.380863 0.974007 0.046534 0.107041
H9    H     H_    0.880863 0.474007 0.046534 0.107041
H10   H     H_    0.304028 0.121301 0.982470 0.357032
H11   H     H_    0.804027 0.621301 0.982470 0.357031
H12   H     H_    0.337132 0.647228 0.771153 0.363946
H13   H     H_    0.438442 0.347172 0.777819 0.392094
H14   H     H_    0.837130 0.147228 0.771154 0.363946
O1    O     O_3   0.500010 1.000000 0.500000 -0.527617
O2    O     O_R   0.103010 0.337110 0.452470 -0.488362
O3    O     O_R   0.316670 0.095240 0.537470 -0.476546
O4    O     O_R   0.316670 0.904760 0.537470 -0.492597
O5    O     O_R   0.816670 0.595240 0.537470 -0.476546
O6    O     O_R   0.816670 0.404760 0.537470 -0.492597
O7    O     O_R   0.703490 0.904800 0.585920 -0.477371
O8    O     O_R   0.703490 0.095200 0.585920 -0.502969
O9    O     O_R   0.203490 0.404800 0.585920 -0.477370
O10   O     O_R   0.203490 0.595200 0.585920 -0.502969
O11   O     O_R   0.458050 1.000000 0.725250 -0.458652
O12   O     O_3   0.000010 0.500000 0.500000 -0.527617
O13   O     O_R   0.958050 0.500000 0.725250 -0.458652
O14   O     O_R   0.461630 0.932310 0.264690 -0.509263
O15   O     O_R   0.461630 0.067690 0.264690 -0.480115
O16   O     O_R   0.961630 0.432310 0.264690 -0.509264
O17   O     O_R   0.961630 0.567690 0.264690 -0.480114
O18   O     O_R   0.618750 0.000000 0.745380 -0.530555
O19   O     O_R   0.118750 0.500000 0.745380 -0.530555
O20   O     O_2   0.417529 0.150106 0.796387 -0.179484
O21   O     O_2   0.312216 0.039283 0.820365 -0.240444
O22   O     O_3   0.354405 0.153904 0.962760 -0.448202
O23   O     O_R   0.376880 0.837120 0.424150 -0.491457
O24   O     O_2   0.917528 0.650106 0.796386 -0.179484
O25   O     O_2   0.812216 0.539282 0.820365 -0.240444
O26   O     O_3   0.854404 0.653904 0.962759 -0.448202
O27   O     O_2   0.455808 0.715646 0.601870 -0.199784
O28   O     O_2   0.375365 0.789622 0.713895 -0.286108
O29   O     O_3   0.374202 0.633187 0.720258 -0.425070
O30   O     O_2   0.456670 0.241995 0.622092 -0.279291
O31   O     O_2   0.416314 0.382684 0.571124 -0.204446
O32   O     O_3   0.372499 0.327332 0.736389 -0.436175
O33   O     O_2   0.955808 0.215648 0.601873 -0.199785
O34   O     O_R   0.376880 0.162880 0.424150 -0.501026
O35   O     O_2   0.875362 0.289623 0.713896 -0.286106
O36   O     O_3   0.874201 0.133188 0.720260 -0.425069
O37   O     O_2   0.956670 0.741995 0.622092 -0.279292
O38   O     O_2   0.916313 0.882686 0.571130 -0.204446
O39   O     O_3   0.872497 0.827327 0.736392 -0.436174
O40   O     O_2   0.617574 0.236769 0.275907 -0.191807
O41   O     O_2   0.545949 0.314115 0.395383 -0.207587
O42   O     O_3   0.650383 0.390736 0.294507 -0.509852
O43   O     O_2   0.549094 0.681238 0.437626 -0.192853
O44   O     O_2   0.593638 0.740913 0.286084 -0.240673
O45   O     O_R   0.876880 0.337120 0.424150 -0.491457
O46   O     O_3   0.635998 0.590503 0.331614 -0.501064
O47   O     O_2   0.117572 0.736771 0.275908 -0.191804
O48   O     O_2   0.045949 0.814115 0.395386 -0.207592
O49   O     O_3   0.150382 0.890737 0.294510 -0.509852
O50   O     O_2   0.049095 0.181238 0.437632 -0.192859
O51   O     O_2   0.093635 0.240910 0.286086 -0.240667
O52   O     O_3   0.135997 0.090501 0.331619 -0.501064
O53   O     O_R   0.876880 0.662880 0.424150 -0.501026
O54   O     O_R   0.603010 0.162890 0.452470 -0.471487
O55   O     O_R   0.603010 0.837110 0.452470 -0.488362
O56   O     O_R   0.103010 0.662890 0.452470 -0.471486
S1    S     S_3+6 0.393240 0.096105 0.877244 0.091013
S2    S     S_3+6 0.125421 0.183507 0.379013 0.080176
S3    S     S_3+6 0.893240 0.596105 0.877244 0.091013
S4    S     S_3+6 0.368610 0.716170 0.644467 0.066722
S5    S     S_3+6 0.381653 0.307612 0.613513 0.091706
S6    S     S_3+6 0.868609 0.216171 0.644468 0.066722
S7    S     S_3+6 0.881652 0.807611 0.613515 0.091706
S8    S     S_3+6 0.634376 0.304644 0.355596 0.090277
S9    S     S_3+6 0.625422 0.683509 0.379010 0.080176
S10   S     S_3+6 0.134374 0.804645 0.355598 0.090275
Zn1   Zn    Zn3+2 0.485630 0.096680 0.411850 1.109918
Zn2   Zn    Zn3+2 0.485630 0.903320 0.411850 1.096202
Zn3   Zn    Zn3+2 0.985630 0.596680 0.411850 1.109918
Zn4   Zn    Zn3+2 0.985630 0.403320 0.411850 1.096201
Zn5   Zn    Zn3+2 0.399590 1.000000 0.573760 1.131720
Zn6   Zn    Zn3+2 0.899590 0.500000 0.573760 1.131721
Zn7   Zn    Zn3+2 0.629190 1.000000 0.602520 1.067442
Zn8   Zn    Zn3+2 0.129190 0.500000 0.602520 1.067441

loop_
_geom_bond_atom_site_label_1
_geom_bond_atom_site_label_2
_ccdc_geom_bond_type
O27   S4    D    
O37   S7    D    
O32   S5    S    
O52   S2    S    
C4    O9    A    
O16   Zn4   S    
O22   S1    S    
O24   S3    D    
O21   S1    D    
C14   H1    S    
C18   S6    S    
O1    Zn2   S    
C4    O2    A    
O3    Zn5   S    
O14   Zn2   S    
O47   S10   D    
O33   S6    D    
C3    O10   A    
C25   S2    S    
C23   O5    A    
O1    Zn7   S    
O36   S6    S    
C15   C17   D    
O1    Zn5   S    
C15   H7    S    
O18   Zn7   S    
C1    O23   A    
C6    C15   S    
C3    O56   A    
O29   S4    S    
C20   C24   D    
C18   C26   D    
O15   Zn1   S    
O12   Zn3   S    
O34   Zn1   S    
C23   C27   S    
O41   S8    D    
C19   C27   D    
C7    O14   A    
O51   S2    D    
O49   S10   S    
C22   O6    A    
O8    Zn7   S    
O25   S3    D    
H10   O22   S    
C6    O13   A    
C12   O3    A    
C7    O15   A    
O13   Zn6   S    
H5    O49   S    
O20   S1    D    
O2    Zn4   S    
C13   Cl2   S    
H14   O36   S    
C24   S10   S    
C26   S8    S    
O19   Zn8   S    
O26   S3    S    
O28   S4    D    
O35   S6    D    
C12   O34   A    
C10   H9    S    
C6    O19   A    
H3    O42   S    
H4    O46   S    
C27   S9    S    
C11   C16   S    
H6    O52   S    
O12   Zn6   S    
C18   C28   S    
C3    C20   S    
O38   S7    D    
C9    C11   D    
C11   Cl1   S    
C5    C14   S    
O4    Zn5   S    
C20   S4    S    
O44   S9    D    
C23   O53   A    
C2    O55   A    
O31   S5    D    
O10   Zn8   S    
O17   Zn3   S    
O7    Zn7   S    
C14   C16   D    
O53   Zn3   S    
C28   O54   A    
H13   O32   S    
C7    C9    S    
H2    O39   S    
C21   C25   D    
O45   Zn4   S    
H12   O29   S    
O54   Zn1   S    
C2    C19   S    
O9    Zn8   S    
O12   Zn8   S    
C5    O11   A    
O42   S8    S    
O56   Zn3   S    
C10   C13   D    
O1    Zn1   S    
C1    O4    A    
O43   S9    D    
C8    O17   A    
C13   C17   S    
C12   C25   S    
C17   S3    S    
O23   Zn2   S    
C8    O16   A    
O30   S5    D    
C4    C21   S    
C28   O8    A    
O48   S10   D    
O11   Zn5   S    
O55   Zn2   S    
C9    H8    S    
O40   S8    D    
C22   O45   A    
O39   S7    S    
C5    O18   A    
O6    Zn6   S    
C2    O7    A    
C16   S1    S    
O5    Zn6   S    
O50   S2    D    
C1    C24   S    
C8    C10   S    
C22   C26   S    
O12   Zn4   S    
O46   S9    S    
C21   S5    S    
H11   O26   S    
C19   S7    S    
