data_mof_unit_26224.cif
_audit_creation_date              2012-12-10T18:47:40-0500
_audit_creation_method            fapswitch 2.2
_symmetry_space_group_name_H-M    P1
_symmetry_Int_Tables_number       1
_space_group_crystal_system       triclinic
_cell_length_a                    9.923692
_cell_length_b                    10.704307
_cell_length_c                    15.617923
_cell_angle_alpha                 90.836735
_cell_angle_beta                  66.755978
_cell_angle_gamma                 89.418609
_cell_volume                      1523.98244055

loop_
_atom_site_label
_atom_site_type_symbol
_atom_type_description
_atom_site_fract_x
_atom_site_fract_y
_atom_site_fract_z
_atom_type_partial_charge
C1    C     C_R   0.499361 0.739870 0.500421 0.883434
C2    C     C_R   0.500632 0.260132 0.499587 0.883002
C3    C     C_R   0.326338 0.526744 0.104855 -0.172035
C4    C     C_R   0.653583 0.401651 0.904395 -0.175258
C5    C     C_R   0.223849 0.539505 0.065510 -0.190766
C6    C     C_R   0.755213 0.386900 0.944153 -0.200360
C7    C     C_R   0.605133 0.935493 0.521796 -0.197091
C8    C     C_R   0.394847 0.064515 0.478229 -0.196286
C9    C     C_R   0.606317 0.063439 0.520936 -0.161870
C10   C     C_R   0.393646 0.936569 0.479106 -0.163458
C11   C     C_R   0.501068 0.127546 0.499276 -0.019411
C12   C     C_R   0.498913 0.872460 0.500748 -0.019578
C13   C     C_R   0.975565 0.444479 0.428157 0.041082
C14   C     C_R   0.024132 0.554476 0.572327 0.038953
C15   C     C_R   0.118251 0.445938 0.428555 -0.151210
C16   C     C_R   0.881720 0.554047 0.571449 -0.146833
C17   C     C_R   0.407773 0.498612 0.676026 0.869263
C18   C     C_R   0.592313 0.500604 0.323981 0.867086
C19   C     C_R   0.350478 0.495541 0.777825 -0.070658
C20   C     C_R   0.649448 0.491314 0.222332 -0.062895
C21   C     C_R   0.163150 0.541509 0.930267 -0.211915
C22   C     C_R   0.823461 0.406911 0.075861 -0.220242
C23   C     C_R   0.205900 0.529588 0.834186 -0.198531
C24   C     C_R   0.786903 0.438179 0.169276 -0.208687
C25   C     C_R   0.448923 0.465771 0.818516 -0.245155
C26   C     C_R   0.552766 0.519560 0.180216 -0.244818
C27   C     C_R   0.409374 0.476845 0.914652 0.098068
C28   C     C_R   0.580927 0.479016 0.089166 0.100732
C29   C     C_R   0.264609 0.518349 0.970569 0.149517
C30   C     C_R   0.720744 0.425050 0.035850 0.164399
C31   C     C_R   0.512608 0.455383 0.955451 0.057924
C32   C     C_R   0.473244 0.488736 0.050642 0.044290
H1    H     H_    0.112839 0.569375 0.109382 0.169149
H2    H     H_    0.861280 0.344436 0.902903 0.155884
H3    H     H_    0.453657 0.570438 0.221565 0.148340
H4    H     H_    0.559376 0.440929 0.772724 0.161652
H5    H     H_    0.863232 0.416368 0.200461 0.200719
H6    H     H_    0.128196 0.551960 0.804049 0.202627
H7    H     H_    0.052448 0.573427 0.972621 0.157855
H8    H     H_    0.929609 0.363783 0.035994 0.155198
H9    H     H_    0.285214 0.544762 0.178818 0.175369
H10   H     H_    0.688001 0.365497 0.834161 0.150682
H11   H     H_    0.686481 0.886332 0.539367 0.163200
H12   H     H_    0.313505 0.113676 0.460650 0.163503
H13   H     H_    0.688209 0.111782 0.537982 0.173352
H14   H     H_    0.311737 0.888226 0.462076 0.171239
H15   H     H_    0.209365 0.401375 0.372097 0.168059
H16   H     H_    0.790518 0.598338 0.628000 0.168960
N1    N     N_R   0.142780 0.500030 0.500020 -0.119701
N2    N     N_R   0.857220 0.499970 0.499980 -0.120833
O1    O     O_R   0.385370 0.683250 0.500010 -0.568981
O2    O     O_R   0.614630 0.316750 0.499990 -0.568341
O3    O     O_R   0.614700 0.683220 0.500000 -0.631620
O4    O     O_R   0.385300 0.316780 0.500000 -0.631722
O5    O     O_R   0.319830 0.500020 0.632250 -0.596419
O6    O     O_R   0.680170 0.499980 0.367750 -0.599889
O7    O     O_R   0.549160 0.499990 0.632240 -0.628328
O8    O     O_R   0.450840 0.500010 0.367760 -0.625676
Zn1   Zn    Zn3+2 0.346870 0.500020 0.500000 0.975807
Zn2   Zn    Zn3+2 0.653130 0.499980 0.500000 0.975129
C33   C     C_2   0.961225 0.379988 0.348353 0.898499
O9    O     O_2   0.048518 0.401880 0.269469 -0.701097
O10   O     O_R   0.859544 0.285535 0.362400 -0.775120
H17   H     H_    0.865860 0.244218 0.302084 0.325453
C34   C     C_2   0.037335 0.614708 0.654027 0.896188
O11   O     O_2   0.947887 0.591241 0.732077 -0.682768
O12   O     O_R   0.141660 0.706090 0.642847 -0.772701
H18   H     H_    0.135817 0.743044 0.704381 0.325641

loop_
_geom_bond_atom_site_label_1
_geom_bond_atom_site_label_2
_ccdc_geom_bond_type
C10   H14   S    
C19   C23   A    
C9    H13   S    
C14   C16   A    
O5    Zn1   S    
C27   C29   A    
C23   H6    S    
C1    O1    A    
C17   O5    A    
C26   C28   A    
C31   C32   A    
N1    Zn1   S    
C13   C15   A    
C18   O6    A    
N2    Zn2   S    
C16   H16   S    
C28   C30   A    
C24   H5    S    
C22   H8    S    
C6    C30   A    
C20   C24   A    
C9    C11   A    
C8    H12   S    
C7    C12   A    
C1    C12   S    
C2    O2    A    
O2    Zn2   S    
C8    C11   A    
C2    C11   S    
C10   C12   A    
C4    C6    A    
C13   N2    A    
C17   C19   S    
C14   C34   S    
C16   N2    A    
O3    Zn2   S    
C5    C29   A    
O4    Zn1   S    
C15   N1    A    
C21   C23   A    
C3    C32   A    
C19   C25   A    
C4    H10   S    
C22   C24   A    
C4    C31   A    
O1    Zn1   S    
C33   O9    D    
C25   H4    S    
C27   C31   A    
O12   H18   S    
C14   N1    A    
C6    H2    S    
C26   H3    S    
C28   C32   A    
C13   C33   S    
C18   C20   S    
C8    C10   A    
C34   O11   D    
C2    O4    A    
C7    H11   S    
C7    C9    A    
C1    O3    A    
C15   H15   S    
C3    H9    S    
O7    Zn2   S    
C34   O12   S    
C22   C30   A    
C3    C5    A    
O8    Zn1   S    
C21   C29   A    
C21   H7    S    
C18   O8    A    
C33   O10   S    
O6    Zn2   S    
C17   O7    A    
O10   H17   S    
C20   C26   A    
C25   C27   A    
C5    H1    S    
