data_mof_unit_22307.cif
_audit_creation_date              2013-03-05T15:44:34-0500
_audit_creation_method            fapswitch 2.2
_symmetry_space_group_name_H-M    P1
_symmetry_Int_Tables_number       1
_space_group_crystal_system       triclinic
_cell_length_a                    27.802975
_cell_length_b                    10.899621
_cell_length_c                    9.704538
_cell_angle_alpha                 91.492837
_cell_angle_beta                  90.452603
_cell_angle_gamma                 90.281199
_cell_volume                      2939.75318324

loop_
_atom_site_label
_atom_site_type_symbol
_atom_site_description
_atom_site_fract_x
_atom_site_fract_y
_atom_site_fract_z
_atom_type_partial_charge
O1    O     O_R   0.500010 0.321960 0.617040 -0.583477
O2    O     O_R   0.499990 0.321920 0.382900 -0.568058
C1    C     C_R   0.499126 0.265688 0.497979 0.850430
O3    O     O_R   0.430270 0.500040 0.617060 -0.583654
O4    O     O_R   0.430260 0.500000 0.382910 -0.578081
C2    C     C_R   0.407520 0.499514 0.499484 0.807174
Cu1   Cu    Cu3+1 0.500010 0.500020 0.638630 0.967379
Cu2   Cu    Cu3+1 0.499990 0.499980 0.361370 0.940809
O5    O     O_R   0.500010 0.678080 0.617100 -0.533211
O6    O     O_R   0.499990 0.678040 0.382960 -0.566304
O7    O     O_R   0.569740 0.500000 0.617090 -0.560800
O8    O     O_R   0.569730 0.499960 0.382940 -0.590327
C3    C     C_R   0.503231 0.735086 0.502124 0.814207
C4    C     C_R   0.592366 0.501947 0.500386 0.777584
C5    C     C_R   0.177906 0.378744 0.493236 0.528558
O9    O     O_2   0.203257 0.274026 0.502178 -0.507733
N1    N     N_R   0.202111 0.488171 0.491177 -0.459603
C6    C     C_R   0.178446 0.597124 0.482980 0.568864
C7    C     C_R   0.279323 0.457723 0.376644 -0.171195
C8    C     C_R   0.329398 0.462091 0.377407 -0.215393
C9    C     C_R   0.328932 0.527802 0.618090 -0.288302
C10   C     C_R   0.278543 0.523996 0.617911 0.305324
C11   C     C_R   0.253699 0.488710 0.496036 0.342868
C12   C     C_R   0.101969 0.488343 0.483232 -0.095837
C13   C     C_R   0.127024 0.375788 0.488903 -0.061483
C14   C     C_R   0.100434 0.264955 0.491130 0.274074
C15   C     C_R   0.128109 0.599381 0.478795 -0.007836
C16   C     C_R   0.354613 0.496767 0.498219 -0.064430
H1    H     H_    0.347909 0.555409 0.711896 0.157918
C17   C     C_R   0.645188 0.504677 0.500197 -0.100450
C18   C     C_R   0.973725 0.383375 0.507156 0.073495
C19   C     C_R   0.975188 0.604259 0.460498 0.004279
C20   C     C_R   0.949096 0.495115 0.484720 0.065681
C21   C     C_R   0.946470 0.279026 0.542036 -0.212181
C22   C     C_R   0.896672 0.282801 0.547545 -0.155539
C23   C     C_R   0.871982 0.390439 0.518225 -0.000950
C24   C     C_R   0.897940 0.497458 0.486673 -0.096691
C25   C     C_R   0.872701 0.606258 0.457289 -0.062432
C26   C     C_R   0.821813 0.602886 0.456348 0.546820
N2    N     N_R   0.797659 0.498441 0.490690 -0.464114
C27   C     C_R   0.821633 0.393509 0.521722 0.536608
C28   C     C_R   0.719213 0.424588 0.403513 -0.101457
C29   C     C_R   0.669228 0.426900 0.406429 -0.262145
C30   C     C_R   0.671731 0.584065 0.590683 0.233333
C31   C     C_R   0.722378 0.578003 0.588522 -0.126265
C32   C     C_R   0.745986 0.499499 0.494907 0.294994
O10   O     O_2   0.796745 0.292465 0.556700 -0.549655
C33   C     C_R   0.024648 0.379740 0.496134 0.005189
C34   C     C_R   0.050813 0.490476 0.482546 0.066175
C35   C     C_R   0.026264 0.603661 0.469151 0.073537
C36   C     C_R   0.050269 0.268309 0.496260 -0.278424
H2    H     H_    0.649158 0.366908 0.335911 0.162149
H3    H     H_    0.737224 0.364558 0.329980 0.155714
H4    H     H_    0.877543 0.200268 0.575031 0.175828
H5    H     H_    0.962649 0.193442 0.569953 0.133953
H6    H     H_    0.032142 0.180635 0.494416 0.136044
O11   O     O_2   0.203699 0.703051 0.478625 -0.539570
C37   C     C_R   0.103632 0.710644 0.471819 -0.155132
H7    H     H_    0.348371 0.437452 0.283724 0.156792
H8    H     H_    0.260260 0.431249 0.282676 0.144327
H9    H     H_    0.122958 0.797180 0.470528 0.179525
C38   C     C_R   0.949284 0.710789 0.427890 -0.275548
C39   C     C_R   0.899080 0.713485 0.427562 0.273915
O12   O     O_2   0.796390 0.702076 0.419578 -0.507857
C40   C     C_R   0.053790 0.713018 0.466994 -0.211702
H10   H     H_    0.967064 0.794450 0.399859 0.136924
H11   H     H_    0.744264 0.635591 0.656561 0.147160
H12   H     H_    0.037915 0.802951 0.466080 0.133050
C41   C     C_2   0.522483 0.934894 0.399077 0.219956
C42   C     C_2   0.512865 0.867707 0.512292 0.021993
C43   C     C_2   0.526124 0.069772 0.411811 -0.187089
C44   C     C_2   0.495910 0.134235 0.491263 -0.349891
H13   H     H_    0.552651 0.117040 0.350598 0.161789
H14   H     H_    0.467595 0.090987 0.548771 0.171870
C45   C     C_2   0.473057 0.427604 0.921271 0.003138
N3    N     N_2   0.499480 0.498660 0.846910 -0.062746
H15   H     H_    0.453942 0.352013 0.870313 0.113968
C46   C     C_2   0.468020 0.441492 0.075785 -0.098974
N4    N     N_2   0.499460 0.498630 0.153040 -0.281559
H16   H     H_    0.437450 0.398215 0.123806 0.148883
H17   H     H_    0.531956 0.518515 0.109294 0.233118
N5    N     N_2   0.646992 0.671510 0.676957 -0.433116
H18   H     H_    0.617262 0.710658 0.631909 0.245644
C47   C     C_3   0.673942 0.755282 0.766810 -0.697123
H19   H     H_    0.648651 0.812697 0.828235 0.225092
H20   H     H_    0.696687 0.816927 0.704970 0.241110
H21   H     H_    0.696410 0.703326 0.840039 0.239412
N6    N     N_2   0.875781 0.825926 0.397969 -0.371917
H22   H     H_    0.891415 0.872512 0.318515 0.242717
C48   C     C_3   0.868245 0.904955 0.517880 -0.603205
H23   H     H_    0.903329 0.937450 0.561205 0.186982
H24   H     H_    0.848142 0.855422 0.598064 0.242765
H25   H     H_    0.846805 0.985825 0.487914 0.237981
N7    N     N_2   0.530225 0.876054 0.267407 -0.408494
H26   H     H_    0.559292 0.817584 0.264612 0.250125
C49   C     C_3   0.524096 0.947035 0.144517 -0.676016
H27   H     H_    0.523570 0.884304 0.052842 0.221070
H28   H     H_    0.554469 0.012548 0.133905 0.216120
H29   H     H_    0.489410 0.997202 0.147699 0.243588
N8    N     N_2   0.518050 0.920205 0.648839 -0.453046
H30   H     H_    0.542541 0.990435 0.665942 0.265214
C50   C     C_3   0.476599 0.918592 0.738691 -0.652990
H31   H     H_    0.468348 0.013271 0.776062 0.206520
H32   H     H_    0.484697 0.862303 0.829213 0.241870
H33   H     H_    0.444203 0.880110 0.684952 0.227260
N9    N     N_2   0.252946 0.558964 0.738919 -0.417883
H34   H     H_    0.269863 0.627323 0.797006 0.256203
C51   C     C_3   0.238546 0.457341 0.822394 -0.672831
H35   H     H_    0.217388 0.492302 0.911556 0.227176
H36   H     H_    0.270766 0.408982 0.861753 0.218786
H37   H     H_    0.215638 0.391673 0.761935 0.258263
N10   N     N_2   0.507803 0.616342 0.899024 -0.315945
H38   H     H_    0.483764 0.656383 0.966970 0.242165
C52   C     C_3   0.557316 0.657462 0.900230 -0.565163
H39   H     H_    0.568091 0.687914 0.006084 0.170233
H40   H     H_    0.561086 0.736485 0.831532 0.237026
H41   H     H_    0.581916 0.582861 0.866362 0.256827
N11   N     N_2   0.123464 0.148525 0.488220 -0.372118
H42   H     H_    0.107732 0.085674 0.551835 0.239430
C53   C     C_3   0.130804 0.097852 0.350778 -0.600267
H43   H     H_    0.151693 0.011575 0.356903 0.236172
H44   H     H_    0.151337 0.163300 0.287586 0.243681
H45   H     H_    0.095621 0.077012 0.299966 0.191382

loop_
_geom_bond_atom_site_label_1
_geom_bond_atom_site_label_2
_geom_bond_distance
_ccdc_geom_bond_type
C39   N6    1.423832 S    
C7    C8    1.392772 A    
C47   H21   1.110579 S    
N10   C52   1.445511 S    
C52   H39   1.109762 S    
Cu1   Cu2   2.690665 S    
C31   C32   1.400995 A    
C53   H43   1.110366 S    
Cu1   O7    1.951577 S    
C26   O12   1.348864 S    
N1    C11   1.434689 S    
C12   C15   1.410455 A    
C23   C24   1.410353 A    
C47   H20   1.111031 S    
C36   H6    1.077843 S    
C30   N5    1.434032 S    
C41   C42   1.363663 D    
C28   H3    1.082878 S    
O4    C2    1.300452 A    
O7    C4    1.300480 A    
C46   H16   1.084367 S    
C29   H2    1.083667 S    
C5    C13   1.415136 A    
N9    H34   1.031808 S    
C5    O9    1.348779 S    
C49   H29   1.111177 S    
C51   H35   1.110414 S    
C50   H33   1.112043 S    
Cu1   O5    1.957407 S    
C21   C22   1.386754 A    
C28   C32   1.397601 A    
C41   C43   1.475005 S    
O5    C3    1.294692 A    
N11   H42   1.032042 S    
C6    O11   1.350118 S    
C33   C36   1.411069 A    
C2    C16   1.471080 S    
C22   C23   1.396731 A    
C42   N8    1.435561 S    
C49   H28   1.110358 S    
C31   H11   1.080990 S    
Cu2   N4    2.021353 S    
C18   C20   1.421013 A    
C53   H45   1.111724 S    
Cu2   O8    1.948600 S    
N7    C49   1.447763 S    
C37   H9    1.083635 S    
C21   H5    1.077631 S    
C9    C10   1.401364 A    
C22   H4    1.083198 S    
C17   C30   1.417166 A    
C23   C27   1.401082 A    
C50   H31   1.110515 S    
C4    C17   1.468767 S    
O3    Cu1   1.948606 S    
N10   H38   1.032862 S    
C45   C46   1.510852 S    
C53   H44   1.111392 S    
C38   H10   1.077268 S    
C47   H19   1.110363 S    
C44   H14   1.081858 S    
C41   N7    1.432968 S    
C26   N2    1.368881 A    
C43   H13   1.086942 S    
C46   N4    1.293831 D    
C8    C16   1.403645 A    
C13   C14   1.413927 A    
C10   N9    1.422441 S    
C9    H1    1.083609 S    
O6    C3    1.300927 A    
C20   C24   1.422908 A    
O1    C1    1.293939 A    
C7    C11   1.399672 A    
C45   N3    1.300849 D    
C24   C25   1.415162 A    
C37   C40   1.386579 A    
C48   H24   1.111391 S    
N3    N10   1.384214 S    
C40   H12   1.077216 S    
C49   H27   1.107806 S    
C38   C39   1.396262 A    
N8    C50   1.450961 S    
N1    C6    1.364286 A    
C27   O10   1.350064 S    
C18   C21   1.413509 A    
C12   C13   1.415856 A    
C8    H7    1.083129 S    
C50   H32   1.106865 S    
C45   H15   1.084498 S    
C19   C35   1.421940 A    
O3    C2    1.300104 A    
N2    C27   1.365768 A    
C9    C16   1.404439 A    
N6    C48   1.446877 S    
C34   C35   1.421242 A    
N5    C47   1.448097 S    
C18   C33   1.421368 A    
C17   C29   1.403009 A    
C28   C29   1.390590 A    
N2    C32   1.437647 S    
C30   C31   1.410325 A    
C48   H25   1.110232 S    
N4    H17   1.025872 S    
C25   C39   1.414051 A    
C12   C34   1.422553 A    
C5    N1    1.367268 A    
C33   C34   1.415836 A    
O1    Cu1   1.946629 S    
O2    Cu2   1.957407 S    
C6    C15   1.400134 A    
C14   N11   1.423947 S    
O8    C4    1.297250 A    
C15   C37   1.396444 A    
O4    Cu2   1.951580 S    
C52   H40   1.107899 S    
Cu1   N3    2.021870 S    
C7    H8    1.083008 S    
C51   H37   1.109033 S    
C19   C20   1.416155 A    
C1    C44   1.434899 S    
C19   C38   1.410963 A    
C43   C44   1.334789 D    
C14   C36   1.396657 A    
C48   H23   1.111801 S    
C25   C26   1.415091 A    
N9    C51   1.446016 S    
N8    H30   1.031339 S    
C51   H36   1.111717 S    
O2    C1    1.288175 A    
N7    H26   1.031740 S    
C35   C40   1.414024 A    
N11   C53   1.446639 S    
C52   H41   1.109978 S    
N6    H22   1.031902 S    
Cu2   O6    1.946629 S    
N5    H18   1.031466 S    
C3    C42   1.469470 S    
C10   C11   1.408794 A    
