data_mof_unit_37654.cif
_audit_creation_date              2012-12-11T16:26:34-0500
_audit_creation_method            fapswitch 2.2
_symmetry_space_group_name_H-M    P1
_symmetry_Int_Tables_number       1
_space_group_crystal_system       triclinic
_cell_length_a                    6.940446
_cell_length_b                    17.506861
_cell_length_c                    19.462748
_cell_angle_alpha                 108.470818
_cell_angle_beta                  89.404461
_cell_angle_gamma                 90.933303
_cell_volume                      2242.67386554

loop_
_atom_site_label
_atom_site_type_symbol
_atom_type_description
_atom_site_fract_x
_atom_site_fract_y
_atom_site_fract_z
_atom_type_partial_charge
O1    O     O_R   0.494330 0.415720 0.413720 -0.538704
O2    O     O_R   0.819330 0.430070 0.560210 -0.548641
O3    O     O_R   0.994320 0.584280 0.586280 -0.522489
C1    C     C_R   0.649487 0.414910 0.581608 0.689833
O4    O     O_R   0.823730 0.406300 0.412670 -0.540320
O5    O     O_R   0.998760 0.560340 0.437690 -0.514024
C2    C     C_R   0.654750 0.383507 0.385037 0.691111
O6    O     O_R   0.489890 0.439660 0.562310 -0.541995
O7    O     O_3   0.662340 0.550560 0.508380 -0.354624
V1    V     V_3+5 0.935370 0.490620 0.498450 1.477264
O8    O     O_R   0.328750 0.569930 0.439790 -0.552431
C3    C     C_R   0.160928 0.586368 0.419610 0.764670
O9    O     O_R   0.324340 0.593700 0.587330 -0.550431
C4    C     C_R   0.155843 0.616509 0.614973 0.726855
V2    V     V_3+5 0.435940 0.509380 0.501550 1.444885
O10   O     O_3   0.159100 0.449440 0.491620 -0.376962
H1    H     H_    0.534684 0.847463 0.593575 0.132926
C5    C     C_R   0.965328 0.598717 0.742270 -0.127600
C6    C     C_R   0.867161 0.588610 0.801525 -0.139015
C7    C     C_R   0.851172 0.652640 0.865120 -0.138251
C8    C     C_R   0.935739 0.726913 0.870264 -0.127602
C9    C     C_R   0.032838 0.739867 0.810327 0.071178
C10   C     C_R   0.046692 0.674381 0.744680 0.059034
C11   C     C_R   0.122135 0.815242 0.815809 -0.188022
C12   C     C_R   0.230987 0.823931 0.756166 0.068427
C13   C     C_R   0.242311 0.758689 0.690264 0.078872
C14   C     C_R   0.147199 0.684383 0.684063 -0.178563
C15   C     C_R   0.329052 0.897054 0.760251 -0.134174
C16   C     C_R   0.443486 0.903804 0.703203 -0.131299
C17   C     C_R   0.450582 0.840986 0.638623 -0.112679
C18   C     C_R   0.348109 0.770023 0.631389 -0.099846
H2    H     H_    0.979641 0.545749 0.695421 0.116962
H3    H     H_    0.806947 0.530215 0.798474 0.119484
H4    H     H_    0.776058 0.644295 0.911274 0.114357
H5    H     H_    0.926514 0.773007 0.922364 0.113818
H6    H     H_    0.320037 0.950152 0.807103 0.123020
H7    H     H_    0.525187 0.958562 0.708669 0.117429
H8    H     H_    0.354458 0.724694 0.578865 0.128314
C19   C     C_R   0.188641 0.602377 0.298475 -0.205197
C20   C     C_R   0.152825 0.637957 0.372399 -0.109430
C21   C     C_R   0.109409 0.720816 0.399865 -0.027994
C22   C     C_R   0.102577 0.767095 0.351446 0.014143
C23   C     C_R   0.133236 0.729522 0.276079 0.021932
C24   C     C_R   0.173755 0.646055 0.249057 0.039911
C25   C     C_R   0.059864 0.849777 0.376538 -0.178425
C26   C     C_R   0.050802 0.896469 0.329884 -0.014145
C27   C     C_R   0.083673 0.859446 0.254602 0.038118
C28   C     C_R   0.123173 0.775528 0.227807 0.002412
C29   C     C_R   0.152042 0.737641 0.152476 0.074655
C30   C     C_R   0.186443 0.654085 0.125410 0.198963
C31   C     C_R   0.199468 0.608207 0.173395 -0.076973
C32   C     C_R   0.079927 0.903782 0.205201 -0.219347
C33   C     C_R   0.109588 0.866485 0.131133 -0.075457
C34   C     C_R   0.145167 0.784038 0.104990 -0.188556
H9    H     H_    0.227626 0.539556 0.280376 0.155789
H10   H     H_    0.028601 0.879026 0.433210 0.156837
H11   H     H_    0.057131 0.967897 0.222859 0.095112
H12   H     H_    0.168081 0.756619 0.047277 0.145186
C35   C     C_R   0.500236 0.201842 0.882027 -0.208050
C36   C     C_R   0.626572 0.137162 0.871433 -0.100182
C37   C     C_R   0.758949 0.119804 0.813753 -0.207536
C38   C     C_R   0.764042 0.165354 0.765567 0.077302
C39   C     C_R   0.635154 0.230094 0.776442 -0.014486
C40   C     C_R   0.504110 0.248580 0.835149 0.069528
C41   C     C_R   0.892455 0.146782 0.705896 0.271845
C42   C     C_R   0.892142 0.192565 0.658416 -0.236630
C43   C     C_R   0.765803 0.256778 0.669099 0.077122
C44   C     C_R   0.635023 0.275522 0.727897 -0.017041
C45   C     C_R   0.503957 0.339366 0.737839 0.073755
C46   C     C_R   0.376175 0.358586 0.797844 0.288516
C47   C     C_R   0.376092 0.312459 0.845299 -0.266388
C48   C     C_R   0.769360 0.302670 0.621781 -0.182577
C49   C     C_R   0.638969 0.365382 0.630514 -0.102389
C50   C     C_R   0.504045 0.382291 0.687440 -0.203331
H13   H     H_    0.398060 0.215481 0.926669 0.125123
H14   H     H_    0.853770 0.069081 0.805504 0.158785
H15   H     H_    0.992857 0.178161 0.613292 0.148601
H16   H     H_    0.872348 0.288957 0.577378 0.125868
H17   H     H_    0.402883 0.430399 0.693122 0.158289
H18   H     H_    0.276306 0.327134 0.890695 0.132968
H19   H     H_    0.566132 0.128152 0.436354 0.136555
C51   C     C_R   0.673479 0.409762 0.245646 -0.127618
C52   C     C_R   0.681010 0.424604 0.179410 -0.044006
C53   C     C_R   0.670154 0.361023 0.114942 -0.085831
C54   C     C_R   0.651161 0.282073 0.116184 -0.128121
C55   C     C_R   0.641884 0.265133 0.182580 0.068785
C56   C     C_R   0.653510 0.330307 0.248686 0.059616
C57   C     C_R   0.619691 0.184933 0.183859 -0.176352
C58   C     C_R   0.605716 0.170095 0.251298 0.068055
C59   C     C_R   0.618494 0.235219 0.317400 0.068973
C60   C     C_R   0.643691 0.315297 0.316125 -0.175013
C61   C     C_R   0.577999 0.090955 0.254348 -0.162628
C62   C     C_R   0.562721 0.076428 0.320596 -0.129795
C63   C     C_R   0.576894 0.139867 0.385056 -0.080764
C64   C     C_R   0.604707 0.218454 0.383800 -0.137979
H20   H     H_    0.682684 0.461226 0.294307 0.099530
H21   H     H_    0.695615 0.485808 0.178112 0.117318
H22   H     H_    0.676231 0.372935 0.063656 0.107008
H23   H     H_    0.642765 0.234646 0.064630 0.089121
H24   H     H_    0.566947 0.039567 0.205692 0.108644
H25   H     H_    0.540772 0.015524 0.321904 0.126026
H26   H     H_    0.614559 0.265807 0.435360 0.091090
O11   O     O_R   0.775200 0.060470 0.937800 -0.537619
O12   O     O_R   0.441110 0.093720 0.087350 -0.537104
O13   O     O_R   0.266330 0.939630 0.062280 -0.536594
C65   C     C_R   0.609888 0.116649 0.114969 0.699665
O14   O     O_R   0.445750 0.069950 0.939820 -0.546273
O15   O     O_R   0.271000 0.915700 0.913700 -0.539460
C66   C     C_R   0.615614 0.086053 0.919132 0.696539
O16   O     O_R   0.770530 0.084400 0.086380 -0.535138
O17   O     O_3   0.602830 0.949510 0.991680 -0.367897
V3    V     V_3+5 0.329710 0.009370 0.001550 1.422228
O18   O     O_R   0.940990 0.906170 0.912570 -0.540568
C67   C     C_R   0.110083 0.883651 0.884658 0.689952
O19   O     O_R   0.936350 0.929940 0.060100 -0.542050
C68   C     C_R   0.103879 0.914577 0.081203 0.700239
V4    V     V_3+5 0.829160 0.990450 0.998310 1.425788
O20   O     O_3   0.105910 0.050480 0.008320 -0.366663
C69   C     C_2   0.077831 0.759267 0.479053 0.284477
H27   H     H_    0.144009 0.817204 0.507024 0.059292
O21   O     O_2   0.975400 0.727190 0.513619 -0.527115
C70   C     C_2   0.002134 0.983356 0.362041 0.344491
H28   H     H_    0.949795 0.018171 0.329309 0.059963
O22   O     O_2   0.017906 0.017609 0.427052 -0.537846
N1    N     N_2   0.196212 0.615634 0.048988 -0.529399
H29   H     H_    0.307528 0.575773 0.031665 0.241063
C71   C     C_3   0.013055 0.583846 0.016601 -0.562840
H30   H     H_    0.029403 0.559552 0.956942 0.200087
H31   H     H_    0.904018 0.632205 0.029436 0.202029
H32   H     H_    0.961301 0.534428 0.036805 0.206343
C72   C     C_2   0.233850 0.520222 0.142516 0.351400
H33   H     H_    0.350310 0.498277 0.104077 0.034565
O23   O     O_2   0.127357 0.471464 0.157381 -0.535025
N2    N     N_2   0.025309 0.082918 0.693779 -0.529755
H34   H     H_    0.047318 0.051855 0.639662 0.273656
C73   C     C_3   0.204696 0.107971 0.731648 -0.535879
H35   H     H_    0.278910 0.153544 0.711559 0.203693
H36   H     H_    0.299489 0.055576 0.721935 0.198106
H37   H     H_    0.178259 0.133383 0.790860 0.210620
N3    N     N_2   0.248459 0.424660 0.811349 -0.525734
H38   H     H_    0.120607 0.416612 0.835882 0.257759
C74   C     C_3   0.337727 0.502076 0.847693 -0.572733
H39   H     H_    0.385270 0.504654 0.902714 0.194475
H40   H     H_    0.232968 0.550678 0.852528 0.218870
H41   H     H_    0.463737 0.513112 0.816475 0.200379

loop_
_geom_bond_atom_site_label_1
_geom_bond_atom_site_label_2
_ccdc_geom_bond_type
C11   C67   S    
C62   C63   A    
C56   C60   A    
C21   C22   A    
O13   C68   A    
O17   V3    S    
C1    O6    A    
O12   C65   A    
C59   C64   A    
C54   C55   A    
C12   C15   A    
C46   N3    S    
C13   C14   A    
C38   C39   A    
C52   C53   A    
C15   C16   A    
N3    C74   S    
C5    C6    A    
C45   C46   A    
O5    C3    A    
C17   C18   A    
C55   C57   A    
C29   C34   A    
C43   C48   A    
C49   C50   A    
C40   C47   A    
O15   C67   A    
C48   H16   S    
C36   C66   S    
O9    C4    A    
C39   C44   A    
O8    V2    S    
C74   H39   S    
C19   H9    S    
C6    C7    A    
C25   H10   S    
C44   C45   A    
O19   V4    S    
C46   C47   A    
O1    V2    S    
C10   C14   A    
C4    C14   S    
C23   C28   A    
C30   N1    S    
C41   N2    S    
C33   C68   S    
C7    H4    S    
C42   C43   A    
C35   C36   A    
C8    C9    A    
H1    C17   S    
O14   C66   A    
C74   H41   S    
O11   V4    S    
C73   H37   S    
O16   V4    S    
C47   H18   S    
C30   C31   A    
C69   O21   D    
C37   H14   S    
N3    H38   S    
C51   H20   S    
C5    C10   A    
C45   C50   A    
C11   C12   A    
C73   H36   S    
C6    H3    S    
C62   H25   S    
C19   C20   A    
O12   V3    S    
C31   C72   S    
C55   C56   A    
C48   C49   A    
N2    C73   S    
C12   C13   A    
C33   C34   A    
C21   C69   S    
C43   C44   A    
C36   C37   A    
C22   C25   A    
C3    C20   S    
O2    C1    A    
C23   C24   A    
C71   H31   S    
C16   C17   A    
C54   H23   S    
C57   C65   S    
C27   C28   A    
O8    C3    A    
C2    C60   S    
C7    C8    A    
C51   C56   A    
C35   C40   A    
C63   C64   A    
O14   V3    S    
C53   C54   A    
C58   C61   A    
C1    C49   S    
C27   C32   A    
O3    C4    A    
O18   V4    S    
C24   C31   A    
C28   C29   A    
O13   V3    S    
C51   C52   A    
O6    V2    S    
C50   H17   S    
O9    V2    S    
N1    H29   S    
C74   H40   S    
C5    H2    S    
C22   C23   A    
C70   O22   D    
C71   H30   S    
O2    V1    S    
C35   H13   S    
C32   C33   A    
C61   H24   S    
O4    C2    A    
O18   C67   A    
C34   H12   S    
O15   V3    S    
C42   H15   S    
C26   C27   A    
C20   C21   A    
C38   C41   A    
O1    C2    A    
C73   H35   S    
C72   O23   D    
C72   H33   S    
O5    V1    S    
C69   H27   S    
C64   H26   S    
C19   C24   A    
C8    H5    S    
N2    H34   S    
C18   H8    S    
O11   C66   A    
O17   V4    S    
C53   H22   S    
O7    V2    S    
C71   H32   S    
O4    V1    S    
O3    V1    S    
V1    O10   S    
V4    O20   S    
V3    O20   S    
H19   C63   S    
C59   C60   A    
C61   C62   A    
O7    V1    S    
C9    C11   A    
C41   C42   A    
C37   C38   A    
C32   H11   S    
C39   C40   A    
C25   C26   A    
C13   C18   A    
C57   C58   A    
C15   H6    S    
C65   O16   A    
C29   C30   A    
C52   H21   S    
C16   H7    S    
N1    C71   S    
C9    C10   A    
C26   C70   S    
O19   C68   A    
C70   H28   S    
C58   C59   A    
V2    O10   S    
