data_mof_unit_7259.cif
_audit_creation_date              2012-12-10T17:19:23-0500
_audit_creation_method            fapswitch 2.2
_symmetry_space_group_name_H-M    P1
_symmetry_Int_Tables_number       1
_space_group_crystal_system       triclinic
_cell_length_a                    15.066263
_cell_length_b                    10.781303
_cell_length_c                    9.60397
_cell_angle_alpha                 90.002977
_cell_angle_beta                  90.306421
_cell_angle_gamma                 92.787447
_cell_volume                      1558.14261004

loop_
_atom_site_label
_atom_site_type_symbol
_atom_type_description
_atom_site_fract_x
_atom_site_fract_y
_atom_site_fract_z
_atom_type_partial_charge
C1    C     C_R   0.496250 0.262532 0.500092 0.783654
C2    C     C_R   0.906877 0.573080 0.403776 0.044688
C3    C     C_R   0.954561 0.351469 0.690410 -0.203740
C4    C     C_R   0.046608 0.357495 0.689856 -0.211547
C5    C     C_R   0.092907 0.431471 0.592711 0.141055
C6    C     C_R   0.046858 0.502630 0.494888 -0.023523
C7    C     C_R   0.094332 0.575955 0.394447 0.057712
C8    C     C_R   0.045988 0.639221 0.290575 0.142303
C9    C     C_R   0.953178 0.648983 0.305599 0.149185
C10   C     C_R   0.184936 0.433428 0.591813 -0.280579
C11   C     C_R   0.232695 0.507545 0.497339 -0.111129
C12   C     C_R   0.329197 0.503632 0.499410 0.788896
C13   C     C_R   0.188538 0.583823 0.402418 0.112897
C14   C     C_R   0.359296 0.119143 0.656761 -0.226606
C15   C     C_R   0.295726 0.049490 0.733968 0.220967
C16   C     C_R   0.295913 0.920279 0.731560 -0.122536
C17   C     C_R   0.359116 0.860430 0.654459 -0.243887
C18   C     C_R   0.425434 0.929026 0.579516 0.096751
C19   C     C_R   0.425346 0.060198 0.580137 0.072614
C20   C     C_R   0.489824 0.128222 0.500209 -0.088392
C21   C     C_R   0.550082 0.067535 0.417612 -0.197026
C22   C     C_R   0.550338 0.939664 0.417544 -0.206833
C23   C     C_R   0.496980 0.737044 0.499990 0.757905
C24   C     C_R   0.490234 0.870355 0.499898 -0.077412
C25   C     C_R   0.618153 0.665608 0.144778 -0.144423
C26   C     C_R   0.676084 0.746322 0.073078 -0.198407
C27   C     C_R   0.676353 0.745939 0.929582 -0.189196
C28   C     C_R   0.618538 0.665035 0.856900 -0.129997
C29   C     C_R   0.558234 0.581167 0.925647 0.205411
C30   C     C_R   0.558130 0.581275 0.075180 0.215293
C31   C     C_R   0.444516 0.422847 0.073406 -0.061666
C32   C     C_R   0.444511 0.422912 0.925547 -0.052050
C33   C     C_R   0.670769 0.496179 0.500379 0.794507
C34   C     C_R   0.814181 0.569187 0.408548 -0.271764
C35   C     C_R   0.767270 0.491157 0.500932 -0.074542
C36   C     C_R   0.812339 0.411822 0.591276 0.120576
C37   C     C_R   0.906275 0.420161 0.593851 0.128013
C38   C     C_R   0.953292 0.498447 0.497076 -0.018839
Cu1   Cu    Cu3+1 0.499990 0.499990 0.640660 0.924097
Cu2   Cu    Cu3+1 0.500010 0.500010 0.359340 0.930714
H1    H     H_    0.776925 0.626234 0.338814 0.168816
H2    H     H_    0.355038 0.218855 0.655282 0.135841
H3    H     H_    0.246231 0.865616 0.788986 0.148444
H4    H     H_    0.354067 0.760182 0.652788 0.166046
H5    H     H_    0.599254 0.894570 0.355428 0.136686
H6    H     H_    0.399009 0.359573 0.128144 0.144514
H7    H     H_    0.623456 0.673613 0.254543 0.187384
H8    H     H_    0.721080 0.809743 0.129608 0.149832
H9    H     H_    0.721644 0.808982 0.873842 0.148891
H10   H     H_    0.624081 0.672572 0.747133 0.197708
H11   H     H_    0.398972 0.359710 0.870035 0.132614
H12   H     H_    0.922103 0.293395 0.768588 0.156331
H13   H     H_    0.081758 0.303471 0.765617 0.139474
H14   H     H_    0.219965 0.376585 0.664953 0.138777
H15   H     H_    0.598783 0.119712 0.355467 0.154559
N1    N     N_R   0.500860 0.501210 0.147910 -0.201621
N2    N     N_R   0.500890 0.501290 0.852040 -0.199927
O1    O     O_R   0.499990 0.319640 0.618810 -0.583310
O2    O     O_R   0.500000 0.319660 0.381240 -0.570228
O3    O     O_R   0.370250 0.499960 0.618800 -0.591166
O4    O     O_R   0.370260 0.499980 0.381230 -0.584836
O5    O     O_R   0.500000 0.680340 0.618760 -0.600423
O6    O     O_R   0.500010 0.680360 0.381190 -0.594938
O7    O     O_R   0.629740 0.500020 0.618770 -0.589866
O8    O     O_R   0.629750 0.500040 0.381200 -0.595745
N3    N     N_3   0.230090 0.108499 0.814992 -0.601857
H16   H     H_    0.243292 0.204526 0.817527 0.195386
H17   H     H_    0.168875 0.092860 0.764650 0.210657
C39   C     C_3   0.761839 0.313902 0.677660 -0.849815
H18   H     H_    0.791448 0.222426 0.663747 0.214587
H19   H     H_    0.764566 0.340473 0.789345 0.239771
H20   H     H_    0.691502 0.298238 0.645740 0.246838
N4    N     N_3   0.238223 0.679038 0.327175 -0.591672
H21   H     H_    0.278697 0.638196 0.254008 0.246731
H22   H     H_    0.278032 0.731572 0.397031 0.217088
C40   C     C_3   0.089148 0.680009 0.154635 -0.811841
H23   H     H_    0.117498 0.776693 0.163461 0.247797
H24   H     H_    0.141143 0.616020 0.124054 0.237790
H25   H     H_    0.041050 0.673947 0.066635 0.226662
N5    N     N_3   0.904827 0.734425 0.221452 -0.595812
H26   H     H_    0.872469 0.792705 0.289581 0.194735
H27   H     H_    0.947508 0.795941 0.167149 0.225950

loop_
_geom_bond_atom_site_label_1
_geom_bond_atom_site_label_2
_ccdc_geom_bond_type
N3    H17   S    
C4    H13   S    
N4    H21   S    
C35   C36   A    
C40   H25   S    
C33   O8    A    
C7    C8    A    
Cu1   O7    S    
C26   C27   A    
C29   C30   A    
Cu2   O6    S    
C18   C24   A    
C36   C37   A    
C40   H24   S    
C18   C19   A    
C1    O2    A    
C5    C6    A    
C15   C16   A    
Cu1   N2    S    
C8    C40   S    
C34   C35   A    
C39   H19   S    
C28   H10   S    
C23   O5    A    
C19   C20   A    
C8    C9    A    
Cu2   N1    S    
C31   H6    S    
C23   C24   S    
C6    C38   A    
C31   N1    A    
C25   H7    S    
C26   H8    S    
C14   H2    S    
C2    C34   A    
C23   O6    A    
N3    H16   S    
Cu2   O2    S    
C21   C22   A    
C15   N3    S    
N4    H22   S    
C34   H1    S    
C32   N2    A    
C40   H23   S    
N5    H27   S    
Cu1   Cu2   S    
C21   H15   S    
C4    C5    A    
C25   C26   A    
Cu1   O1    S    
C30   N1    A    
Cu2   O4    S    
C9    N5    S    
C39   H20   S    
C32   H11   S    
C37   C38   A    
C2    C38   A    
C31   C32   A    
C11   C12   S    
C17   C18   A    
C16   H3    S    
C29   N2    A    
Cu2   O8    S    
C22   C24   A    
C3    C4    A    
C36   C39   S    
C25   C30   A    
Cu1   O5    S    
C28   C29   A    
C1    C20   S    
C14   C19   A    
C13   N4    S    
N5    H26   S    
C3    H12   S    
C6    C7    A    
C17   H4    S    
C5    C10   A    
C1    O1    A    
C12   O4    A    
C11   C13   A    
C16   C17   A    
C33   O7    A    
Cu1   O3    S    
C33   C35   S    
C39   H18   S    
C10   H14   S    
C10   C11   A    
C12   O3    A    
C7    C13   A    
C22   H5    S    
C20   C21   A    
C3    C37   A    
C27   C28   A    
C14   C15   A    
C2    C9    A    
C27   H9    S    
