data_mof_unit_54454.cif
_audit_creation_date              2012-12-10T20:41:45-0500
_audit_creation_method            fapswitch 2.2
_symmetry_space_group_name_H-M    P1
_symmetry_Int_Tables_number       1
_space_group_crystal_system       triclinic
_cell_length_a                    14.665385
_cell_length_b                    15.789726
_cell_length_c                    9.931496
_cell_angle_alpha                 90.484994
_cell_angle_beta                  94.166204
_cell_angle_gamma                 90.062583
_cell_volume                      2293.59851251

loop_
_atom_site_label
_atom_site_type_symbol
_atom_type_description
_atom_site_fract_x
_atom_site_fract_y
_atom_site_fract_z
_atom_type_partial_charge
C1    C     C_R   0.383042 0.877843 0.496850 0.867142
C2    C     C_R   0.377775 0.117213 0.496683 0.874722
C3    C     C_R   0.878062 0.382275 0.495657 0.871317
C4    C     C_R   0.883545 0.622562 0.497166 0.865788
C5    C     C_3   0.391832 0.279621 0.682589 0.019952
C6    C     C_3   0.349767 0.767224 0.742072 0.004196
C7    C     C_3   0.858544 0.740432 0.735956 -0.019461
C8    C     C_3   0.903180 0.208328 0.641523 0.003331
C9    C     C_R   0.430781 0.962022 0.064995 0.108864
C10   C     C_R   0.929529 0.534874 0.067105 0.105805
C11   C     C_R   0.567024 0.038940 0.080086 -0.148907
C12   C     C_R   0.066616 0.460894 0.078952 -0.166312
C13   C     C_R   0.566136 0.040721 0.937192 0.216889
C14   C     C_R   0.064902 0.458072 0.936026 0.220334
C15   C     C_R   0.426456 0.967293 0.921936 0.066212
C16   C     C_R   0.927527 0.535543 0.923727 0.011357
C17   C     C_3   0.328124 0.001689 0.929507 0.392357
C18   C     C_3   0.826430 0.505966 0.927499 0.395461
C19   C     C_3   0.334718 0.982744 0.080011 -0.521930
C20   C     C_3   0.835563 0.506823 0.079967 -0.531605
C21   C     C_R   0.622061 0.118474 0.503163 0.896263
C22   C     C_R   0.621553 0.880692 0.503589 0.871250
C23   C     C_R   0.120017 0.620592 0.503916 0.870553
C24   C     C_R   0.123847 0.383215 0.502264 0.869377
C25   C     C_R   0.339496 0.259860 0.553928 0.028618
C26   C     C_R   0.329392 0.748119 0.596788 -0.012239
C27   C     C_R   0.835359 0.757533 0.591955 -0.020249
C28   C     C_R   0.842430 0.235041 0.523322 -0.010020
C29   C     C_R   0.315436 0.185319 0.488397 -0.090225
C30   C     C_R   0.325734 0.804840 0.489870 -0.083857
C31   C     C_R   0.828160 0.697009 0.488867 -0.088722
C32   C     C_R   0.814203 0.314797 0.483641 -0.090262
C33   C     C_R   0.234209 0.181382 0.405960 -0.234281
C34   C     C_R   0.259515 0.795601 0.383134 -0.225336
C35   C     C_R   0.760694 0.704199 0.383649 -0.217691
C36   C     C_R   0.723773 0.327944 0.433307 -0.238298
C37   C     C_R   0.691968 0.762865 0.394027 -0.203530
C38   C     C_R   0.659937 0.263154 0.444429 -0.180418
C39   C     C_R   0.171961 0.247878 0.411473 -0.191199
C40   C     C_R   0.189895 0.737708 0.393628 -0.204642
C41   C     C_R   0.690000 0.814889 0.509460 -0.108561
C42   C     C_R   0.687157 0.186363 0.506019 -0.093693
C43   C     C_R   0.191042 0.317094 0.500367 -0.083920
C44   C     C_R   0.186228 0.688183 0.510372 -0.110838
C45   C     C_R   0.764822 0.815057 0.608664 0.043264
C46   C     C_R   0.780614 0.170466 0.531883 -0.023216
C47   C     C_R   0.281146 0.326843 0.556300 -0.028345
C48   C     C_R   0.258927 0.690909 0.611837 0.025524
C49   C     C_3   0.771854 0.788589 0.757840 -0.017072
C50   C     C_3   0.837362 0.133798 0.649710 -0.026447
C51   C     C_3   0.331917 0.359049 0.684712 -0.058165
C52   C     C_3   0.262854 0.718585 0.760548 -0.022770
H1    H     H_    0.217080 0.125980 0.344076 0.141444
H2    H     H_    0.257318 0.837250 0.296932 0.151768
H3    H     H_    0.756494 0.660106 0.299327 0.148917
H4    H     H_    0.701801 0.389034 0.394239 0.138639
H5    H     H_    0.327599 0.037408 0.149151 0.222747
H6    H     H_    0.296888 0.925484 0.108947 0.152333
H7    H     H_    0.795676 0.556365 0.129642 0.186769
H8    H     H_    0.831747 0.443153 0.126464 0.206734
H9    H     H_    0.638135 0.765328 0.313343 0.164391
H10   H     H_    0.589241 0.273647 0.409059 0.146310
H11   H     H_    0.107775 0.243681 0.350504 0.143924
H12   H     H_    0.137343 0.733200 0.311269 0.166162
H13   H     H_    0.712955 0.747083 0.778746 0.146108
H14   H     H_    0.803653 0.135030 0.745868 0.136199
H15   H     H_    0.290984 0.358952 0.773693 0.152707
H16   H     H_    0.203442 0.759721 0.780686 0.143058
H17   H     H_    0.377108 0.234740 0.763325 0.141424
H18   H     H_    0.343797 0.832774 0.777486 0.208079
H19   H     H_    0.854668 0.675089 0.767445 0.183136
H20   H     H_    0.902031 0.253692 0.727932 0.140619
H21   H     H_    0.622842 0.068512 0.140240 0.155491
H22   H     H_    0.122754 0.431992 0.138369 0.157160
N1    N     N_R   0.499140 0.000000 0.142800 -0.105625
N2    N     N_R   0.999140 0.500000 0.142800 -0.103529
N3    N     N_R   0.499160 1.000000 0.857150 -0.135093
N4    N     N_R   0.999160 0.500000 0.857150 -0.124190
O1    O     O_R   0.408400 0.908380 0.614690 -0.633500
O2    O     O_R   0.408400 0.091620 0.614690 -0.643316
O3    O     O_R   0.908400 0.408380 0.614690 -0.611363
O4    O     O_R   0.908400 0.591620 0.614690 -0.627723
O5    O     O_R   0.408370 0.908370 0.385350 -0.621070
O6    O     O_R   0.408370 0.091630 0.385350 -0.616386
O7    O     O_R   0.908370 0.408370 0.385350 -0.616919
O8    O     O_R   0.908370 0.591630 0.385350 -0.620953
O9    O     O_R   0.591610 0.091610 0.614650 -0.582059
O10   O     O_R   0.591610 0.908390 0.614650 -0.630097
O11   O     O_R   0.091610 0.591610 0.614650 -0.627014
O12   O     O_R   0.091610 0.408390 0.614650 -0.594489
O13   O     O_R   0.591590 0.091600 0.385310 -0.623867
O14   O     O_R   0.591590 0.908400 0.385310 -0.613375
O15   O     O_R   0.091590 0.591600 0.385310 -0.612472
O16   O     O_R   0.091590 0.408400 0.385310 -0.626393
Zn1   Zn    Zn3+2 0.500010 0.000000 0.653130 0.936057
Zn2   Zn    Zn3+2 0.000010 0.500000 0.653130 0.945285
Zn3   Zn    Zn3+2 0.499980 0.000000 0.346870 0.946570
Zn4   Zn    Zn3+2 0.999980 0.500000 0.346870 0.942977
N5    N     N_2   0.787836 0.854372 0.858683 -0.293061
H23   H     H_    0.844314 0.892176 0.852000 0.271914
C53   C     C_3   0.770509 0.830767 0.995179 -0.810913
H24   H     H_    0.783413 0.885860 0.064180 0.244752
H25   H     H_    0.815587 0.777910 0.030393 0.246395
H26   H     H_    0.698018 0.811336 0.999718 0.240243
N6    N     N_2   0.874141 0.051782 0.613089 -0.279819
H27   H     H_    0.892988 0.045728 0.515292 0.247622
C54   C     C_3   0.936553 0.011324 0.711632 -0.775856
H28   H     H_    0.934962 0.942350 0.692044 0.233966
H29   H     H_    0.917762 0.024453 0.816041 0.229181
H30   H     H_    0.007450 0.032573 0.700652 0.263533
N7    N     N_2   0.378624 0.438648 0.662130 -0.290122
H31   H     H_    0.402443 0.446770 0.567811 0.233372
C55   C     C_3   0.438767 0.471763 0.772018 -0.815764
H32   H     H_    0.446947 0.540787 0.759052 0.230532
H33   H     H_    0.507570 0.443678 0.770005 0.245689
H34   H     H_    0.411490 0.459462 0.871295 0.245900
N8    N     N_2   0.277976 0.653059 0.859906 -0.294581
H35   H     H_    0.331549 0.612626 0.846902 0.268963
C56   C     C_3   0.269187 0.679237 0.998479 -0.789596
H36   H     H_    0.278024 0.623609 0.065772 0.241621
H37   H     H_    0.200180 0.706074 0.009767 0.235434
H38   H     H_    0.321838 0.727266 0.030324 0.254675
N9    N     N_2   0.488452 0.289793 0.664417 -0.277804
H39   H     H_    0.509422 0.337721 0.604023 0.232005
C57   C     C_3   0.549540 0.266470 0.778864 -0.751882
H40   H     H_    0.547746 0.314458 0.860780 0.224151
H41   H     H_    0.620053 0.260298 0.747237 0.237316
H42   H     H_    0.529253 0.204363 0.818538 0.265893
N10   N     N_2   0.434073 0.724862 0.791960 -0.287993
H43   H     H_    0.467684 0.690509 0.721821 0.228548
C58   C     C_3   0.495402 0.772202 0.884633 -0.791962
H44   H     H_    0.551458 0.730317 0.924578 0.224522
H45   H     H_    0.458756 0.795569 0.971280 0.238725
H46   H     H_    0.525771 0.825733 0.831672 0.266408
N11   N     N_2   0.944318 0.781950 0.782489 -0.289444
H47   H     H_    0.984895 0.800445 0.707192 0.228549
C59   C     C_3   0.997241 0.741056 0.891871 -0.793081
H48   H     H_    0.051185 0.785137 0.934156 0.225710
H49   H     H_    0.030522 0.683346 0.853795 0.256061
H50   H     H_    0.953465 0.723618 0.973785 0.240849
N12   N     N_2   0.994155 0.185792 0.605317 -0.264660
H51   H     H_    0.011043 0.209013 0.513917 0.229311
C60   C     C_3   0.065408 0.198281 0.712204 -0.825829
H52   H     H_    0.131040 0.173322 0.679575 0.248763
H53   H     H_    0.048228 0.164618 0.804766 0.244021
H54   H     H_    0.073746 0.266634 0.736495 0.265234
N13   N     N_2   0.641046 0.076855 0.877422 -0.297808
H55   H     H_    0.672751 0.126439 0.930663 0.192487
C61   C     C_3   0.703286 0.013113 0.836656 -0.681735
H56   H     H_    0.766757 0.015349 0.904660 0.200086
H57   H     H_    0.719273 0.021574 0.731120 0.263603
H58   H     H_    0.670666 0.949974 0.837918 0.279452
N14   N     N_2   0.140348 0.423829 0.875593 -0.297090
H59   H     H_    0.172739 0.374685 0.927459 0.184217
C62   C     C_3   0.200998 0.490051 0.839727 -0.679751
H60   H     H_    0.262083 0.490933 0.912351 0.203661
H61   H     H_    0.165920 0.552049 0.839943 0.276886
H62   H     H_    0.220223 0.481980 0.735285 0.267181
N15   N     N_2   0.319816 0.092365 0.903330 -0.285602
H63   H     H_    0.326908 0.107091 0.804713 0.255759
C63   C     C_3   0.243813 0.137167 0.957001 -0.848184
H64   H     H_    0.233035 0.198479 0.904138 0.228131
H65   H     H_    0.259043 0.152219 0.065511 0.252630
H66   H     H_    0.179883 0.099387 0.943687 0.252762
N16   N     N_2   0.256685 0.950531 0.856976 -0.328050
H67   H     H_    0.204375 0.931467 0.913973 0.220918
C64   C     C_3   0.222668 0.974764 0.722275 -0.835240
H68   H     H_    0.187345 0.919896 0.670850 0.233757
H69   H     H_    0.278538 0.994872 0.661446 0.274262
H70   H     H_    0.173163 0.027383 0.727414 0.244281
N17   N     N_2   0.758264 0.568944 0.880463 -0.285712
H71   H     H_    0.777688 0.628797 0.912701 0.198152
C65   C     C_3   0.664255 0.556204 0.913983 -0.824166
H72   H     H_    0.643623 0.606650 0.984389 0.218595
H73   H     H_    0.654435 0.494930 0.965111 0.258942
H74   H     H_    0.618531 0.559692 0.820319 0.248996
N18   N     N_2   0.809599 0.420372 0.874260 -0.285854
H75   H     H_    0.864398 0.379330 0.882178 0.209891
C66   C     C_3   0.743903 0.405722 0.760628 -0.683046
H76   H     H_    0.752956 0.340778 0.721570 0.212465
H77   H     H_    0.751936 0.452788 0.679937 0.255884
H78   H     H_    0.673487 0.408277 0.792480 0.229810

loop_
_geom_bond_atom_site_label_1
_geom_bond_atom_site_label_2
_ccdc_geom_bond_type
C60   H54   S    
N17   H71   S    
C21   O9    A    
N16   H67   S    
C12   H22   S    
C62   H61   S    
C2    O6    A    
N7    H31   S    
C58   H46   S    
C63   H64   S    
N9    H39   S    
C64   H69   S    
C6    C26   S    
C65   H72   S    
C19   H5    S    
O1    Zn1   S    
N6    C54   S    
C28   C46   A    
C53   H24   S    
C49   H13   S    
C2    C29   S    
C34   C40   A    
O6    Zn3   S    
C32   C36   A    
N13   C61   S    
C38   C42   A    
N8    C56   S    
C7    H19   S    
N9    C57   S    
C22   C41   S    
C3    O7    A    
O16   Zn4   S    
N2    Zn4   S    
C60   H52   S    
C29   C33   A    
N1    Zn3   S    
C7    C27   S    
C60   H53   S    
C42   C46   A    
C5    H17   S    
O7    Zn4   S    
C17   C19   S    
C33   C39   A    
C10   N2    A    
C9    C19   S    
N13   H55   S    
C18   N18   S    
N4    Zn2   S    
N18   C66   S    
O9    Zn1   S    
C3    O3    A    
C50   N6    S    
C54   H28   S    
C23   O11   A    
C8    N12   S    
C22   O10   A    
C20   H8    S    
C25   C47   A    
C40   C44   A    
C18   C20   S    
C52   H16   S    
C26   C48   A    
C59   H48   S    
C55   H34   S    
C52   N8    S    
C27   C45   A    
C65   H73   S    
O10   Zn1   S    
N16   C64   S    
N11   C59   S    
C66   H77   S    
C62   H62   S    
C25   C29   A    
C54   H29   S    
C61   H57   S    
N12   H51   S    
C6    N10   S    
O8    Zn4   S    
C63   H65   S    
O14   Zn3   S    
C64   H70   S    
C56   H37   S    
C19   H6    S    
C33   H1    S    
C59   H50   S    
C13   N3    A    
C8    H20   S    
O4    Zn2   S    
C30   C34   A    
C27   C31   A    
N11   H47   S    
C7    C49   S    
C11   H21   S    
C61   H58   S    
C10   C20   S    
C64   H68   S    
O3    Zn2   S    
C47   C51   S    
C18   N17   S    
C35   H3    S    
N3    Zn1   S    
C23   C44   S    
C23   O15   A    
O2    Zn1   S    
C7    N11   S    
C36   H4    S    
C24   O16   A    
C49   N5    S    
C59   H49   S    
N15   H63   S    
C28   C32   A    
N15   C63   S    
C45   C49   S    
C4    O4    A    
N7    C55   S    
C51   H15   S    
O13   Zn3   S    
C20   H7    S    
O12   Zn2   S    
C50   H14   S    
C5    C25   S    
C16   C18   S    
N5    C53   S    
C12   C14   A    
C34   H2    S    
C53   H26   S    
C12   N2    A    
C14   N14   S    
C57   H40   S    
C8    C28   S    
C54   H30   S    
C31   C35   A    
N14   C62   S    
C13   N13   S    
C58   H44   S    
C8    C50   S    
C63   H66   S    
C55   H32   S    
C21   O13   A    
C65   H74   S    
C17   N16   S    
C6    H18   S    
C5    N9    S    
C51   N7    S    
C35   C37   A    
C22   O14   A    
C58   H45   S    
C24   O12   A    
C37   H9    S    
C56   H36   S    
C15   C17   S    
C66   H76   S    
C1    O5    A    
C39   H11   S    
N6    H27   S    
C46   C50   S    
C40   H12   S    
N5    H23   S    
C6    C52   S    
C66   H78   S    
O11   Zn2   S    
N12   C60   S    
N10   H43   S    
C37   C41   A    
C11   N1    A    
N8    H35   S    
C11   C13   A    
C15   N3    A    
C57   H42   S    
C1    O1    A    
C36   C38   A    
C1    C30   S    
C56   H38   S    
C16   N4    A    
C14   N4    A    
C9    C15   A    
C3    C32   S    
C17   N15   S    
C4    C31   S    
C2    O2    A    
C21   C42   S    
N17   C65   S    
N10   C58   S    
C48   C52   S    
C4    O8    A    
C39   C43   A    
C53   H25   S    
N18   H75   S    
O5    Zn3   S    
C62   H60   S    
C57   H41   S    
C24   C43   S    
C41   C45   A    
C5    C51   S    
C10   C16   A    
C9    N1    A    
C55   H33   S    
N14   H59   S    
C61   H56   S    
C43   C47   A    
O15   Zn4   S    
C44   C48   A    
C38   H10   S    
C26   C30   A    
