data_mof_unit_60517.cif
_audit_creation_date              2012-12-10T18:05:46-0500
_audit_creation_method            fapswitch 2.2
_symmetry_space_group_name_H-M    P1
_symmetry_Int_Tables_number       1
_space_group_crystal_system       triclinic
_cell_length_a                    18.925121
_cell_length_b                    18.779156
_cell_length_c                    18.787245
_cell_angle_alpha                 109.350555
_cell_angle_beta                  109.651286
_cell_angle_gamma                 109.541304
_cell_volume                      5131.65795462

loop_
_atom_site_label
_atom_site_type_symbol
_atom_type_description
_atom_site_fract_x
_atom_site_fract_y
_atom_site_fract_z
_atom_type_partial_charge
C1    C     C_R   0.118060 0.999544 0.618986 0.853939
C2    C     C_R   0.941639 0.996718 0.179677 -0.164185
C3    C     C_R   0.239497 0.251799 0.426478 -0.233371
C4    C     C_R   0.315108 0.318201 0.504961 -0.069184
C5    C     C_R   0.327360 0.321272 0.584608 -0.070189
C6    C     C_R   0.264508 0.253886 0.583885 -0.047909
C7    C     C_R   0.188257 0.186516 0.503309 -0.105333
C8    C     C_R   0.175679 0.186555 0.424957 -0.053420
C9    C     C_R   0.472012 0.384726 0.714960 -0.100212
C10   C     C_R   0.544740 0.455124 0.794053 -0.136708
C11   C     C_R   0.550584 0.536683 0.827412 -0.104382
C12   C     C_R   0.119509 0.118939 0.500945 0.861250
C13   C     C_R   0.483733 0.548005 0.781725 -0.110831
C14   C     C_R   0.411107 0.477927 0.702340 -0.157188
C15   C     C_R   0.404785 0.395808 0.668638 0.082718
C16   C     C_R   0.265548 0.023191 0.692350 0.201142
C17   C     C_R   0.185341 0.001918 0.687101 -0.111209
C18   C     C_R   0.174342 0.992884 0.754547 -0.201657
C19   C     C_R   0.238804 0.992767 0.818952 -0.197396
C20   C     C_R   0.315686 0.004553 0.817678 -0.105575
C21   C     C_R   0.330089 0.025307 0.757138 0.132764
C22   C     C_3   0.358985 0.986878 0.696971 -0.495260
C23   C     C_R   0.881344 0.000094 0.381154 0.802028
C24   C     C_3   0.287293 0.984065 0.625346 -0.250610
C25   C     C_R   0.808065 0.735322 0.482402 0.038415
C26   C     C_R   0.813172 0.814960 0.498450 -0.058333
C27   C     C_R   0.750551 0.829540 0.515489 -0.195492
C28   C     C_R   0.685411 0.764188 0.514660 -0.197106
C29   C     C_R   0.684189 0.685007 0.499862 -0.076042
C30   C     C_R   0.748173 0.674231 0.485611 0.061219
C31   C     C_3   0.780292 0.611970 0.463618 0.284598
C32   C     C_3   0.849192 0.682507 0.461065 -0.481584
C33   C     C_R   0.760652 0.930661 0.230707 0.132536
C34   C     C_R   0.880788 0.881173 0.499415 0.794577
C35   C     C_R   0.815188 0.001086 0.315146 -0.120174
C36   C     C_R   0.803171 0.074176 0.334512 -0.150302
C37   C     C_R   0.738708 0.074303 0.269400 -0.182499
C38   C     C_R   0.684281 0.000538 0.185146 -0.092397
C39   C     C_R   0.697490 0.930017 0.169066 0.105758
C40   C     C_3   0.667716 0.841356 0.100429 -0.507070
C41   C     C_3   0.739319 0.841595 0.170992 -0.446298
C42   C     C_R   0.500656 0.619270 0.619104 0.787064
C43   C     C_R   0.381380 0.382790 0.501863 0.796951
C44   C     C_R   0.500135 0.381662 0.381345 0.793944
C45   C     C_R   0.013027 0.984634 0.204292 -0.136562
C46   C     C_R   0.618421 0.617918 0.499255 0.787988
C47   C     C_R   0.500306 0.118958 0.118756 0.797454
C48   C     C_R   0.381356 0.000373 0.881282 0.798277
C49   C     C_R   0.499837 0.880949 0.881385 0.786801
C50   C     C_R   0.618334 0.999402 0.117992 0.799668
C51   C     C_R   0.423824 0.674311 0.685171 0.076458
C52   C     C_R   0.501155 0.684837 0.687325 -0.074839
C53   C     C_R   0.580115 0.755220 0.761439 -0.212482
C54   C     C_R   0.580183 0.820036 0.825701 -0.223276
C55   C     C_R   0.501228 0.812991 0.817511 -0.078190
C56   C     C_R   0.088915 0.047039 0.284224 -0.098029
C57   C     C_R   0.423913 0.736713 0.749936 0.124696
C58   C     C_3   0.342491 0.725846 0.686481 -0.470899
C59   C     C_3   0.342611 0.657262 0.615259 -0.440436
C60   C     C_R   0.425935 0.242071 0.245483 0.123859
C61   C     C_R   0.501710 0.317006 0.315208 -0.092919
C62   C     C_R   0.580712 0.327007 0.319922 -0.193026
C63   C     C_R   0.580699 0.262439 0.254641 -0.204728
C64   C     C_R   0.501887 0.186158 0.185853 -0.093525
C65   C     C_R   0.426145 0.178833 0.184814 0.129533
C66   C     C_3   0.330107 0.121800 0.136036 -0.466137
C67   C     C_R   0.093788 0.121854 0.340809 0.021424
C68   C     C_3   0.330004 0.193718 0.205976 -0.477228
C69   C     C_R   0.021515 0.134595 0.316051 0.009411
C70   C     C_R   0.945795 0.071234 0.234851 -0.097805
Cu1   Cu    Cu3+1 0.000020 0.938200 0.438220 0.945940
Cu2   Cu    Cu3+1 0.999980 0.061800 0.561780 0.982049
Cu3   Cu    Cu3+1 0.438190 0.500040 0.438260 0.948520
Cu4   Cu    Cu3+1 0.561780 0.500000 0.561820 1.040835
Cu5   Cu    Cu3+1 0.561810 0.061820 0.000020 0.969844
Cu6   Cu    Cu3+1 0.438190 0.938280 0.000080 0.954230
H1    H     H_    0.882914 0.948310 0.117587 0.131859
H2    H     H_    0.606838 0.591076 0.888721 0.125689
H3    H     H_    0.488266 0.611110 0.807889 0.135686
H4    H     H_    0.359757 0.487430 0.667293 0.117069
H5    H     H_    0.114511 0.981721 0.754926 0.157954
H6    H     H_    0.227880 0.981676 0.868293 0.159962
H7    H     H_    0.426108 0.033277 0.716893 0.231149
H8    H     H_    0.347474 0.921003 0.685524 0.167606
H9    H     H_    0.234683 0.916687 0.572528 0.132763
H10   H     H_    0.751118 0.890394 0.528058 0.158322
H11   H     H_    0.009629 0.926878 0.161265 0.128823
H12   H     H_    0.637122 0.775862 0.526640 0.147927
H13   H     H_    0.732614 0.551528 0.399272 0.052470
H14   H     H_    0.917051 0.713426 0.514108 0.237047
H15   H     H_    0.840502 0.663115 0.394709 0.169739
H16   H     H_    0.844042 0.131366 0.399063 0.186035
H17   H     H_    0.730940 0.131146 0.284908 0.157022
H18   H     H_    0.600901 0.793157 0.079370 0.210178
H19   H     H_    0.679952 0.842658 0.046864 0.190330
H20   H     H_    0.713821 0.793844 0.191043 0.197685
H21   H     H_    0.143948 0.036920 0.302415 0.129410
H22   H     H_    0.792440 0.842254 0.157742 0.201811
H23   H     H_    0.641350 0.762265 0.767392 0.159159
H24   H     H_    0.641376 0.876101 0.880484 0.154222
H25   H     H_    0.287732 0.698405 0.697329 0.210653
H26   H     H_    0.352874 0.785169 0.680861 0.186311
H27   H     H_    0.287970 0.590305 0.585133 0.198710
H28   H     H_    0.353199 0.676885 0.568364 0.211970
H29   H     H_    0.641725 0.384627 0.372925 0.192017
H30   H     H_    0.641801 0.271377 0.258713 0.168370
H31   H     H_    0.299591 0.114246 0.070095 0.194868
H32   H     H_    0.309910 0.060075 0.138140 0.206927
H33   H     H_    0.298921 0.227315 0.180332 0.209841
H34   H     H_    0.310347 0.173664 0.248806 0.193024
H35   H     H_    0.889492 0.079071 0.214006 0.178541
H36   H     H_    0.230011 0.250700 0.365780 0.159617
H37   H     H_    0.468025 0.321770 0.689651 0.163951
H38   H     H_    0.596522 0.446431 0.829546 0.136201
O1    O     O_R   0.090190 0.947810 0.538000 -0.608384
O2    O     O_R   0.552160 0.590170 0.642390 -0.579738
O3    O     O_R   0.357620 0.409850 0.447860 -0.595446
O4    O     O_R   0.461990 0.409820 0.552210 -0.571523
O5    O     O_R   0.447810 0.409860 0.357690 -0.591561
O6    O     O_R   0.552180 0.409830 0.462050 -0.551864
O7    O     O_R   0.537970 0.590210 0.447870 -0.597672
O8    O     O_R   0.642350 0.590180 0.552220 -0.523387
O9    O     O_R   0.552210 0.142430 0.090170 -0.583592
O10   O     O_R   0.447820 0.038100 0.090220 -0.586341
O11   O     O_R   0.462030 0.052220 0.909860 -0.576246
O12   O     O_R   0.090150 0.052180 0.642350 -0.553702
O13   O     O_R   0.357640 0.947890 0.909900 -0.587359
O14   O     O_R   0.552180 0.962000 0.909880 -0.584781
O15   O     O_R   0.447790 0.857670 0.909930 -0.584051
O16   O     O_R   0.642360 0.052210 0.090200 -0.581855
O17   O     O_R   0.537970 0.947880 0.090240 -0.582747
O18   O     O_R   0.090200 0.037990 0.447830 -0.588480
O19   O     O_R   0.090160 0.142360 0.552180 -0.574987
O20   O     O_R   0.909850 0.947820 0.357650 -0.581832
O21   O     O_R   0.909810 0.052190 0.462000 -0.596418
O22   O     O_R   0.909840 0.857640 0.447820 -0.589433
O23   O     O_R   0.909800 0.962010 0.552170 -0.592319
O24   O     O_R   0.447790 0.590200 0.538040 -0.591454
C71   C     C_2   0.318960 0.043509 0.591922 0.460521
H39   H     H_    0.288764 0.018770 0.522124 0.049604
O25   O     O_2   0.377415 0.119276 0.641929 -0.530134
S1    S     S_3+6 0.826209 0.593457 0.551199 0.006359
O26   O     O_2   0.755735 0.521269 0.546509 -0.285433
O27   O     O_2   0.891315 0.567516 0.543003 -0.280193
O28   O     O_3   0.875621 0.685118 0.647418 -0.526163
H40   H     H_    0.898127 0.669401 0.692098 0.370638
C72   C     C_2   0.024689 0.213468 0.373776 0.320852
H41   H     H_    0.081475 0.261415 0.437703 0.087237
O29   O     O_2   0.963825 0.226237 0.350469 -0.544029
C73   C     C_2   0.279857 0.255423 0.667768 0.394436
H42   H     H_    0.315385 0.317132 0.728179 0.074523
O30   O     O_2   0.256183 0.188220 0.670989 -0.537858

loop_
_geom_bond_atom_site_label_1
_geom_bond_atom_site_label_2
_ccdc_geom_bond_type
C66   C68   S    
C13   H3    S    
C16   C21   A    
Cu3   O5    S    
C42   O24   A    
C11   C13   A    
Cu3   Cu4   S    
C19   C20   A    
C66   H31   S    
Cu1   O20   S    
O28   H40   S    
Cu2   O19   S    
C7    C8    A    
C62   H29   S    
C53   C54   A    
C53   H23   S    
C26   C27   A    
C33   C39   A    
Cu5   O9    S    
C59   H28   S    
C28   C29   A    
C72   O29   D    
C37   C38   A    
C18   C19   A    
C5    C6    A    
Cu6   O17   S    
C41   H20   S    
Cu3   O24   S    
C44   O6    A    
C70   H35   S    
C18   H5    S    
Cu5   O14   S    
C50   O16   A    
C72   H41   S    
C48   O11   A    
C26   C34   S    
C32   H14   S    
C35   C36   A    
C45   C56   A    
C16   C17   A    
C31   H13   S    
C28   H12   S    
C46   O7    A    
C58   H26   S    
C14   H4    S    
C19   H6    S    
C24   H9    S    
C10   H38   S    
Cu5   O16   S    
C36   H16   S    
C25   C32   S    
Cu1   O18   S    
C16   C24   S    
C21   C22   S    
S1    O28   S    
C54   H24   S    
C69   C70   A    
C56   H21   S    
C6    C7    A    
C57   C58   S    
C2    C45   A    
Cu2   O23   S    
C7    C12   S    
Cu4   O4    S    
Cu3   O3    S    
Cu1   O1    S    
C51   C52   A    
Cu6   O10   S    
C38   C39   A    
C1    O12   A    
C3    C8    A    
C10   C11   A    
C66   H32   S    
C47   C64   S    
Cu2   O21   S    
C44   O5    A    
C25   C26   A    
C49   C55   S    
C49   O15   A    
Cu2   O12   S    
C60   C61   A    
Cu5   O11   S    
C22   H8    S    
C27   H10   S    
Cu5   Cu6   S    
C29   C30   A    
C11   H2    S    
Cu6   O15   S    
C47   O9    A    
C31   C32   S    
C34   O22   A    
C3    H36   S    
Cu4   O2    S    
C62   C63   A    
C17   C18   A    
C37   H17   S    
C73   O30   D    
C58   H25   S    
C68   H34   S    
C63   H30   S    
C20   C48   S    
C43   O3    A    
C51   C57   A    
C42   O2    A    
C40   C41   S    
Cu4   O8    S    
C60   C65   A    
C65   C66   S    
Cu3   O7    S    
C12   O19   A    
C55   C57   A    
C69   C72   S    
C22   C24   S    
C51   C59   S    
C40   H19   S    
C3    C4    A    
C39   C40   S    
C52   C53   A    
C9    C10   A    
C25   C30   A    
C49   O14   A    
C54   C55   A    
C36   C37   A    
C12   O18   A    
C23   O20   A    
C45   H11   S    
C41   H22   S    
C40   H18   S    
C4    C5    A    
C71   H39   S    
Cu1   O22   S    
C38   C50   S    
C4    C43   S    
C44   C61   S    
C56   C67   A    
Cu4   O6    S    
C34   O23   A    
C1    C17   S    
C6    C73   S    
C73   H42   S    
C23   O21   A    
C29   C46   S    
C33   C41   S    
C64   C65   A    
C31   S1    S    
C58   C59   S    
C59   H27   S    
Cu1   Cu2   S    
C2    H1    S    
C2    C70   A    
C22   H7    S    
C48   O13   A    
C71   O25   D    
C47   O10   A    
C30   C31   S    
C33   C35   A    
S1    O27   D    
C68   H33   S    
C9    C15   A    
C61   C62   A    
C23   C35   S    
C9    H37   S    
C5    C15   S    
C50   O17   A    
C43   O4    A    
C63   C64   A    
C32   H15   S    
C20   C21   A    
C60   C68   S    
C8    C67   S    
C24   C71   S    
C27   C28   A    
S1    O26   D    
Cu6   O13   S    
C14   C15   A    
C46   O8    A    
C1    O1    A    
C67   C69   A    
C13   C14   A    
C42   C52   S    
