data_mof_unit_15668.cif
_audit_creation_date              2012-12-10T18:02:09-0500
_audit_creation_method            fapswitch 2.2
_symmetry_space_group_name_H-M    P1
_symmetry_Int_Tables_number       1
_space_group_crystal_system       triclinic
_cell_length_a                    10.819277
_cell_length_b                    9.509459
_cell_length_c                    23.478929
_cell_angle_alpha                 89.564728
_cell_angle_beta                  90.140818
_cell_angle_gamma                 89.885587
_cell_volume                      2415.55876023

loop_
_atom_site_label
_atom_site_type_symbol
_atom_type_description
_atom_site_fract_x
_atom_site_fract_y
_atom_site_fract_z
_atom_type_partial_charge
C1    C     C_R   0.262048 0.500088 0.499875 0.793520
C2    C     C_R   0.737956 0.499915 0.500094 0.803000
C3    C     C_R   0.597374 0.551432 0.238102 0.125785
C4    C     C_R   0.435577 0.586922 0.764042 0.116364
C5    C     C_R   0.598724 0.556495 0.298046 0.049186
C6    C     C_R   0.429795 0.590336 0.704042 0.057966
C7    C     C_R   0.498814 0.501400 0.328858 -0.160066
C8    C     C_R   0.504072 0.497009 0.672068 -0.173764
C9    C     C_R   0.391487 0.459747 0.299775 0.033816
C10   C     C_R   0.582932 0.400356 0.700869 0.049877
C11   C     C_R   0.390884 0.456129 0.239930 0.179349
C12   C     C_R   0.584828 0.395417 0.760524 0.165104
C13   C     C_R   0.503402 0.474282 0.209214 0.224285
C14   C     C_R   0.511558 0.488243 0.791960 0.299101
C15   C     C_R   0.064135 0.372265 0.499293 -0.165655
C16   C     C_R   0.935875 0.627788 0.500305 -0.146947
C17   C     C_R   0.936354 0.372162 0.499460 -0.166401
C18   C     C_R   0.063658 0.627891 0.500194 -0.154469
C19   C     C_R   0.871776 0.499914 0.499989 -0.014917
C20   C     C_R   0.128235 0.500125 0.499750 -0.020574
C21   C     C_R   0.416352 0.075226 0.468004 -0.003171
C22   C     C_R   0.583743 0.924759 0.531927 0.013710
C23   C     C_R   0.583986 0.073614 0.531779 -0.018426
C24   C     C_R   0.416430 0.926331 0.467963 0.005790
C25   C     C_R   0.500660 0.500491 0.391156 0.857254
C26   C     C_R   0.500100 0.499391 0.609186 0.854468
C27   C     C_R   0.615105 0.520114 0.882190 0.601342
C28   C     C_R   0.426888 0.361960 0.119811 0.615986
C29   C     C_R   0.412254 0.422161 0.880244 0.620890
C30   C     C_R   0.627928 0.442564 0.121261 0.640928
C31   C     C_R   0.412882 0.401242 0.939922 -0.101028
C32   C     C_R   0.630012 0.463814 0.061751 -0.126268
C33   C     C_R   0.518564 0.446415 0.970877 -0.062504
C34   C     C_R   0.521470 0.431760 0.030780 -0.080772
C35   C     C_R   0.622945 0.502168 0.941933 -0.085752
C36   C     C_R   0.418430 0.376641 0.060071 -0.068178
C37   C     C_R   0.312418 0.337137 0.969564 0.166805
C38   C     C_R   0.735035 0.515796 0.032821 0.238225
C39   C     C_R   0.311289 0.336186 0.029792 0.136051
C40   C     C_R   0.731509 0.535789 0.973589 0.105769
Cu1   Cu    Cu3+1 0.500000 0.640660 0.500000 0.982468
Cu2   Cu    Cu3+1 0.500000 0.359340 0.500000 0.956076
H1    H     H_    0.112423 0.272376 0.498859 0.153088
H2    H     H_    0.887578 0.727676 0.500658 0.156061
H3    H     H_    0.888443 0.272247 0.499172 0.153381
H4    H     H_    0.111572 0.727803 0.500521 0.156910
H5    H     H_    0.349471 0.131999 0.442316 0.115213
H6    H     H_    0.650755 0.867998 0.557541 0.121863
H7    H     H_    0.651700 0.129022 0.556972 0.112873
H8    H     H_    0.349629 0.870795 0.442246 0.119111
N1    N     N_R   0.512234 0.478650 0.853227 -0.427249
N2    N     N_R   0.517298 0.431547 0.149185 -0.437785
N3    N     N_R   0.500000 0.852070 0.500000 -0.156220
N4    N     N_R   0.500000 0.147930 0.500000 -0.159833
O1    O     O_R   0.319640 0.618740 0.500000 -0.583107
O2    O     O_R   0.680360 0.381260 0.500000 -0.593396
O3    O     O_R   0.680360 0.618740 0.500000 -0.583103
O4    O     O_R   0.319640 0.381260 0.500000 -0.594047
O5    O     O_R   0.499960 0.618810 0.417880 -0.561290
O6    O     O_R   0.500040 0.381190 0.582120 -0.585916
O7    O     O_R   0.500040 0.618810 0.582120 -0.552224
O8    O     O_R   0.499960 0.381190 0.417880 -0.576735
O9    O     O_2   0.708397 0.578895 0.852519 -0.550325
O10   O     O_2   0.356432 0.265615 0.146661 -0.486659
O11   O     O_2   0.312212 0.389953 0.848833 -0.492969
O12   O     O_2   0.733621 0.416318 0.149749 -0.487496
I1    I     I_    0.170811 0.216769 0.927042 -0.219462
I2    I     I_    0.899571 0.585154 0.075850 -0.244711
N5    N     N_3   0.200774 0.299881 0.061013 -0.474902
H9    H     H_    0.181781 0.382972 0.088616 0.252102
H10   H     H_    0.122978 0.298305 0.034888 0.249564
N6    N     N_3   0.841322 0.589172 0.947011 -0.522901
H11   H     H_    0.873983 0.516652 0.917358 0.279741
H12   H     H_    0.822638 0.686675 0.928009 0.279098
N7    N     N_3   0.680263 0.640337 0.206670 -0.523782
H13   H     H_    0.771285 0.615099 0.217796 0.292083
H14   H     H_    0.663706 0.744627 0.218256 0.242174
N8    N     N_3   0.364124 0.682395 0.797632 -0.535954
H15   H     H_    0.270481 0.666517 0.788794 0.274162
H16   H     H_    0.387733 0.785210 0.786027 0.249844
I3    I     I_    0.752640 0.648399 0.341425 -0.355638
I4    I     I_    0.300467 0.730339 0.663694 -0.350836
N9    N     N_3   0.279690 0.428263 0.330138 -0.582201
H17   H     H_    0.256212 0.514961 0.355053 0.217009
H18   H     H_    0.295964 0.342260 0.357124 0.232528
N10   N     N_3   0.663594 0.307074 0.670673 -0.588418
H19   H     H_    0.714556 0.364623 0.640777 0.222744
H20   H     H_    0.610249 0.231484 0.650054 0.244596
N11   N     N_3   0.273869 0.456827 0.210995 -0.529912
H21   H     H_    0.225741 0.547481 0.222790 0.237555
H22   H     H_    0.222546 0.369947 0.224778 0.288440
N12   N     N_3   0.660227 0.294137 0.790052 -0.549048
H23   H     H_    0.752298 0.310303 0.778316 0.267793
H24   H     H_    0.634079 0.193656 0.776921 0.243963

loop_
_geom_bond_atom_site_label_1
_geom_bond_atom_site_label_2
_ccdc_geom_bond_type
C22   H6    S    
C8    C10   A    
C6    I4    S    
C8    C26   S    
Cu1   Cu2   S    
Cu1   O7    S    
Cu2   O4    S    
C2    O3    A    
C38   C40   A    
C26   O7    A    
C17   H3    S    
C21   N4    A    
C33   C35   A    
N8    H16   S    
C23   H7    S    
C11   C13   A    
C15   C17   A    
N5    H10   S    
Cu1   O1    S    
C30   N2    A    
Cu2   O2    S    
N9    H17   S    
C31   C33   A    
C32   C38   A    
N11   H22   S    
C3    N7    S    
C16   H2    S    
C34   C36   A    
C3    C13   A    
C18   H4    S    
C27   N1    A    
C22   N3    A    
C24   H8    S    
C15   C20   A    
N10   H20   S    
Cu1   O5    S    
N6    H12   S    
Cu2   O6    S    
C5    C7    A    
N10   H19   S    
C6    C8    A    
C27   C35   A    
C24   N3    A    
C31   C37   A    
C32   C34   A    
N7    H13   S    
C4    N8    S    
C13   N2    S    
C5    I3    S    
C11   N11   S    
C14   N1    S    
N12   H24   S    
C33   C34   A    
C39   N5    S    
C9    C11   A    
Cu1   N3    S    
C30   O12   S    
C10   C12   A    
C9    N9    S    
C29   O11   S    
C28   O10   S    
C16   C18   A    
N9    H18   S    
C12   C14   A    
C21   C24   A    
C4    C6    A    
C23   N4    A    
C29   N1    A    
C7    C9    A    
Cu2   O8    S    
C10   N10   S    
C1    C20   S    
C40   N6    S    
C2    C19   S    
N8    H15   S    
C12   N12   S    
C36   C39   A    
C38   I2    S    
N6    H11   S    
C3    C5    A    
C7    C25   S    
C35   C40   A    
C1    O1    A    
C15   H1    S    
C29   C31   A    
C2    O2    A    
C1    O4    A    
Cu2   N4    S    
C30   C32   A    
C28   N2    A    
C16   C19   A    
C37   I1    S    
N12   H23   S    
C17   C19   A    
C18   C20   A    
C25   O8    A    
C4    C14   A    
N5    H9    S    
Cu1   O3    S    
C28   C36   A    
C37   C39   A    
N7    H14   S    
C22   C23   A    
C27   O9    S    
C25   O5    A    
N11   H21   S    
C26   O6    A    
C21   H5    S    
