data_mof_unit_31797.cif
_audit_creation_date              2013-03-05T16:08:54-0500
_audit_creation_method            fapswitch 2.2
_symmetry_space_group_name_H-M    P1
_symmetry_Int_Tables_number       1
_space_group_crystal_system       triclinic
_cell_length_a                    17.262439
_cell_length_b                    6.876584
_cell_length_c                    14.412845
_cell_angle_alpha                 89.99811
_cell_angle_beta                  110.247167
_cell_angle_gamma                 90.00159
_cell_volume                      1605.18083054

loop_
_atom_site_label
_atom_site_type_symbol
_atom_site_description
_atom_site_fract_x
_atom_site_fract_y
_atom_site_fract_z
_atom_type_partial_charge
O1    O     O_R   0.314130 0.635770 0.168990 -0.586102
O2    O     O_R   0.685870 0.364230 0.831010 -0.586110
O3    O     O_R   0.185870 0.135770 0.331010 -0.586291
O4    O     O_R   0.814130 0.864230 0.668990 -0.586097
O5    O     O_R   0.146800 0.302460 0.139760 -0.596908
O6    O     O_R   0.853200 0.697540 0.860240 -0.596849
O7    O     O_R   0.353200 0.802460 0.360240 -0.596903
O8    O     O_R   0.646800 0.197540 0.639760 -0.596892
C1    C     C_R   0.113986 0.475854 0.112768 1.002688
C2    C     C_R   0.886016 0.524146 0.887229 1.002602
C3    C     C_R   0.386015 0.975854 0.387230 1.002752
C4    C     C_R   0.613985 0.024146 0.612769 1.002831
O9    O     O_R   0.311100 0.305780 0.157130 -0.578091
O10   O     O_R   0.688900 0.694220 0.842870 -0.578201
O11   O     O_R   0.188900 0.805780 0.342870 -0.578430
O12   O     O_R   0.811100 0.194220 0.657130 -0.578229
O13   O     O_R   0.351340 0.139640 0.348510 -0.575424
O14   O     O_R   0.648660 0.860360 0.651490 -0.575368
O15   O     O_R   0.148660 0.639640 0.151490 -0.575083
O16   O     O_R   0.851340 0.360360 0.848510 -0.575457
C5    C     C_R   0.332726 0.475800 0.135758 1.036727
C6    C     C_R   0.667276 0.524197 0.864245 1.036725
C7    C     C_R   0.167256 0.975796 0.364225 1.037396
C8    C     C_R   0.832747 0.024222 0.635787 1.036978
C9    C     C_1   0.533569 0.008891 0.533044 -0.175431
C10   C     C_1   0.466431 0.991109 0.466955 -0.175503
C11   C     C_1   0.966432 0.508890 0.966953 -0.175476
C12   C     C_1   0.033570 0.491109 0.033043 -0.174865
O17   O     O_3   0.263010 0.470920 0.312770 -0.274535
O18   O     O_3   0.736990 0.529080 0.687230 -0.274148
O19   O     O_3   0.236990 0.970920 0.187230 -0.274059
O20   O     O_3   0.763010 0.029080 0.812770 -0.274313
V1    V     V_3+5 0.247590 0.194450 0.238360 1.253755
V2    V     V_3+5 0.752410 0.805550 0.761640 1.253777
V3    V     V_3+5 0.252410 0.694450 0.261640 1.253672
V4    V     V_3+5 0.747590 0.305550 0.738360 1.253804
C13   C     C_R   0.117306 0.993895 0.429418 -0.313241
C14   C     C_R   0.882653 0.006302 0.570546 -0.312144
C15   C     C_R   0.382648 0.493865 0.070531 -0.312905
C16   C     C_R   0.617348 0.506116 0.929466 -0.313128
C17   C     C_R   0.913356 0.823945 0.441977 0.055129
C18   C     C_R   0.086284 0.177377 0.557458 0.055981
C19   C     C_R   0.586092 0.322052 0.057176 0.055560
C20   C     C_R   0.413869 0.677810 0.942765 0.055388
C21   C     C_R   0.861011 0.864357 0.496013 -0.020579
C22   C     C_R   0.138723 0.136581 0.503599 -0.019113
C23   C     C_R   0.638644 0.363102 0.003486 -0.018918
C24   C     C_R   0.361329 0.636803 0.996475 -0.019103
C25   C     C_R   0.955282 0.115666 0.589076 0.296074
C26   C     C_R   0.044756 0.884264 0.411050 0.295525
C27   C     C_R   0.544900 0.616060 0.911227 0.295458
C28   C     C_R   0.455104 0.383945 0.088786 0.295532
C29   C     C_R   0.010350 0.075045 0.536818 -0.048754
C30   C     C_R   0.989535 0.925424 0.463044 -0.048290
C31   C     C_R   0.489718 0.575166 0.963304 -0.049008
C32   C     C_R   0.510271 0.424792 0.036683 -0.049091
N1    N     N_R   0.026998 0.735369 0.337014 0.231819
O21   O     O_R   0.998727 0.781986 0.243779 -0.424185
O22   O     O_R   0.048668 0.556533 0.362664 -0.418778
N2    N     N_R   0.973465 0.263048 0.663894 0.231488
O23   O     O_R   0.950516 0.441683 0.639474 -0.417221
O24   O     O_R   0.003336 0.214677 0.756836 -0.424308
N3    N     N_R   0.472993 0.235625 0.163120 0.231709
O25   O     O_R   0.449917 0.057307 0.138080 -0.418552
O26   O     O_R   0.502800 0.282775 0.256225 -0.424220
N4    N     N_R   0.527046 0.764509 0.836957 0.231754
O27   O     O_R   0.549942 0.942886 0.862113 -0.418707
O28   O     O_R   0.497477 0.717487 0.743824 -0.424173
N5    N     N_3   0.215407 0.239441 0.524459 -0.199015
H1    H     H_    0.252329 0.215395 0.598098 0.096704
H2    H     H_    0.203290 0.388164 0.513316 0.152052
N6    N     N_3   0.784221 0.761904 0.474986 -0.199102
H3    H     H_    0.796181 0.613043 0.485699 0.151537
H4    H     H_    0.747247 0.786783 0.401445 0.097001
N7    N     N_3   0.284678 0.739778 0.975628 -0.198855
H5    H     H_    0.296837 0.888458 0.986916 0.152472
H6    H     H_    0.247790 0.716011 0.901950 0.096851
N8    N     N_3   0.715285 0.260089 0.024319 -0.198956
H7    H     H_    0.752166 0.283778 0.098006 0.096469
H8    H     H_    0.703112 0.111422 0.012991 0.152349
N9    N     N_3   0.888389 0.679271 0.365479 -0.158824
H9    H     H_    0.832315 0.720597 0.312253 0.104842
H10   H     H_    0.881104 0.545839 0.396263 0.136882
N10   N     N_3   0.110655 0.324159 0.632926 -0.158836
H11   H     H_    0.117293 0.456957 0.601178 0.137397
H12   H     H_    0.166927 0.284978 0.686399 0.105450
N11   N     N_3   0.610276 0.174697 0.132364 -0.158852
H13   H     H_    0.666567 0.213353 0.185951 0.105338
H14   H     H_    0.616796 0.042101 0.100374 0.137258
N12   N     N_3   0.389618 0.824938 0.867462 -0.158833
H15   H     H_    0.383028 0.957605 0.899346 0.137332
H16   H     H_    0.333348 0.786045 0.813900 0.105400

loop_
_geom_bond_atom_site_label_1
_geom_bond_atom_site_label_2
_geom_bond_distance
_ccdc_geom_bond_type
C2    C11   1.467770 S    
C16   C23   1.403195 A    
N4    O28   1.301026 A    
C31   C32   1.433151 A    
N3    O26   1.301045 A    
O1    C5    1.284148 A    
O3    C7    1.284135 A    
N11   H13   1.044978 S    
N9    H9    1.045112 S    
N12   H15   1.045293 S    
C14   C25   1.406056 A    
C29   C30   1.433154 A    
O7    C3    1.319622 A    
O5    C1    1.319626 A    
C26   C30   1.429967 A    
C25   N2    1.433279 S    
O20   V4    2.153550 S    
N10   H12   1.044989 S    
C18   C29   1.425463 A    
O8    V4    1.971555 S    
O4    C8    1.284176 A    
N8    H8    1.045085 S    
N1    O22   1.301246 A    
O3    V1    2.016387 S    
O17   V1    2.153598 S    
N2    O24   1.301086 A    
C18   C22   1.409647 A    
N5    H2    1.045094 S    
C22   N5    1.437889 S    
C1    O15   1.306545 A    
C2    O16   1.306543 A    
C14   C21   1.403059 A    
O5    V1    1.971557 S    
O2    C6    1.284140 A    
C8    C14   1.484005 S    
O19   V1    1.687016 S    
O11   C7    1.296469 A    
C15   C28   1.406154 A    
C17   N9    1.436064 S    
O12   C8    1.296317 A    
C21   N6    1.437806 S    
C24   N7    1.437841 S    
O13   V1    1.975369 S    
O11   V3    2.011771 S    
N9    H10   1.045552 S    
O4    V2    2.016387 S    
O18   V2    2.153599 S    
C18   N10   1.436054 S    
N10   H11   1.045319 S    
N6    H4    1.044931 S    
N8    H7    1.044898 S    
C3    C10   1.467766 S    
C9    C10   1.225309 T    
C7    C13   1.484141 S    
O6    V2    1.971557 S    
N2    O23   1.301256 A    
C27   N4    1.433359 S    
O20   V2    1.687014 S    
N7    H5    1.045088 S    
O6    C2    1.319629 A    
O14   V2    1.975368 S    
N12   H16   1.044999 S    
C5    C15   1.484126 S    
O8    C4    1.319622 A    
C6    C16   1.484147 S    
O9    C5    1.296423 A    
N7    H6    1.044902 S    
N11   H14   1.045266 S    
O19   V3    2.153549 S    
C20   N12   1.436061 S    
O1    V3    2.016415 S    
O2    V4    2.016416 S    
C3    O13   1.306543 A    
C26   N1    1.433389 S    
O7    V3    1.971556 S    
N6    H3    1.045117 S    
C28   N3    1.433315 S    
O10   V2    2.011718 S    
C16   C27   1.406146 A    
O17   V3    1.686980 S    
O18   V4    1.686979 S    
C4    C9    1.467767 S    
C19   N11   1.436046 S    
O10   C6    1.296446 A    
O15   V3    1.975368 S    
O12   V4    2.011769 S    
C13   C26   1.406189 A    
C20   C31   1.425468 A    
N1    O21   1.301059 A    
C25   C29   1.429893 A    
N4    O27   1.301191 A    
C27   C31   1.429935 A    
N5    H1    1.044908 S    
C17   C30   1.425514 A    
N3    O25   1.301169 A    
O16   V4    1.975369 S    
C28   C32   1.429918 A    
C19   C32   1.425464 A    
O9    V1    2.011719 S    
C4    O14   1.306544 A    
C11   C12   1.225305 T    
C17   C21   1.409741 A    
C23   N8    1.437857 S    
C13   C22   1.403201 A    
C19   C23   1.409709 A    
C20   C24   1.409724 A    
C1    C12   1.467771 S    
C15   C24   1.403174 A    
