data_mof_unit_64521.cif
_audit_creation_date              2012-10-26T20:09:03-0400
_audit_creation_method            fapswitch 2.2
_symmetry_space_group_name_H-M    P1
_symmetry_Int_Tables_number       1
_space_group_crystal_system       triclinic
_cell_length_a                    12.752728
_cell_length_b                    13.919439
_cell_length_c                    15.910278
_cell_angle_alpha                 90.188097
_cell_angle_beta                  92.710172
_cell_angle_gamma                 98.0238
_cell_volume                      2793.3301447

loop_
_atom_site_label
_atom_site_type_symbol
_atom_type_description
_atom_site_fract_x
_atom_site_fract_y
_atom_site_fract_z
_atom_type_partial_charge
Br1   Br    Br    0.315689 0.950842 0.493666 -0.440512
Br2   Br    Br    0.684307 0.049090 0.506901 -0.449987
Br3   Br    Br    0.736193 0.498464 0.097609 -0.466675
Br4   Br    Br    0.394495 0.681774 0.088915 -0.480701
Br5   Br    Br    0.630005 0.702962 0.114030 -0.341384
C1    C     C_R   0.483504 0.315910 0.499162 0.546758
C2    C     C_2   0.543622 0.977914 0.501875 0.168572
C3    C     C_2   0.456368 0.022052 0.498623 0.166744
C4    C     C_R   0.500687 0.500184 0.339976 0.557701
C5    C     C_1   0.465384 0.125820 0.498752 0.053273
C6    C     C_1   0.534607 0.874153 0.501615 0.060145
C7    C     C_1   0.473932 0.212752 0.498918 0.028426
C8    C     C_2   0.028580 0.477994 0.479129 -0.112529
C9    C     C_2   0.971986 0.528024 0.530636 0.120539
C10   C     C_1   0.854535 0.519640 0.519313 0.186521
C11   C     C_1   0.145617 0.482355 0.483929 0.165324
C12   C     C_3   0.395450 0.456125 0.947607 -0.242323
C13   C     C_R   0.516495 0.684084 0.500898 0.552621
C14   C     C_R   0.499343 0.499949 0.660009 0.538607
C15   C     C_3   0.394699 0.455809 0.045123 -0.028214
C16   C     C_3   0.593134 0.455598 0.050198 0.015550
C17   C     C_3   0.589283 0.453688 0.952627 -0.238247
C18   C     C_1   0.498357 0.502508 0.749339 -0.033218
C19   C     C_3   0.502922 0.509998 0.083150 0.058043
C20   C     C_3   0.666121 0.686076 0.849512 -0.267891
C21   C     C_3   0.966113 0.616713 0.664697 -0.278021
C22   C     C_3   0.261012 0.317724 0.079624 -0.285525
C23   C     C_3   0.501388 0.511691 0.916788 0.030306
C24   C     C_3   0.350578 0.663178 0.879767 -0.285785
C25   C     C_3   0.526056 0.621194 0.951632 0.317199
C26   C     C_3   0.514344 0.618990 0.051761 0.302984
C27   C     C_1   0.499252 0.506284 0.824694 -0.045437
C28   C     C_1   0.503006 0.505742 0.175346 0.091399
C29   C     C_1   0.502345 0.502694 0.250644 0.069353
C30   C     C_1   0.526064 0.787228 0.501305 0.036717
Cu1   Cu    Cu3+1 0.395330 0.493960 0.494700 1.042147
Cu2   Cu    Cu3+1 0.604670 0.506040 0.505300 1.043625
H1    H     H_    0.385718 0.380241 0.922942 0.140058
H2    H     H_    0.601630 0.714298 0.812123 0.181656
H3    H     H_    0.689172 0.622140 0.816936 0.131725
H4    H     H_    0.102828 0.581431 0.611809 0.262389
H5    H     H_    0.018210 0.666324 0.708721 0.153429
H6    H     H_    0.935121 0.550257 0.699184 0.142997
H7    H     H_    0.899491 0.654942 0.642011 0.172768
H8    H     H_    0.416603 0.307787 0.052845 0.260457
H9    H     H_    0.253380 0.244188 0.107494 0.173848
H10   H     H_    0.223152 0.312305 0.015122 0.149615
H11   H     H_    0.219406 0.364417 0.119608 0.177128
H12   H     H_    0.329748 0.495630 0.063697 0.194809
H13   H     H_    0.477480 0.759523 0.932854 0.306936
H14   H     H_    0.322213 0.728757 0.852415 0.157838
H15   H     H_    0.297270 0.637690 0.930456 0.182157
H16   H     H_    0.344801 0.609204 0.828010 0.147805
H17   H     H_    0.324360 0.484270 0.921252 0.114760
H18   H     H_    0.985722 0.431149 0.430514 0.124069
H19   H     H_    0.580085 0.379339 0.071823 0.158262
H20   H     H_    0.572166 0.376831 0.930460 0.117969
H21   H     H_    0.667834 0.480757 0.927987 0.165114
H22   H     H_    0.696134 0.634627 0.969209 0.300801
H23   H     H_    0.735939 0.743538 0.852744 0.165511
N1    N     N_1   0.238030 0.484880 0.486720 -0.178096
N2    N     N_1   0.761970 0.515120 0.513270 -0.189994
N3    N     N_2   0.636313 0.660640 0.934433 -0.468284
N4    N     N_2   0.026174 0.591652 0.594797 -0.493655
N5    N     N_2   0.372041 0.356918 0.076741 -0.534006
N6    N     N_2   0.459172 0.688496 0.912228 -0.478861
O1    O     O_R   0.399110 0.356330 0.494870 -0.490105
O2    O     O_R   0.575900 0.366540 0.503830 -0.480786
O3    O     O_R   0.411570 0.494900 0.374960 -0.486300
O4    O     O_R   0.588350 0.505100 0.383910 -0.472229
O5    O     O_R   0.424100 0.633460 0.496170 -0.476657
O6    O     O_R   0.600890 0.643670 0.505130 -0.488124
O7    O     O_R   0.411650 0.494900 0.616090 -0.498578
O8    O     O_R   0.588430 0.505100 0.625040 -0.502529

loop_
_geom_bond_atom_site_label_1
_geom_bond_atom_site_label_2
_ccdc_geom_bond_type
C22   H11   S    
C17   H21   S    
C16   H19   S    
C14   C18   S    
Cu2   O8    S    
C15   H12   S    
C22   N5    S    
C20   H23   S    
Br1   C3    S    
C13   C30   S    
H22   N3    S    
Br2   C2    S    
Cu1   O5    S    
C23   C27   S    
C9    N4    S    
C18   C27   T    
C12   C23   S    
C17   H20   S    
C6    C30   T    
Cu2   N2    S    
C8    C11   S    
C19   C26   S    
C21   H7    S    
C2    C3    D    
C17   C23   S    
C8    C9    D    
C20   H2    S    
C2    C6    S    
H13   N6    S    
C25   N6    S    
C5    C7    T    
C22   H9    S    
C1    O2    A    
Cu1   Cu2   S    
C10   N2    T    
C4    O3    A    
C21   H6    S    
C28   C29   T    
C12   H1    S    
C20   H3    S    
C13   O6    A    
C25   C26   S    
C8    H18   S    
Cu1   O1    S    
Br4   C26   S    
Br3   C16   S    
Cu1   O7    S    
C24   H14   S    
C24   N6    S    
Cu2   O6    S    
Cu2   O2    S    
C15   C19   S    
C15   N5    S    
C14   O7    A    
C12   C15   S    
C4    O4    A    
C21   H5    S    
C3    C5    S    
C11   N1    T    
C16   C19   S    
C22   H10   S    
C13   O5    A    
Cu1   O3    S    
C21   N4    S    
C9    C10   S    
C1    O1    A    
C20   N3    S    
H4    N4    S    
Br5   C26   S    
C16   C17   S    
C25   N3    S    
H8    N5    S    
C12   H17   S    
C14   O8    A    
Cu2   O4    S    
C1    C7    S    
C19   C28   S    
C4    C29   S    
C23   C25   S    
C24   H16   S    
C24   H15   S    
Cu1   N1    S    
