data_mof_unit_12636.cif
_audit_creation_date              2012-10-26T17:13:07-0400
_audit_creation_method            fapswitch 2.2
_symmetry_space_group_name_H-M    P1
_symmetry_Int_Tables_number       1
_space_group_crystal_system       triclinic
_cell_length_a                    16.766103
_cell_length_b                    16.765071
_cell_length_c                    16.767987
_cell_angle_alpha                 67.707834
_cell_angle_beta                  67.706253
_cell_angle_gamma                 67.709697
_cell_volume                      3879.45748273

loop_
_atom_site_label
_atom_site_type_symbol
_atom_type_description
_atom_site_fract_x
_atom_site_fract_y
_atom_site_fract_z
_atom_type_partial_charge
C1    C     C_R   0.323893 0.954848 0.449946 -0.074386
C2    C     C_R   0.309524 0.427059 0.012790 -0.133728
C3    C     C_R   0.546587 0.426344 0.962641 -0.034152
C4    C     C_R   0.042322 0.452236 0.571434 -0.042947
C5    C     C_R   0.967037 0.546193 0.424033 -0.035091
C6    C     C_3   0.295345 0.956571 0.868017 -0.604123
C7    C     C_3   0.691768 0.076430 0.121858 -0.552806
C8    C     C_3   0.979222 0.856404 0.288991 -0.600743
C9    C     C_3   0.090146 0.115207 0.684258 -0.556003
C10   C     C_3   0.870062 0.298429 0.948059 -0.596928
C11   C     C_3   0.117496 0.685811 0.083446 -0.561299
C12   C     C_3   0.261607 0.772545 0.775417 -0.510739
C13   C     C_R   0.990337 0.689604 0.571287 -0.109696
C14   C     C_3   0.820710 0.105519 0.235460 -0.557969
C15   C     C_3   0.771637 0.270700 0.763490 -0.512642
C16   C     C_3   0.237088 0.820447 0.102100 -0.567755
C17   C     C_3   0.782151 0.779525 0.254568 -0.509492
C18   C     C_3   0.107281 0.234955 0.818697 -0.561099
C19   C     C_R   0.013709 0.309167 0.426797 -0.133387
C20   C     C_R   0.449003 0.995399 0.452059 0.043080
C21   C     C_R   0.548905 0.008253 0.547458 0.040064
C22   C     C_R   0.996862 0.451525 0.448619 0.041958
C23   C     C_R   0.009911 0.546855 0.548427 0.038536
C24   C     C_R   0.451993 0.449701 0.994389 0.042858
C25   C     C_R   0.547328 0.549633 0.007323 0.039879
C26   C     C_R   0.014815 0.831131 0.569663 0.911588
C27   C     C_R   0.674947 0.047320 0.549710 -0.093554
C28   C     C_R   0.985701 0.168673 0.430192 0.910827
C29   C     C_R   0.831230 0.569764 0.014476 0.914899
C30   C     C_R   0.168700 0.430189 0.985652 0.911793
C31   C     C_R   0.569741 0.014513 0.831244 0.912435
C32   C     C_R   0.430196 0.985632 0.168720 0.911036
C33   C     C_R   0.435796 0.171862 0.970389 0.914632
C34   C     C_R   0.564140 0.828104 0.029693 0.914567
C35   C     C_R   0.970551 0.435727 0.171839 0.916191
C36   C     C_R   0.029767 0.564096 0.828100 0.916219
C37   C     C_R   0.171827 0.970452 0.435778 0.915485
C38   C     C_R   0.955718 0.449679 0.323734 -0.075649
C39   C     C_R   0.828097 0.029655 0.564155 0.912579
C40   C     C_R   0.400254 0.987370 0.403995 -0.081217
C41   C     C_R   0.598269 0.015209 0.595600 -0.086969
C42   C     C_R   0.988380 0.403603 0.400026 -0.082360
C43   C     C_R   0.016538 0.595082 0.597910 -0.085879
C44   C     C_R   0.403975 0.400676 0.986711 -0.083441
C45   C     C_R   0.595519 0.598729 0.014631 -0.087253
C46   C     C_R   0.270139 0.958156 0.399661 -0.169703
C47   C     C_R   0.729620 0.042189 0.600196 -0.171339
C48   C     C_R   0.958459 0.399546 0.270142 -0.169007
C49   C     C_R   0.048118 0.549322 0.674856 -0.087762
C50   C     C_R   0.042576 0.600001 0.729600 -0.169420
C51   C     C_R   0.399644 0.270243 0.957983 -0.170321
C52   C     C_R   0.600158 0.729639 0.042273 -0.168621
C53   C     C_R   0.611343 0.012369 0.736750 -0.197135
C54   C     C_R   0.388366 0.988048 0.263140 -0.198469
C55   C     C_R   0.736698 0.611439 0.012307 -0.197204
C56   C     C_R   0.263105 0.388363 0.988021 -0.198228
C57   C     C_R   0.013048 0.736478 0.611172 -0.197671
C58   C     C_R   0.988308 0.262997 0.388340 -0.198123
C59   C     C_R   0.507772 0.939704 0.734527 0.609120
C60   C     C_R   0.449916 0.324347 0.954118 -0.074518
C61   C     C_R   0.489356 0.064022 0.265062 0.614645
C62   C     C_R   0.942241 0.733939 0.506456 0.592199
C63   C     C_R   0.065249 0.264528 0.488761 0.624635
C64   C     C_R   0.734458 0.509009 0.938323 0.608259
C65   C     C_R   0.265079 0.489104 0.064166 0.625674
C66   C     C_R   0.304871 0.918090 0.543529 0.593279
C67   C     C_R   0.692452 0.086543 0.456361 0.611674
C68   C     C_R   0.543343 0.305978 0.916349 0.597880
C69   C     C_R   0.456385 0.692505 0.086592 0.596416
C70   C     C_R   0.919810 0.543336 0.304341 0.594683
C71   C     C_R   0.549675 0.675102 0.047153 -0.087529
C72   C     C_R   0.087553 0.455967 0.692395 0.595177
C73   C     C_R   0.308426 0.963387 0.308819 0.526120
C74   C     C_R   0.691729 0.036117 0.691257 0.522596
C75   C     C_R   0.963436 0.308772 0.308510 0.525266
C76   C     C_R   0.036398 0.691116 0.691731 0.521804
C77   C     C_R   0.308743 0.308379 0.963463 0.526227
C78   C     C_R   0.691182 0.691673 0.036345 0.521655
C79   C     C_R   0.642388 0.082723 0.406676 -0.104811
C80   C     C_R   0.351994 0.926036 0.593296 -0.127810
C81   C     C_R   0.084134 0.406002 0.642216 -0.109932
C82   C     C_R   0.571796 0.988899 0.690114 -0.112515
C83   C     C_R   0.929382 0.592953 0.350437 -0.126349
C84   C     C_R   0.406468 0.642765 0.082478 -0.109754
C85   C     C_R   0.593140 0.353906 0.923156 -0.128195
C86   C     C_R   0.541498 0.069712 0.310941 -0.103463
C87   C     C_R   0.454617 0.936036 0.688720 -0.115353
C88   C     C_R   0.310898 0.541223 0.070021 -0.105595
C89   C     C_R   0.688564 0.456513 0.933527 -0.115870
C90   C     C_R   0.071773 0.310332 0.540560 -0.105201
C91   C     C_R   0.940370 0.688353 0.452199 -0.114528
C92   C     C_R   0.661400 0.118822 0.311947 0.175827
C93   C     C_R   0.426968 0.013000 0.309523 -0.133067
C94   C     C_R   0.328334 0.896306 0.688454 0.213078
C95   C     C_R   0.121092 0.311206 0.660503 0.177677
C96   C     C_R   0.902827 0.688165 0.324644 0.217703
C97   C     C_R   0.311596 0.661597 0.118720 0.177542
C98   C     C_R   0.688219 0.331761 0.891350 0.210243
C99   C     C_R   0.612285 0.110991 0.264419 0.229446
C100  C     C_R   0.379181 0.901476 0.735437 0.232914
C101  C     C_R   0.264465 0.611324 0.112219 0.237568
C102  C     C_R   0.735160 0.382396 0.896943 0.231941
C103  C     C_R   0.114790 0.264036 0.610087 0.236428
C104  C     C_R   0.690055 0.572289 0.988329 -0.113043
C105  C     C_R   0.909661 0.735292 0.374325 0.229692
C106  C     C_R   0.521639 0.034247 0.405192 -0.054877
C107  C     C_R   0.475659 0.970264 0.594330 -0.048288
C108  C     C_R   0.035728 0.404544 0.521265 -0.058347
C109  C     C_R   0.972975 0.593804 0.474460 -0.043471
C110  C     C_R   0.405082 0.522025 0.033748 -0.058237
C111  C     C_R   0.594205 0.476966 0.968462 -0.047892
C112  C     C_R   0.571702 0.040871 0.452907 -0.044628
C113  C     C_R   0.425042 0.964551 0.546687 -0.034907
C114  C     C_R   0.452747 0.572202 0.040332 -0.041975
Cu1   Cu    Cu3+1 0.995180 0.995180 0.424630 1.065251
Cu2   Cu    Cu3+1 0.004820 0.004820 0.575370 1.070582
Cu3   Cu    Cu3+1 0.995180 0.424630 0.995180 1.061716
Cu4   Cu    Cu3+1 0.004820 0.575370 0.004820 1.068075
Cu5   Cu    Cu3+1 0.424630 0.995180 0.995180 1.060194
Cu6   Cu    Cu3+1 0.575370 0.004820 0.004820 1.078564
F1    F     F_    0.266223 0.946162 0.264569 -0.626483
F2    F     F_    0.118427 0.179863 0.489470 -0.656552
F3    F     F_    0.818964 0.507641 0.884609 -0.687504
F4    F     F_    0.180633 0.489585 0.117928 -0.656454
F5    F     F_    0.249450 0.863923 0.583324 -0.677093
F6    F     F_    0.751405 0.136848 0.416719 -0.672868
F7    F     F_    0.582689 0.250176 0.862610 -0.677234
F8    F     F_    0.417355 0.750782 0.137611 -0.673209
F9    F     F_    0.864908 0.583588 0.249626 -0.675320
F10   F     F_    0.137822 0.416919 0.751343 -0.673806
F11   F     F_    0.734600 0.051902 0.735914 -0.626811
F12   F     F_    0.945770 0.264680 0.266481 -0.628381
F13   F     F_    0.051650 0.735975 0.734794 -0.627200
F14   F     F_    0.264404 0.266017 0.946559 -0.625927
F15   F     F_    0.735765 0.734365 0.052481 -0.627220
F16   F     F_    0.506265 0.885474 0.818875 -0.687065
F17   F     F_    0.490554 0.117461 0.180352 -0.650034
F18   F     F_    0.886729 0.817677 0.505650 -0.685693
H1    H     H_    0.383909 0.826267 0.867884 0.291989
H2    H     H_    0.020178 0.821383 0.235917 0.217851
H3    H     H_    0.963292 0.929604 0.256584 0.199993
H4    H     H_    0.018927 0.840420 0.335751 0.245434
H5    H     H_    0.212542 0.144338 0.646134 0.260747
H6    H     H_    0.102651 0.062843 0.652443 0.258289
H7    H     H_    0.019164 0.156250 0.691040 0.202961
H8    H     H_    0.100609 0.081378 0.752114 0.181069
H9    H     H_    0.866426 0.389673 0.819484 0.292085
H10   H     H_    0.818396 0.282519 0.012637 0.210794
H11   H     H_    0.916600 0.234323 0.934609 0.201608
H12   H     H_    0.280445 0.020374 0.815125 0.214556
H13   H     H_    0.908160 0.336018 0.954775 0.251387
H14   H     H_    0.143269 0.650555 0.207073 0.260850
H15   H     H_    0.065510 0.653886 0.095096 0.258550
H16   H     H_    0.160186 0.691243 0.013137 0.202169
H17   H     H_    0.083413 0.754288 0.092246 0.178566
H18   H     H_    0.192986 0.903447 0.716201 0.293403
H19   H     H_    0.196381 0.758495 0.817504 0.227775
H20   H     H_    0.308471 0.742846 0.817967 0.196711
H21   H     H_    0.288881 0.740259 0.720127 0.262634
H22   H     H_    0.725136 0.219178 0.276098 0.312920
H23   H     H_    0.230718 0.944802 0.914923 0.203060
H24   H     H_    0.863583 0.106037 0.271911 0.283763
H25   H     H_    0.850077 0.131562 0.162481 0.201045
H26   H     H_    0.820582 0.035218 0.249547 0.201457
H27   H     H_    0.718499 0.197156 0.894255 0.296438
H28   H     H_    0.814629 0.207029 0.746367 0.228456
H29   H     H_    0.812299 0.319356 0.733539 0.197735
H30   H     H_    0.714285 0.297503 0.734107 0.260537
H31   H     H_    0.278359 0.727912 0.215431 0.319528
H32   H     H_    0.190545 0.867840 0.142343 0.231014
H33   H     H_    0.203094 0.820489 0.056770 0.200927
H34   H     H_    0.333456 0.963694 0.905314 0.251173
H35   H     H_    0.297724 0.843985 0.061022 0.263825
H36   H     H_    0.911210 0.713000 0.189428 0.292381
H37   H     H_    0.770173 0.821084 0.188401 0.226270
H38   H     H_    0.754668 0.823651 0.299694 0.199142
H39   H     H_    0.746217 0.726967 0.282896 0.262535
H40   H     H_    0.218544 0.279487 0.725392 0.318805
H41   H     H_    0.148710 0.188471 0.865016 0.231356
H42   H     H_    0.062546 0.200220 0.818873 0.198844
H43   H     H_    0.065571 0.294737 0.843488 0.262900
H44   H     H_    0.656329 0.201427 0.142688 0.260688
H45   H     H_    0.696419 0.105884 0.049340 0.212619
H46   H     H_    0.663304 0.018617 0.146813 0.232365
H47   H     H_    0.760227 0.052141 0.130450 0.189133
H48   H     H_    0.847752 0.870135 0.374779 0.301233
N1    N     N_2   0.346004 0.881110 0.830602 -0.397279
N2    N     N_2   0.260626 0.731560 0.161420 -0.419997
N3    N     N_2   0.877420 0.739033 0.243646 -0.399488
N4    N     N_2   0.165192 0.260449 0.729423 -0.419786
N5    N     N_2   0.635365 0.143946 0.168894 -0.354782
N6    N     N_2   0.897168 0.829583 0.336575 -0.407868
N7    N     N_2   0.152438 0.168994 0.630077 -0.360751
N8    N     N_2   0.830474 0.350413 0.874248 -0.395106
N9    N     N_2   0.169165 0.632767 0.147807 -0.361168
N10   N     N_2   0.248686 0.868486 0.739777 -0.397003
N11   N     N_2   0.730881 0.162262 0.261877 -0.418065
N12   N     N_2   0.739856 0.254206 0.859953 -0.396314
O1    O     O_R   0.124540 0.978640 0.385460 -0.547766
O2    O     O_R   0.124540 0.385460 0.978640 -0.511410
O3    O     O_R   0.021360 0.875460 0.614540 -0.509128
O4    O     O_R   0.978640 0.124540 0.385460 -0.515794
O5    O     O_R   0.013780 0.867370 0.487190 -0.580831
O6    O     O_R   0.986220 0.132630 0.512810 -0.581717
O7    O     O_R   0.867370 0.487190 0.013780 -0.579424
O8    O     O_R   0.132630 0.512810 0.986220 -0.582458
O9    O     O_R   0.487190 0.013780 0.867370 -0.580559
O10   O     O_R   0.512810 0.986220 0.132630 -0.583356
O11   O     O_R   0.512810 0.132630 0.986220 -0.524153
O12   O     O_R   0.875460 0.021360 0.614540 -0.545856
O13   O     O_R   0.487190 0.867370 0.013780 -0.536076
O14   O     O_R   0.986220 0.512810 0.132630 -0.537321
O15   O     O_R   0.013780 0.487190 0.867370 -0.535832
O16   O     O_R   0.132630 0.986220 0.512810 -0.536368
O17   O     O_R   0.867370 0.013780 0.487190 -0.526238
O18   O     O_R   0.978640 0.385460 0.124540 -0.546598
O19   O     O_R   0.021360 0.614540 0.875460 -0.545983
O20   O     O_R   0.385460 0.124540 0.978640 -0.548917
O21   O     O_R   0.614540 0.875460 0.021360 -0.546661
O22   O     O_R   0.614540 0.021360 0.875460 -0.509087
O23   O     O_R   0.385460 0.978640 0.124540 -0.511460
O24   O     O_R   0.875460 0.614540 0.021360 -0.510031

loop_
_geom_bond_atom_site_label_1
_geom_bond_atom_site_label_2
_ccdc_geom_bond_type
C16   H35   S    
C97   N2    S    
C30   O2    A    
C96   C105  A    
C38   C70   A    
C89   C102  A    
C3    C85   A    
C91   C105  A    
C53   C74   A    
C105  N6    S    
C59   C82   A    
C40   C93   A    
C2    C65   A    
C15   H29   S    
C63   F2    S    
C32   O23   A    
C25   C111  A    
C23   C43   A    
C22   C108  A    
C6    H34   S    
C33   O20   A    
C4    C108  A    
C7    H46   S    
C94   N10   S    
C84   C97   A    
C57   C76   A    
H18   N10   S    
C15   N12   S    
C11   N9    S    
C38   C42   A    
Cu3   O7    S    
C10   N8    S    
C10   H11   S    
C20   C113  A    
H40   N4    S    
C9    N7    S    
C1    C46   A    
C13   C57   A    
C83   C96   A    
C17   H37   S    
C27   C47   A    
Cu1   Cu2   S    
C30   O8    A    
Cu1   O4    S    
C59   F16   S    
Cu5   O23   S    
C29   O7    A    
Cu4   O24   S    
H9    N8    S    
Cu4   O14   S    
C65   F4    S    
C14   H25   S    
C69   C71   A    
C107  C113  A    
C54   C93   A    
Cu2   O12   S    
C85   C98   A    
C1    C40   A    
C33   O11   A    
C5    C22   A    
C69   F8    S    
C2    C44   A    
C49   C72   A    
Cu1   O5    S    
Cu5   O20   S    
C15   H28   S    
C8    H3    S    
C12   H19   S    
C32   O10   A    
C35   O18   A    
C110  C114  A    
C38   C48   A    
C72   C81   A    
C11   H16   S    
C19   C42   A    
C11   H17   S    
C88   C110  A    
C30   C56   S    
C18   H42   S    
C74   F11   S    
C14   H26   S    
C68   C85   A    
C12   N10   S    
C48   C75   A    
C7    N5    S    
C3    C24   A    
C86   C106  A    
C64   C89   A    
C52   C78   A    
C35   C48   S    
C102  N8    S    
C32   C54   S    
Cu2   O6    S    
C9    H6    S    
C95   C103  A    
C58   C75   A    
Cu2   O3    S    
C20   C106  A    
C19   C58   A    
C29   O24   A    
C23   C109  A    
C14   N11   S    
H27   N12   S    
C4    C81   A    
C28   O6    A    
C26   O3    A    
C24   C110  A    
C47   C74   A    
Cu2   O16   S    
C31   O22   A    
C16   N2    S    
C67   F6    S    
C3    C111  A    
C55   C78   A    
C98   N12   S    
C34   O21   A    
C43   C49   A    
C106  C112  A    
C29   C55   S    
C18   H43   S    
C17   N3    S    
C98   C102  A    
Cu1   O1    S    
C55   C104  A    
C70   F9    S    
C62   F18   S    
C56   C77   A    
C39   O12   A    
C53   C82   A    
Cu6   O10   S    
C96   N3    S    
C14   H24   S    
Cu3   O18   S    
C35   O14   A    
C51   C77   A    
C31   O9    A    
C86   C99   A    
C45   C104  A    
C50   C76   A    
C10   H13   S    
C95   N4    S    
C54   C73   A    
C27   C41   A    
C52   C71   A    
C6    H23   S    
C94   C100  A    
Cu6   O22   S    
C62   C91   A    
C100  N1    S    
Cu4   O19   S    
C1    C66   A    
C88   C101  A    
Cu1   O17   S    
C34   O13   A    
C9    H8    S    
C31   C53   S    
Cu5   Cu6   S    
Cu3   O15   S    
C70   C83   A    
C68   F7    S    
C79   C92   A    
C21   C107  A    
Cu3   O2    S    
C19   C63   A    
C21   C41   A    
C13   C62   A    
C18   H41   S    
C73   F1    S    
C24   C44   A    
C15   H30   S    
Cu5   O9    S    
C77   F14   S    
C80   C94   A    
C92   N11   S    
C81   C95   A    
C25   C45   A    
C37   O16   A    
C13   C43   A    
C21   C112  A    
C36   C50   S    
C75   F12   S    
C65   C88   A    
C39   C47   S    
C87   C100  A    
C78   F15   S    
C17   H39   S    
Cu6   O11   S    
C4    C23   A    
C18   N4    S    
C84   C114  A    
H14   N9    S    
Cu4   O8    S    
C34   C52   S    
C7    H47   S    
C64   C104  A    
H31   N2    S    
C79   C112  A    
C36   O19   A    
C8    H4    S    
C76   F13   S    
C17   H38   S    
C5    C83   A    
C72   F10   S    
H22   N11   S    
C28   C58   S    
C33   C51   S    
C64   F3    S    
C66   C80   A    
C89   C111  A    
Cu5   O13   S    
C66   F5    S    
C39   O17   A    
C8    H2    S    
C28   O4    A    
C91   C109  A    
C26   O5    A    
C90   C108  A    
C36   O15   A    
C2    C56   A    
Cu3   Cu4   S    
C99   N5    S    
C16   H33   S    
C61   F17   S    
C22   C42   A    
C5    C109  A    
C44   C60   A    
Cu6   O21   S    
C20   C40   A    
C41   C82   A    
C6    N1    S    
C63   C90   A    
C9    H7    S    
C67   C79   A    
C61   C93   A    
C7    H45   S    
C37   O1    A    
C12   H21   S    
H48   N6    S    
C8    N6    S    
C26   C57   S    
C59   C87   A    
C90   C103  A    
C27   C67   A    
C61   C86   A    
C11   H15   S    
H36   N3    S    
C6    H12   S    
C16   H32   S    
C87   C107  A    
C80   C113  A    
C60   C68   A    
C49   C50   A    
H44   N5    S    
C69   C84   A    
C45   C71   A    
C51   C60   A    
C103  N7    S    
C12   H20   S    
C37   C46   S    
C25   C114  A    
C46   C73   A    
C97   C101  A    
C101  N9    S    
C92   C99   A    
C10   H10   S    
H1    N1    S    
H5    N7    S    
