data_mof_unit_30113.cif
_audit_creation_date              2012-12-10T19:00:10-0500
_audit_creation_method            fapswitch 2.2
_symmetry_space_group_name_H-M    P1
_symmetry_Int_Tables_number       1
_space_group_crystal_system       triclinic
_cell_length_a                    9.570986
_cell_length_b                    10.763811
_cell_length_c                    13.399542
_cell_angle_alpha                 89.799309
_cell_angle_beta                  74.132687
_cell_angle_gamma                 89.56617
_cell_volume                      1327.78738746

loop_
_atom_site_label
_atom_site_type_symbol
_atom_type_description
_atom_site_fract_x
_atom_site_fract_y
_atom_site_fract_z
_atom_type_partial_charge
C1    C     C_R   0.497783 0.737362 0.502997 0.839108
C2    C     C_R   0.444167 0.572975 0.973485 0.048983
C3    C     C_R   0.490620 0.577342 0.863955 0.064055
C4    C     C_R   0.548317 0.544917 0.028251 0.074945
C5    C     C_R   0.696338 0.532275 0.972406 0.176102
C6    C     C_R   0.741553 0.570553 0.869441 -0.184139
C7    C     C_R   0.639200 0.604350 0.816797 -0.086881
C8    C     C_R   0.510623 0.526959 0.135959 -0.232603
C9    C     C_R   0.760685 0.478253 0.129470 -0.191403
C10   C     C_R   0.385029 0.561876 0.807951 -0.087535
C11   C     C_R   0.559972 0.934788 0.414176 0.074844
C12   C     C_R   0.424501 0.518949 0.698078 0.858717
C13   C     C_R   0.491452 0.870963 0.504677 -0.106115
C14   C     C_R   0.403555 0.938980 0.590230 -0.013800
C15   C     C_R   0.410244 0.069268 0.586997 -0.199909
C16   C     C_R   0.498218 0.130040 0.500038 -0.039194
C17   C     C_R   0.561144 0.062023 0.410945 0.088131
C18   C     C_3   0.708262 0.065301 0.335383 -0.423199
C19   C     C_3   0.707828 0.923763 0.340577 -0.424623
C20   C     C_R   0.924245 0.391247 0.511190 0.144214
C21   C     C_R   0.936934 0.601875 0.468216 -0.006896
C22   C     C_R   0.085126 0.602384 0.469467 -0.026172
C23   C     C_R   0.500977 0.262862 0.498180 0.825769
C24   C     C_R   0.070386 0.392368 0.512072 0.131765
C25   C     C_3   0.050626 0.301225 0.598019 -0.492308
C26   C     C_3   0.892165 0.294967 0.596611 0.632029
C27   C     C_R   0.576357 0.497850 0.300372 0.781876
C28   C     C_R   0.799471 0.492322 0.022357 -0.106631
C29   C     C_R   0.617097 0.500001 0.186982 -0.060782
C30   C     C_R   0.239439 0.590260 0.858804 -0.215810
C31   C     C_R   0.199048 0.623613 0.963959 0.006719
C32   C     C_R   0.297831 0.603514 0.022630 -0.214483
Cu1   Cu    Cu3+1 0.359330 0.500020 0.500010 0.978378
Cu2   Cu    Cu3+1 0.640670 0.499980 0.499990 1.013488
H1    H     H_    0.843384 0.452998 0.167338 0.175120
H2    H     H_    0.349031 0.123625 0.652683 0.177900
H3    H     H_    0.704119 0.101743 0.258507 0.192471
H4    H     H_    0.791929 0.108597 0.366862 0.250711
H5    H     H_    0.705507 0.879157 0.266371 0.187983
H6    H     H_    0.789194 0.884923 0.377811 0.225377
H7    H     H_    0.889970 0.685676 0.446290 0.164843
H8    H     H_    0.147204 0.686498 0.448375 0.158697
H9    H     H_    0.113436 0.214232 0.572685 0.214428
H10   H     H_    0.067952 0.343687 0.669213 0.209654
H11   H     H_    0.856681 0.581189 0.834045 0.159947
H12   H     H_    0.911351 0.476370 0.978784 0.137247
H13   H     H_    0.399269 0.534739 0.181730 0.158550
H14   H     H_    0.158570 0.591457 0.815855 0.199145
H15   H     H_    0.261517 0.621587 0.104813 0.171024
N1    N     N_R   0.852320 0.499070 0.499340 -0.200744
N2    N     N_R   0.148230 0.499110 0.499340 -0.179712
O1    O     O_R   0.381190 0.680360 0.500000 -0.570437
O2    O     O_R   0.618780 0.680320 0.499990 -0.574438
O3    O     O_R   0.323230 0.500000 0.650990 -0.569712
O4    O     O_R   0.560820 0.499960 0.650980 -0.548431
O5    O     O_R   0.381220 0.319680 0.500010 -0.595583
O6    O     O_R   0.618810 0.319640 0.500000 -0.532525
O7    O     O_R   0.439180 0.500040 0.349020 -0.587977
O8    O     O_R   0.676770 0.500000 0.349010 -0.588310
Cl1   Cl    Cl    0.848204 0.146388 0.555601 -0.579156
Cl2   Cl    Cl    0.769979 0.339295 0.716465 -0.589576
C33   C     C_2   0.056607 0.683322 0.012013 0.815136
O9    O     O_2   0.984628 0.726349 0.957268 -0.598637
O10   O     O_R   0.005970 0.694052 0.119959 -0.780049
H16   H     H_    0.907777 0.736976 0.143122 0.334560
C34   C     C_2   0.681765 0.696356 0.730281 0.958461
O11   O     O_2   0.589956 0.767107 0.714463 -0.565562
O12   O     O_R   0.825361 0.711275 0.670833 -0.703892
H17   H     H_    0.893088 0.641562 0.678164 0.299298
C35   C     C_2   0.309679 0.879994 0.685191 0.908544
O13   O     O_2   0.247278 0.782764 0.679900 -0.593847
O14   O     O_R   0.288474 0.938758 0.781172 -0.721789
H18   H     H_    0.222004 0.890325 0.840126 0.354639

loop_
_geom_bond_atom_site_label_1
_geom_bond_atom_site_label_2
_ccdc_geom_bond_type
C34   O12   S    
Cu1   O7    S    
C6    H11   S    
C27   C29   S    
C4    C8    A    
C25   H9    S    
C23   O5    A    
Cu1   O1    S    
C11   C19   S    
C5    C6    A    
C19   H5    S    
C30   H14   S    
C26   Cl2   S    
C3    C7    A    
C30   C31   A    
C15   C16   A    
C2    C32   A    
C18   C19   S    
C1    O2    A    
C20   N1    A    
O12   H17   S    
C20   C24   A    
C16   C17   A    
Cu2   O6    S    
C33   O10   S    
C35   O13   D    
C9    C29   A    
C24   N2    A    
C34   O11   D    
Cu2   O4    S    
C13   C14   A    
C14   C35   S    
C31   C33   S    
C25   H10   S    
C21   N1    A    
Cu1   Cu2   S    
Cu2   N1    S    
C24   C25   S    
O14   H18   S    
C25   C26   S    
C2    C4    A    
C33   O9    D    
C5    C28   A    
C10   C30   A    
C31   C32   A    
C28   H12   S    
C17   C18   S    
C10   C12   S    
C21   H7    S    
C16   C23   S    
Cu2   O8    S    
C1    C13   S    
C8    C29   A    
C15   H2    S    
Cu1   O3    S    
C23   O6    A    
C11   C17   A    
C18   H3    S    
C4    C5    A    
C27   O7    A    
C6    C7    A    
Cu1   N2    S    
O10   H16   S    
C2    C3    A    
C18   H4    S    
C8    H13   S    
C3    C10   A    
C27   O8    A    
C7    C34   S    
C11   C13   A    
C22   H8    S    
C20   C26   S    
Cu1   O5    S    
C1    O1    A    
C32   H15   S    
C12   O4    A    
C19   H6    S    
Cu2   O2    S    
C9    H1    S    
C14   C15   A    
C35   O14   S    
C21   C22   A    
C26   Cl1   S    
C12   O3    A    
C9    C28   A    
C22   N2    A    
