data_mof_unit_21765.cif
_audit_creation_date              2012-10-26T20:57:28-0400
_audit_creation_method            fapswitch 2.2
_symmetry_space_group_name_H-M    P1
_symmetry_Int_Tables_number       1
_space_group_crystal_system       triclinic
_cell_length_a                    14.71648
_cell_length_b                    14.423306
_cell_length_c                    15.883312
_cell_angle_alpha                 76.633865
_cell_angle_beta                  102.828838
_cell_angle_gamma                 114.943761
_cell_volume                      2944.32557581

loop_
_atom_site_label
_atom_site_type_symbol
_atom_type_description
_atom_site_fract_x
_atom_site_fract_y
_atom_site_fract_z
_atom_type_partial_charge
C1    C     C_R   0.880541 0.310508 0.509645 0.572901
C2    C     C_R   0.359742 0.927259 0.497634 -0.022078
C3    C     C_R   0.673155 0.990513 0.525379 0.037545
C4    C     C_R   0.325771 0.009239 0.467770 0.051327
C5    C     C_R   0.535297 0.052140 0.490473 0.030468
C6    C     C_R   0.463999 0.948345 0.500967 0.028587
C7    C     C_R   0.497969 0.868566 0.509204 -0.139460
C8    C     C_R   0.500960 0.131936 0.480940 -0.142248
C9    C     C_R   0.600596 0.888629 0.524747 -0.075808
C10   C     C_R   0.398199 0.111471 0.465768 -0.069613
C11   C     C_R   0.715945 0.671608 0.355180 -0.118935
C12   C     C_R   0.119379 0.689378 0.490963 0.586215
C13   C     C_R   0.284688 0.329333 0.645572 -0.125673
C14   C     C_R   0.795871 0.638005 0.375179 0.436955
C15   C     C_R   0.204935 0.363208 0.625722 0.401813
C16   C     C_R   0.999744 0.500100 0.659981 0.568380
C17   C     C_R   0.000290 0.499958 0.340017 0.557346
C18   C     C_R   0.714767 0.509253 0.488414 0.009084
C19   C     C_R   0.284740 0.490013 0.510934 0.003571
C20   C     C_R   0.628308 0.535406 0.466963 -0.046552
C21   C     C_R   0.371323 0.464067 0.532506 -0.046490
C22   C     C_R   0.632057 0.620902 0.400439 0.014324
C23   C     C_R   0.777983 0.012357 0.549471 0.011025
C24   C     C_R   0.367960 0.379141 0.599537 0.012397
C25   C     C_R   0.540140 0.481730 0.510281 -0.020120
C26   C     C_R   0.459357 0.517564 0.489011 -0.019871
C27   C     C_R   0.469652 0.606467 0.425748 -0.108355
C28   C     C_R   0.529882 0.392909 0.573650 -0.107775
C29   C     C_R   0.552498 0.655463 0.379875 0.272397
C30   C     C_R   0.447403 0.344425 0.619973 0.273827
C31   C     C_3   0.997232 0.408279 0.047507 -0.167596
C32   C     C_3   0.002942 0.592162 0.952454 -0.164822
C33   C     C_3   0.916297 0.424106 0.971061 0.008384
C34   C     C_R   0.220565 0.986875 0.447143 -0.004782
C35   C     C_3   0.083873 0.576334 0.028908 0.008909
C36   C     C_1   0.999490 0.500484 0.749322 0.049438
C37   C     C_1   0.000615 0.499716 0.250666 0.041252
C38   C     C_3   0.081004 0.485250 0.992074 0.009062
C39   C     C_3   0.919173 0.515194 0.007896 0.008530
C40   C     C_3   0.000030 0.499908 0.916519 0.050162
C41   C     C_3   0.000146 0.500529 0.083445 0.049968
C42   C     C_1   0.999720 0.500476 0.824766 0.065763
C43   C     C_1   0.000432 0.499854 0.175208 0.060674
C44   C     C_R   0.813956 0.198563 0.507639 -0.017446
C45   C     C_R   0.848096 0.116902 0.545258 -0.046469
C46   C     C_R   0.185863 0.801332 0.492521 0.018992
C47   C     C_2   0.821091 0.337672 0.941344 0.217834
C48   C     C_2   0.179070 0.662770 0.058638 0.217396
C49   C     C_3   0.152414 0.317086 0.760725 -0.053379
C50   C     C_3   0.851143 0.686412 0.241288 -0.102097
C51   C     C_2   0.827209 0.532133 0.013587 0.224422
C52   C     C_2   0.173021 0.468385 0.986433 0.223161
C53   C     C_2   0.319197 0.767329 0.610481 0.236195
C54   C     C_2   0.685033 0.234432 0.385113 0.226036
C55   C     C_2   0.041072 0.861670 0.434892 0.256913
C56   C     C_R   0.150532 0.882482 0.457450 -0.037921
C57   C     C_2   0.956855 0.138616 0.576814 0.257968
C58   C     C_2   0.815959 0.927729 0.581147 0.279145
C59   C     C_2   0.181873 0.070705 0.412201 0.199474
C60   C     C_3   0.495035 0.712767 0.241456 -0.111509
C61   C     C_3   0.505597 0.288242 0.758498 -0.107001
C62   C     C_R   0.711899 0.172280 0.469005 -0.028301
C63   C     C_R   0.289031 0.828243 0.527199 -0.034970
C64   C     C_R   0.639860 0.072967 0.495794 -0.014401
Cu1   Cu    Cu3+1 0.081740 0.475690 0.522610 1.044552
Cu2   Cu    Cu3+1 0.918260 0.524310 0.477390 1.092936
H1    H     H_    0.278160 0.548861 0.457153 0.128943
H2    H     H_    0.376829 0.176744 0.455531 0.176556
H3    H     H_    0.445326 0.789322 0.505928 0.107556
H4    H     H_    0.553286 0.211378 0.483647 0.107379
H5    H     H_    0.768334 0.289605 0.987126 0.117899
H6    H     H_    0.231835 0.710847 0.012865 0.121073
H7    H     H_    0.085692 0.303225 0.790806 0.182799
H8    H     H_    0.211341 0.393656 0.774868 0.156220
H9    H     H_    0.179172 0.254143 0.792106 0.119413
H10   H     H_    0.919036 0.702235 0.212038 0.174023
H11   H     H_    0.823046 0.748350 0.209712 0.103726
H12   H     H_    0.720928 0.449726 0.541661 0.126329
H13   H     H_    0.793807 0.609456 0.226410 0.169860
H14   H     H_    0.776735 0.542553 0.954440 0.118100
H15   H     H_    0.223294 0.457639 0.045630 0.115804
H16   H     H_    0.397917 0.788073 0.638824 0.122170
H17   H     H_    0.607121 0.214225 0.354400 0.121040
H18   H     H_    0.011770 0.890821 0.370095 0.121689
H19   H     H_    0.013680 0.188609 0.535036 0.134984
H20   H     H_    0.882986 0.933427 0.558861 0.148769
H21   H     H_    0.115400 0.066835 0.434158 0.111199
H22   H     H_    0.414053 0.676876 0.251294 0.149488
H23   H     H_    0.720154 0.737682 0.304843 0.147837
H24   H     H_    0.514675 0.659053 0.215611 0.115011
H25   H     H_    0.505198 0.782656 0.191156 0.162397
H26   H     H_    0.486139 0.342278 0.784087 0.114477
H27   H     H_    0.586463 0.324049 0.748290 0.150046
H28   H     H_    0.495743 0.218710 0.809161 0.164173
H29   H     H_    0.280956 0.263930 0.696535 0.159116
H30   H     H_    0.414785 0.641179 0.410471 0.110178
H31   H     H_    0.584654 0.358081 0.588913 0.111987
H32   H     H_    0.994895 0.332960 0.086580 0.124102
H33   H     H_    0.005281 0.667480 0.913379 0.133272
H34   H     H_    0.621710 0.823273 0.534452 0.174732
N1    N     N_R   0.795440 0.560790 0.443380 -0.204447
N2    N     N_R   0.204560 0.439210 0.556620 -0.220410
O1    O     O_R   0.977900 0.338120 0.529810 -0.486209
O2    O     O_2   0.197860 0.679465 0.133760 -0.517878
O3    O     O_3   0.121865 0.314715 0.670191 -0.516985
O4    O     O_3   0.879955 0.688172 0.332014 -0.543456
O5    O     O_2   0.808446 0.534061 0.084042 -0.518757
O6    O     O_2   0.192076 0.466930 0.915960 -0.520370
O7    O     O_2   0.256164 0.698744 0.653047 -0.474533
O8    O     O_2   0.750069 0.303406 0.344750 -0.485318
O9    O     O_2   0.984580 0.818216 0.490379 -0.473943
O10   O     O_2   0.983553 0.099463 0.649537 -0.458523
O11   O     O_2   0.776297 0.854256 0.635612 -0.483374
O12   O     O_R   0.022100 0.661880 0.470190 -0.423656
O13   O     O_2   0.220539 0.141632 0.355551 -0.510649
O14   O     O_3   0.559282 0.743241 0.319069 -0.577893
O15   O     O_3   0.440912 0.257072 0.681242 -0.572748
O16   O     O_R   0.839850 0.379180 0.491620 -0.481691
O17   O     O_R   0.160150 0.620820 0.508380 -0.490219
O18   O     O_R   0.069010 0.479460 0.640020 -0.435782
O19   O     O_R   0.930990 0.520540 0.359980 -0.439681
O20   O     O_R   0.930960 0.520530 0.601820 -0.507926
O21   O     O_R   0.069040 0.479470 0.398180 -0.527193
O22   O     O_2   0.802283 0.320967 0.866224 -0.512359

loop_
_geom_bond_atom_site_label_1
_geom_bond_atom_site_label_2
_ccdc_geom_bond_type
C28   H31   S    
C23   C58   S    
C39   C51   S    
C55   C56   S    
C34   C56   A    
C23   C45   A    
C22   C29   A    
C27   C29   A    
C36   C42   T    
C21   C26   A    
C50   H13   S    
C60   H22   S    
C39   C41   S    
C3    C64   A    
C44   C45   A    
C25   C28   A    
C45   C57   S    
C26   C27   A    
C33   C39   S    
C13   H29   S    
C19   C21   A    
C16   O18   A    
C5    C6    A    
C19   N2    A    
C61   H27   S    
C31   H32   S    
C57   O10   D    
C38   C52   S    
C20   C25   A    
C48   O2    D    
C54   O8    D    
C32   C39   S    
C16   O20   A    
C51   H14   S    
C62   C64   A    
C3    C23   A    
C17   O21   A    
C58   O11   D    
Cu2   O20   S    
C19   H1    S    
Cu2   O12   S    
C1    O1    A    
C61   H26   S    
C40   C42   S    
C41   C43   S    
Cu2   N1    S    
C27   H30   S    
C2    C6    A    
Cu1   N2    S    
C48   H6    S    
C51   O5    D    
C35   C48   S    
C58   H20   S    
C54   H17   S    
C12   O12   A    
C4    C34   A    
C33   C40   S    
C61   O15   S    
C32   C35   S    
C17   O19   A    
C35   C38   S    
C12   C46   S    
C61   H28   S    
C14   N1    A    
C49   O3    S    
C54   C62   S    
C44   C62   A    
C25   C26   A    
C5    C64   A    
C53   H16   S    
C18   N1    A    
C37   C43   T    
C2    C4    A    
C3    C9    A    
C50   H10   S    
C12   O17   A    
C11   H23   S    
C1    C44   S    
C18   H12   S    
C31   C33   S    
Cu1   O17   S    
Cu2   O19   S    
C17   C37   S    
C47   H5    S    
C49   H9    S    
C8    C10   A    
C29   O14   S    
C20   C22   A    
C9    H34   S    
C60   H24   S    
C13   C15   A    
C34   C59   S    
C33   C47   S    
Cu1   O21   S    
C49   H7    S    
C60   O14   S    
C24   C30   A    
Cu1   O1    S    
C4    C10   A    
C50   H11   S    
C2    C63   A    
C60   H25   S    
C53   O7    D    
C7    C9    A    
C31   C41   S    
C55   O9    D    
C7    H3    S    
C5    C8    A    
C32   H33   S    
C6    C7    A    
C30   O15   S    
C10   H2    S    
C11   C22   A    
C8    H4    S    
C31   C38   S    
C46   C63   A    
C15   O3    S    
C28   C30   A    
C16   C36   S    
C38   C40   S    
C53   C63   S    
C47   O22   D    
C11   C14   A    
Cu1   O18   S    
C57   H19   S    
C18   C20   A    
C1    O16   A    
C32   C40   S    
C15   N2    A    
C52   H15   S    
C35   C41   S    
C59   H21   S    
C14   O4    S    
C13   C24   A    
C59   O13   D    
Cu1   Cu2   S    
Cu2   O16   S    
C21   C24   A    
C46   C56   A    
C50   O4    S    
C49   H8    S    
C52   O6    D    
C55   H18   S    
