data_mof_unit_48747.cif
_audit_creation_date              2012-12-10T20:34:57-0500
_audit_creation_method            fapswitch 2.2
_symmetry_space_group_name_H-M    P1
_symmetry_Int_Tables_number       1
_space_group_crystal_system       triclinic
_cell_length_a                    10.704131
_cell_length_b                    10.658707
_cell_length_c                    9.856551
_cell_angle_alpha                 89.548624
_cell_angle_beta                  89.12155
_cell_angle_gamma                 89.710489
_cell_volume                      1124.37480701

loop_
_atom_site_label
_atom_site_type_symbol
_atom_type_description
_atom_site_fract_x
_atom_site_fract_y
_atom_site_fract_z
_atom_type_partial_charge
C1    C     C_R   0.502981 0.259535 0.500092 0.926443
C2    C     C_3   0.877913 0.500195 0.495835 -0.184080
C3    C     C_3   0.920875 0.633364 0.540169 -0.576937
C4    C     C_3   0.934515 0.465479 0.352634 0.404235
C5    C     C_R   0.546461 0.062317 0.618277 0.265020
C6    C     C_R   0.524962 0.127746 0.498153 -0.077668
C7    C     C_R   0.534546 0.064952 0.373677 -0.156477
C8    C     C_R   0.539032 0.935441 0.373228 -0.177073
C9    C     C_R   0.533890 0.870276 0.497293 -0.090262
C10   C     C_R   0.552852 0.934259 0.618021 0.112468
C11   C     C_3   0.488221 0.923562 0.753214 -0.477994
C12   C     C_R   0.257707 0.506391 0.500875 0.987014
C13   C     C_3   0.477498 0.065157 0.750798 -0.430625
C14   C     C_R   0.441386 0.406931 0.073503 0.147223
C15   C     C_R   0.566137 0.586251 0.069998 -0.062695
C16   C     C_R   0.566758 0.585849 0.926028 -0.102234
C17   C     C_R   0.440629 0.406738 0.930747 0.197969
C18   C     C_3   0.303696 0.377722 0.931149 0.299222
C19   C     C_3   0.306604 0.377585 0.085382 -0.576884
C20   C     C_R   0.507887 0.739706 0.499349 0.965354
C21   C     C_R   0.742065 0.498595 0.498542 0.953479
C22   C     C_3   0.072932 0.399391 0.591824 -0.507479
C23   C     C_3   0.929283 0.403695 0.603232 0.179953
C24   C     C_3   0.065930 0.641103 0.554782 0.726010
C25   C     C_3   0.075575 0.480692 0.354539 -0.528061
C26   C     C_3   0.121017 0.510084 0.501973 -0.167350
H1    H     H_    0.113484 0.401734 0.694098 0.237147
H2    H     H_    0.884051 0.705764 0.471336 0.198534
H3    H     H_    0.528779 0.114254 0.277416 0.175364
H4    H     H_    0.535015 0.887521 0.276869 0.170986
H5    H     H_    0.396383 0.875989 0.749620 0.281321
H6    H     H_    0.551723 0.887845 0.833061 0.205459
H7    H     H_    0.379696 0.097314 0.738193 0.246203
H8    H     H_    0.531093 0.111567 0.831869 0.242607
H9    H     H_    0.616635 0.658030 0.122707 0.130107
H10   H     H_    0.105437 0.309686 0.546027 0.222778
H11   H     H_    0.618996 0.656401 0.870161 0.147770
H12   H     H_    0.247582 0.454367 0.884993 0.166813
H13   H     H_    0.251705 0.456293 0.129030 0.198380
H14   H     H_    0.291413 0.284820 0.134924 0.219308
H15   H     H_    0.904286 0.439713 0.705283 0.195580
H16   H     H_    0.873042 0.656600 0.637920 0.225831
H17   H     H_    0.106723 0.549748 0.278140 0.247700
H18   H     H_    0.118550 0.390757 0.319550 0.171021
H19   H     H_    0.920465 0.363239 0.342425 0.190528
N1    N     N_R   0.499150 0.499140 0.142800 -0.100607
N2    N     N_R   0.499150 0.499180 0.857150 -0.127617
O1    O     O_R   0.500020 0.316790 0.614690 -0.579330
O2    O     O_R   0.500000 0.316760 0.385350 -0.632025
O3    O     O_R   0.314800 0.500000 0.614670 -0.588068
O4    O     O_R   0.314790 0.499960 0.385330 -0.613364
O5    O     O_R   0.500000 0.683240 0.614650 -0.610514
O6    O     O_R   0.499980 0.683210 0.385310 -0.627414
O7    O     O_R   0.685210 0.500040 0.614670 -0.618664
O8    O     O_R   0.685200 0.500000 0.385330 -0.583485
Zn1   Zn    Zn3+2 0.500010 0.500020 0.653130 1.033249
Zn2   Zn    Zn3+2 0.499990 0.499980 0.346870 1.002414
O9    O     O_3   0.878181 0.514064 0.232395 -0.591634
C27   C     C_3   0.876857 0.645971 0.219067 -0.214159
H20   H     H_    0.963265 0.691480 0.252146 0.212344
H21   H     H_    0.794083 0.686438 0.271921 0.158131
H22   H     H_    0.867040 0.669568 0.109948 0.185717
S1    S     S_3+6 0.128833 0.777464 0.460191 0.035344
O10   O     O_2   0.186996 0.743542 0.325866 -0.334460
O11   O     O_2   0.027315 0.872698 0.435152 -0.293228
O12   O     O_3   0.240977 0.848047 0.549361 -0.532764
H23   H     H_    0.204584 0.928690 0.580409 0.393205
O13   O     O_3   0.281967 0.258252 0.876096 -0.621839
C28   C     C_3   0.157446 0.220676 0.902405 -0.248227
H24   H     H_    0.088734 0.299394 0.899327 0.170225
H25   H     H_    0.150549 0.172472 0.002443 0.191850
H26   H     H_    0.130897 0.151897 0.824329 0.232892
S2    S     S_3+6 0.861112 0.247794 0.603602 0.000400
O14   O     O_2   0.800598 0.218353 0.471238 -0.307042
O15   O     O_2   0.957967 0.148763 0.631928 -0.283921
O16   O     O_3   0.751462 0.241623 0.727391 -0.545214
H27   H     H_    0.798293 0.245985 0.813164 0.350686
S3    S     S_3+6 0.096193 0.674611 0.734025 -0.000479
O17   O     O_2   0.233527 0.681814 0.761594 -0.294148
O18   O     O_2   0.038989 0.800338 0.766057 -0.265682
O19   O     O_3   0.031568 0.569375 0.841415 -0.659608
H28   H     H_    0.051590 0.599617 0.933301 0.385022

loop_
_geom_bond_atom_site_label_1
_geom_bond_atom_site_label_2
_ccdc_geom_bond_type
S1    O11   D    
C3    H16   S    
C7    H3    S    
S2    O14   D    
C25   H17   S    
O19   H28   S    
C7    C8    A    
C14   N1    A    
C3    H2    S    
C24   C26   S    
C21   O7    A    
S3    O18   D    
C18   O13   S    
C15   C16   A    
O2    Zn2   S    
C25   H18   S    
C18   C19   S    
C28   H25   S    
C8    C9    A    
O4    Zn2   S    
C9    C10   A    
C5    C13   S    
C16   H11   S    
O12   H23   S    
S1    O12   S    
C11   H5    S    
C27   H20   S    
S2    O15   D    
C14   C17   A    
C3    C24   S    
C23   S2    S    
C16   N2    A    
C15   H9    S    
C25   C26   S    
C4    C25   S    
C4    H19   S    
O7    Zn1   S    
C27   H21   S    
C1    C6    S    
O16   H27   S    
C10   C11   S    
C21   O8    A    
O6    Zn2   S    
S3    O17   D    
O13   C28   S    
O9    C27   S    
O3    Zn1   S    
C12   C26   S    
C28   H26   S    
C2    C4    S    
C13   H7    S    
C9    C20   S    
C2    C21   S    
C17   C18   S    
C19   H13   S    
C24   S3    S    
C11   H6    S    
C24   S1    S    
C22   H1    S    
O8    Zn2   S    
N1    Zn2   S    
S2    O16   S    
C12   O4    A    
O1    Zn1   S    
C27   H22   S    
C14   C19   S    
C17   N2    A    
C20   O6    A    
C12   O3    A    
C1    O1    A    
C6    C7    A    
C22   H10   S    
C23   H15   S    
C8    H4    S    
C2    C3    S    
C18   H12   S    
C13   H8    S    
C20   O5    A    
C11   C13   S    
S3    O19   S    
C5    C6    A    
C28   H24   S    
C19   H14   S    
S1    O10   D    
C5    C10   A    
C22   C26   S    
C4    O9    S    
C2    C23   S    
C22   C23   S    
C15   N1    A    
C1    O2    A    
O5    Zn1   S    
N2    Zn1   S    
