data_mof_unit_24590.cif
_audit_creation_date              2013-03-05T15:57:03-0500
_audit_creation_method            fapswitch 2.2
_symmetry_space_group_name_H-M    P1
_symmetry_Int_Tables_number       1
_space_group_crystal_system       triclinic
_cell_length_a                    8.375908
_cell_length_b                    16.624433
_cell_length_c                    18.942086
_cell_angle_alpha                 99.361938
_cell_angle_beta                  91.786478
_cell_angle_gamma                 94.016278
_cell_volume                      2593.63379749

loop_
_atom_site_label
_atom_site_type_symbol
_atom_site_description
_atom_site_fract_x
_atom_site_fract_y
_atom_site_fract_z
_atom_type_partial_charge
P1    P     P_3+3 0.056550 0.421630 0.336220 0.467512
O1    O     O_2   0.884010 0.444810 0.325060 -0.345262
O2    O     O_3   0.132090 0.451130 0.414310 -0.402063
O3    O     O_3   0.640770 0.594650 0.368950 -0.343946
O4    O     O_2   0.768275 0.526948 0.250704 -0.383652
O5    O     O_3   0.026853 0.314825 0.320113 -0.573348
O6    O     O_3   0.706813 0.674903 0.244963 -0.527010
H1    H     H_    0.556107 0.767434 0.238673 0.115678
C1    C     C_3   0.661604 0.741658 0.139243 -1.030815
H2    H     H_    0.710277 0.806379 0.153094 0.248475
H3    H     H_    0.757681 0.705139 0.115949 0.269803
P2    P     P_3+3 0.635450 0.689180 0.556380 0.437383
P3    P     P_3+3 0.073586 0.747663 0.423288 0.479448
O7    O     O_2   0.808690 0.699720 0.534830 -0.361936
O8    O     O_3   0.053760 0.638480 0.405010 -0.386290
O9    O     O_2   0.921567 0.783354 0.455266 -0.369351
O10   O     O_3   0.636078 0.738919 0.646684 -0.587635
O11   O     O_3   0.080661 0.788432 0.343172 -0.537767
C2    C     C_3   0.084585 0.727737 0.281883 0.612458
H4    H     H_    0.999492 0.674258 0.285310 0.132516
C3    C     C_3   0.031400 0.765467 0.217451 -0.619154
H5    H     H_    0.916845 0.792935 0.229201 0.234339
C4    C     C_3   0.228636 0.720350 0.635684 0.432477
H6    H     H_    0.335286 0.687231 0.619946 0.125583
H7    H     H_    0.145639 0.719715 0.588757 0.091730
C5    C     C_3   0.285434 0.808360 0.667244 -1.011987
H8    H     H_    0.345494 0.810950 0.720727 0.266680
H9    H     H_    0.371883 0.833832 0.632174 0.243955
H10   H     H_    0.183260 0.847332 0.672399 0.250981
Ba1   Ba    Ba6+2 0.845660 0.536000 0.465120 1.532615
C6    C     C_3   0.979625 0.285797 0.382043 0.439162
H11   H     H_    0.876769 0.317911 0.404256 0.121924
H12   H     H_    0.080337 0.295225 0.422744 0.107810
C7    C     C_3   0.931276 0.194223 0.362570 -1.041264
H13   H     H_    0.812280 0.183789 0.334100 0.289933
H14   H     H_    0.927364 0.165379 0.411182 0.230361
H15   H     H_    0.017881 0.162616 0.326984 0.262514
C8    C     C_3   0.681341 0.694450 0.699379 0.202591
H16   H     H_    0.804355 0.675559 0.691204 0.089758
H17   H     H_    0.588168 0.644640 0.700844 0.070512
C9    C     C_3   0.681420 0.748627 0.773661 -0.107200
H18   H     H_    0.555390 0.750830 0.790347 0.093912
P4    P     P_3+3 0.133150 0.578440 0.663790 0.450948
O12   O     O_2   0.305690 0.555220 0.674980 -0.390492
O13   O     O_3   0.057610 0.548940 0.585700 -0.391321
O14   O     O_3   0.548930 0.405410 0.631060 -0.405151
O15   O     O_3   0.146881 0.685069 0.687104 -0.584762
P5    P     P_3+3 0.107728 0.255865 0.595632 0.440616
O16   O     O_3   0.631040 0.400420 0.463490 -0.410791
O17   O     O_3   0.135930 0.361590 0.595000 -0.378076
O18   O     O_2   0.242333 0.216752 0.551515 -0.388971
O19   O     O_3   0.153384 0.237119 0.681901 -0.524267
Ba2   Ba    Ba6+2 0.344160 0.464070 0.534880 1.505419
P6    P     P_3+3 0.633077 0.582019 0.273406 0.445516
C10   C     C_3   0.592794 0.711293 0.205014 0.346493
H19   H     H_    0.484271 0.671014 0.187729 0.081002
H20   H     H_    0.564617 0.739372 0.097452 0.243348
O20   O     O_3   0.558660 0.599640 0.536520 -0.435834
C11   C     C_3   0.456132 0.298980 0.311091 0.627881
H21   H     H_    0.412550 0.355526 0.341965 0.034420
C12   C     C_3   0.537252 0.325072 0.245598 -0.646827
H22   H     H_    0.445806 0.333436 0.204187 0.154063
H23   H     H_    0.607128 0.384470 0.262681 0.210418
P7    P     P_3+3 0.560481 0.296796 0.443597 0.430104
O21   O     O_2   0.381010 0.300300 0.465220 -0.387829
O22   O     O_3   0.567373 0.263472 0.351251 -0.595370
H24   H     H_    0.016104 0.717500 0.169092 0.160377
C13   C     C_3   0.104114 0.301555 0.732002 0.435972
H25   H     H_    0.181761 0.358171 0.730468 0.141233
H26   H     H_    0.977506 0.313464 0.721118 -0.020151
C14   C     C_3   0.121352 0.279990 0.807036 -0.618723
H27   H     H_    0.099207 0.333582 0.847468 0.160378
H28   H     H_    0.244821 0.262840 0.817037 0.229722
P8    P     P_3+3 0.572213 0.407670 0.724051 0.413723
C15   C     C_3   0.580741 0.252256 0.692203 0.485415
H29   H     H_    0.712985 0.264464 0.693240 0.008706
O23   O     O_2   0.445001 0.463204 0.757921 -0.396392
O24   O     O_3   0.511252 0.310431 0.741822 -0.528946
H30   H     H_    0.529720 0.252081 0.637294 0.137777
H31   H     H_    0.600896 0.121462 0.673087 0.226270
C16   C     C_3   0.544035 0.167726 0.711244 -0.968318
H32   H     H_    0.412640 0.152246 0.708338 0.289000
H33   H     H_    0.591489 0.166090 0.766337 0.255203
C17   C     C_R   0.022127 0.440737 0.042175 0.018725
C18   C     C_R   0.929732 0.401266 0.089356 0.115937
C19   C     C_R   0.777699 0.363983 0.065116 -0.192170
C20   C     C_R   0.716066 0.367791 0.996270 -0.195163
C21   C     C_R   0.804878 0.408937 0.949626 0.123157
C22   C     C_R   0.958793 0.445290 0.972274 0.008989
C23   C     C_R   0.742208 0.413457 0.880703 -0.219007
C24   C     C_R   0.832719 0.452052 0.832261 -0.026252
C25   C     C_R   0.986336 0.490869 0.855249 -0.006081
C26   C     C_R   0.048077 0.487162 0.925568 -0.022006
C27   C     C_R   0.778593 0.449474 0.760338 0.110808
C28   C     C_R   0.883627 0.480599 0.712711 -0.241851
C29   C     C_R   0.025598 0.527468 0.734848 0.242646
C30   C     C_R   0.079539 0.532247 0.807869 -0.080554
C31   C     C_R   0.175579 0.477260 0.065344 -0.020174
C32   C     C_R   0.234056 0.478808 0.137364 0.005394
C33   C     C_R   0.131640 0.447793 0.187864 -0.027330
C34   C     C_R   0.984105 0.405467 0.161372 -0.167874
H34   H     H_    0.702810 0.334683 0.100210 0.131507
H35   H     H_    0.597203 0.339625 0.979965 0.135432
H36   H     H_    0.623964 0.384701 0.864847 0.181543
H37   H     H_    0.907944 0.377510 0.196910 0.172093
C35   C     C_R   0.227481 0.572589 0.834200 -0.128169
C36   C     C_R   0.292274 0.563876 0.901600 0.124885
C37   C     C_R   0.202409 0.522074 0.948075 0.016567
C38   C     C_R   0.268025 0.514869 0.016841 0.004509
C39   C     C_R   0.449141 0.594196 0.922056 -0.167429
C40   C     C_R   0.517362 0.582637 0.987195 -0.196327
C41   C     C_R   0.427559 0.543817 0.036073 0.079298
C42   C     C_R   0.393559 0.512056 0.158263 -0.099728
C43   C     C_R   0.494363 0.534161 0.103392 -0.088534
C44   C     C_R   0.440392 0.525123 0.233051 0.169229
C45   C     C_R   0.332425 0.499732 0.282701 -0.480962
C46   C     C_R   0.179781 0.460389 0.262657 0.228724
H38   H     H_    0.297868 0.607738 0.801428 0.158877
H39   H     H_    0.520768 0.625261 0.886689 0.129866
H40   H     H_    0.640296 0.606609 0.999444 0.141752
H41   H     H_    0.369410 0.509822 0.338861 0.182774
C47   C     C_R   0.365686 0.734117 0.491294 -0.562528
C48   C     C_R   0.525618 0.757807 0.510210 0.410814
C49   C     C_R   0.581091 0.840682 0.516522 -0.252929
C50   C     C_R   0.476163 0.899472 0.501819 0.132498
C51   C     C_R   0.314601 0.873180 0.481426 -0.294915
C52   C     C_R   0.259381 0.790250 0.475734 0.273606
C53   C     C_R   0.622194 0.141405 0.481965 0.054539
C54   C     C_R   0.664283 0.226849 0.492396 0.282270
C55   C     C_R   0.714174 0.090972 0.519570 0.075098
N1    N     N_2   0.525345 0.984769 0.507307 -0.066392
N2    N     N_2   0.672444 0.004890 0.516805 -0.067054
C56   C     C_R   0.806860 0.258496 0.529396 -0.574778
H42   H     H_    0.234303 0.916483 0.466522 0.160684
C57   C     C_R   0.908053 0.208975 0.558878 0.256213
C58   C     C_R   0.858945 0.125740 0.556437 -0.322325
H43   H     H_    0.702406 0.859625 0.536814 0.171433
H44   H     H_    0.935498 0.087365 0.581114 0.165656
H45   H     H_    0.322969 0.670508 0.487784 0.172813
H46   H     H_    0.849206 0.320595 0.527062 0.157775
N3    N     N_2   0.746034 0.832275 0.773523 -0.083828
H47   H     H_    0.666857 0.867785 0.752315 0.199363
C59   C     C_3   0.907800 0.844635 0.750390 -0.780043
H48   H     H_    0.946366 0.910936 0.761201 0.221736
H49   H     H_    0.912078 0.822691 0.691924 0.257481
H50   H     H_    0.992474 0.812224 0.779987 0.262121
C60   C     C_1   0.769090 0.711946 0.827546 0.025907
N4    N     N_1   0.838294 0.683229 0.869825 -0.085184
N5    N     N_2   0.318590 0.240785 0.290179 -0.109692
H51   H     H_    0.259611 0.229860 0.334664 0.177877
C61   C     C_3   0.342521 0.164779 0.243482 -0.865869
H52   H     H_    0.231463 0.123391 0.239368 0.239187
H53   H     H_    0.441680 0.133547 0.265062 0.265701
H54   H     H_    0.367265 0.176241 0.188658 0.247059
C62   C     C_1   0.648677 0.265875 0.214066 0.245703
N6    N     N_1   0.736185 0.219180 0.189509 -0.087003
C63   C     C_1   0.006297 0.211900 0.815617 0.217227
N7    N     N_1   0.915583 0.158214 0.822402 -0.095092
N8    N     N_2   0.848265 0.463102 0.639226 -0.095910
H55   H     H_    0.819284 0.402336 0.621164 0.155601
C64   C     C_3   0.747013 0.520062 0.614987 -0.479771
H56   H     H_    0.689019 0.491324 0.564457 0.292081
H57   H     H_    0.811446 0.577037 0.608306 0.208927
H58   H     H_    0.652480 0.535407 0.652119 0.187883
C65   C     C_1   0.666462 0.546908 0.112530 0.190657
N9    N     N_1   0.804318 0.559352 0.117595 -0.070946
N10   N     N_2   0.244172 0.700906 0.269491 -0.151670
H59   H     H_    0.243249 0.645450 0.236217 0.113226
C66   C     C_3   0.354482 0.711227 0.330460 -0.862871
H60   H     H_    0.474724 0.701467 0.318035 0.236416
H61   H     H_    0.323097 0.664539 0.363784 0.248321
H62   H     H_    0.368153 0.776227 0.355309 0.257259
N11   N     N_2   0.520542 0.104955 0.421501 -0.105430
H63   H     H_    0.561995 0.052864 0.392934 0.174351
C67   C     C_3   0.349676 0.097498 0.431286 -0.777227
H64   H     H_    0.291412 0.048356 0.389790 0.214379
H65   H     H_    0.296500 0.154628 0.424389 0.272379
H66   H     H_    0.322404 0.082317 0.484717 0.258655
C68   C     C_1   0.147547 0.830934 0.203266 0.215328
N12   N     N_1   0.239054 0.882362 0.192180 -0.093078

loop_
_geom_bond_atom_site_label_1
_geom_bond_atom_site_label_2
_geom_bond_distance
_ccdc_geom_bond_type
C59   H50   1.111142 S    
C10   H19   1.098492 S    
C65   N9    1.156911 T    
C7    H15   1.106932 S    
C66   H60   1.058907 S    
P8    C27   1.883023 S    
Ba1   O13   2.819314 S    
C28   C29   1.389178 A    
O6    C10   1.426683 S    
C20   C21   1.402924 A    
C53   C54   1.419575 A    
C41   C43   1.414069 A    
C16   H32   1.110139 S    
C57   C58   1.408661 A    
C67   H65   1.101588 S    
N11   H63   1.031821 S    
C37   C38   1.424238 A    
C53   N11   1.430047 S    
C63   N7    1.157072 T    
P3    O11   1.760817 S    
C43   C65   1.443075 S    
C28   N8    1.392988 S    
C25   C26   1.426066 A    
C2    C3    1.528308 S    
C47   H45   1.083202 S    
O11   C2    1.411695 S    
N5    C61   1.449841 S    
C11   O22   1.405071 S    
C8    H16   1.106206 S    
C7    H13   1.107326 S    
C4    C5    1.524673 S    
C35   C36   1.404782 A    
C59   H48   1.110728 S    
C45   C46   1.406555 A    
P1    O1    1.538569 D    
C9    H18   1.112664 S    
C61   H54   1.109034 S    
C47   C52   1.392837 A    
C12   H23   1.107058 S    
C39   C40   1.390839 A    
C33   C34   1.413737 A    
P5    C57   1.859481 S    
C60   N4    1.157359 T    
C64   H57   1.084479 S    
O12   Ba2   2.873326 S    
P4    Ba2   3.454075 S    
P5    O18   1.541729 D    
N8    H55   1.022003 S    
C13   H25   1.110857 S    
P8    O23   1.544988 D    
P2    O10   1.774375 S    
C4    H6    1.105475 S    
C6    H12   1.110023 S    
C1    C10   1.532236 S    
Ba2   O21   2.867604 S    
C1    H2    1.110290 S    
C7    H14   1.105549 S    
O19   C13   1.405014 S    
P2    O20   1.561924 S    
C21   C22   1.408294 A    
N11   C67   1.448136 S    
O5    C6    1.397101 S    
O13   Ba2   2.975644 S    
C11   H21   1.114210 S    
C31   C38   1.413512 A    
C3    H5    1.104681 S    
C35   H38   1.080256 S    
C66   H61   1.100522 S    
C12   H22   1.110972 S    
C2    N10   1.452514 S    
O7    Ba1   2.867354 S    
C12   C62   1.472563 S    
H1    C10   1.109401 S    
C16   H33   1.110246 S    
C25   C30   1.434358 A    
C64   H56   1.081698 S    
C67   H66   1.108894 S    
C11   N5    1.452877 S    
C34   H37   1.078486 S    
C14   C63   1.467399 S    
Ba1   Ba2   4.634586 S    
C11   C12   1.541156 S    
O17   Ba2   2.753201 S    
C4    O15   1.390251 S    
C45   H41   1.081593 S    
P1    O5    1.750650 S    
O4    P6    1.533927 D    
C48   C49   1.407702 A    
C17   C18   1.411020 A    
C8    C9    1.542252 S    
C58   H44   1.082708 S    
C38   C41   1.404413 A    
N10   H59   1.028068 S    
C14   H28   1.110556 S    
C19   C20   1.400225 A    
C15   C16   1.520086 S    
C18   C19   1.406041 A    
P2    Ba1   3.458149 S    
N10   C66   1.436547 S    
C40   H40   1.081866 S    
P1    O2    1.578291 S    
P7    O22   1.750865 S    
O2    Ba1   2.974737 S    
C55   N2    1.441266 S    
C15   H29   1.111020 S    
C29   C30   1.429637 A    
C9    N3    1.456885 S    
C1    H3    1.101954 S    
C50   N1    1.434859 S    
C6    H11   1.103726 S    
C9    C60   1.473553 S    
P5    O19   1.748453 S    
C61   H52   1.110480 S    
P6    C44   1.886194 S    
N8    C64   1.433994 S    
P4    C29   1.918592 S    
C5    H8    1.110053 S    
C6    C7    1.529463 S    
P1    C46   1.926356 S    
P7    C54   1.844919 S    
P4    O13   1.578291 S    
C23   H36   1.080761 S    
C5    H10   1.106348 S    
C54   C56   1.390675 A    
C30   C35   1.403662 A    
Ba1   O16   2.778313 S    
C21   C23   1.407244 A    
P3    O8    1.786566 S    
P4    O12   1.538879 D    
C51   C52   1.409063 A    
C50   C51   1.414608 A    
C36   C39   1.393734 A    
C20   H35   1.083652 S    
C17   C22   1.426442 A    
C36   C37   1.411229 A    
N1    N2    1.253459 D    
C19   H34   1.077566 S    
O14   P8    1.760160 S    
C64   H58   1.091494 S    
C18   C34   1.413843 A    
O8    Ba1   2.752444 S    
C56   C57   1.387748 A    
C42   C43   1.436569 A    
C59   H49   1.110741 S    
C40   C41   1.417491 A    
O3    P6    1.786290 S    
C55   C58   1.417689 A    
P2    O7    1.525596 D    
H31   C16   1.110275 S    
C53   C55   1.433335 A    
C39   H39   1.081501 S    
C32   C42   1.428098 A    
Ba2   O20   2.777566 S    
C5    H9    1.106103 S    
C32   C33   1.437505 A    
O1    Ba1   2.872768 S    
C17   C31   1.407860 A    
P7    O21   1.572812 D    
C2    H4    1.111535 S    
N3    C59   1.448236 S    
C14   H27   1.106679 S    
C26   C37   1.403439 A    
C67   H64   1.111177 S    
N5    H51   1.024812 S    
C24   C27   1.415343 A    
C8    H17   1.101729 S    
O2    Ba2   2.819770 S    
C23   C24   1.412515 A    
P2    C48   1.825991 S    
C15   H30   1.111546 S    
C13   C14   1.526330 S    
O16   Ba2   2.969071 S    
Ba1   O20   2.969947 S    
O14   Ba2   2.798090 S    
P5    O17   1.758989 S    
P1    Ba1   3.453379 S    
C66   H62   1.102793 S    
C1    H20   1.110761 S    
O10   C8    1.393674 S    
C61   H53   1.111203 S    
C22   C26   1.412524 A    
C27   C28   1.411794 A    
C15   O24   1.405242 S    
O3    Ba1   2.798497 S    
C68   N12   1.157224 T    
P3    C52   1.852126 S    
C3    C68   1.471817 S    
C4    H7    1.109452 S    
C49   H43   1.082072 S    
C51   H42   1.082783 S    
C56   H46   1.076122 S    
C13   H26   1.111452 S    
C31   C32   1.430654 A    
P8    O24   1.749097 S    
P3    O9    1.541833 D    
C62   N6    1.157453 T    
O16   P7    1.758190 S    
C33   C46   1.438615 A    
O6    P6    1.792743 S    
C47   C48   1.388609 A    
N3    H47   1.032023 S    
P4    O15   1.750458 S    
C3    H24   1.110013 S    
C24   C25   1.420888 A    
C44   C45   1.417460 A    
C49   C50   1.413787 A    
C42   C44   1.435695 A    
