data_mof_unit_33072.cif
_audit_creation_date              2013-03-05T15:56:47-0500
_audit_creation_method            fapswitch 2.2
_symmetry_space_group_name_H-M    P1
_symmetry_Int_Tables_number       1
_space_group_crystal_system       triclinic
_cell_length_a                    20.582222
_cell_length_b                    22.226932
_cell_length_c                    13.937908
_cell_angle_alpha                 90.456675
_cell_angle_beta                  88.576915
_cell_angle_gamma                 90.47086
_cell_volume                      6373.93496502

loop_
_atom_site_label
_atom_site_type_symbol
_atom_site_description
_atom_site_fract_x
_atom_site_fract_y
_atom_site_fract_z
_atom_type_partial_charge
O1    O     O_R   0.064880 0.435140 0.582280 -0.598372
O2    O     O_R   0.935120 0.564860 0.417720 -0.569720
O3    O     O_R   0.935120 0.564860 0.582280 -0.568831
O4    O     O_R   0.064880 0.435140 0.417720 -0.597512
O5    O     O_R   0.935120 0.435140 0.417720 -0.595450
O6    O     O_R   0.064880 0.564860 0.582280 -0.600776
O7    O     O_R   0.064880 0.564860 0.417720 -0.586622
O8    O     O_R   0.935120 0.435140 0.582280 -0.603489
O9    O     O_R   0.564880 0.935140 0.582280 -0.585370
O10   O     O_R   0.435120 0.064860 0.417720 -0.557614
O11   O     O_R   0.435120 0.064860 0.582280 -0.607478
O12   O     O_R   0.564880 0.935140 0.417720 -0.597741
O13   O     O_R   0.435120 0.935140 0.417720 -0.602931
O14   O     O_R   0.564880 0.064860 0.582280 -0.599047
O15   O     O_R   0.564880 0.064860 0.417720 -0.584908
O16   O     O_R   0.435120 0.935140 0.582280 -0.594878
C1    C     C_R   0.085073 0.414122 0.499621 0.784642
C2    C     C_R   0.914330 0.585683 0.500780 0.829436
C3    C     C_R   0.914071 0.415083 0.499989 0.789591
C4    C     C_R   0.084280 0.586202 0.499784 0.794258
C5    C     C_R   0.586109 0.915280 0.499341 0.870145
C6    C     C_R   0.413144 0.084751 0.500866 0.794172
C7    C     C_R   0.413629 0.915576 0.500030 0.804273
C8    C     C_R   0.585094 0.085362 0.499652 0.804469
Cu1   Cu    Cu3+1 0.000000 0.500000 0.597420 0.910769
Cu2   Cu    Cu3+1 0.000000 0.500000 0.402580 0.917002
Cu3   Cu    Cu3+1 0.500000 0.000000 0.597420 0.911293
Cu4   Cu    Cu3+1 0.500000 0.000000 0.402580 0.923180
C9    C     C_R   0.110605 0.694631 0.517946 0.087425
C10   C     C_R   0.883259 0.309506 0.465734 0.077678
C11   C     C_R   0.869794 0.680034 0.431362 0.065945
C12   C     C_R   0.119144 0.313151 0.559818 0.084663
C13   C     C_R   0.611734 0.193435 0.500241 0.082647
C14   C     C_R   0.381957 0.810839 0.463559 0.084311
C15   C     C_R   0.361355 0.173221 0.425025 0.098937
C16   C     C_R   0.623796 0.817147 0.557986 0.071082
C17   C     C_R   0.131340 0.635750 0.499374 -0.145684
C18   C     C_R   0.865172 0.367071 0.497823 -0.149274
C19   C     C_R   0.866256 0.635167 0.502071 -0.079618
C20   C     C_R   0.130544 0.363119 0.499513 -0.159230
C21   C     C_R   0.633105 0.133704 0.499141 -0.134383
C22   C     C_R   0.364440 0.867967 0.497828 -0.147652
C23   C     C_R   0.363038 0.132733 0.502012 -0.128614
C24   C     C_R   0.634720 0.867244 0.499384 -0.069215
C25   C     C_R   0.196731 0.623198 0.480976 0.082607
C26   C     C_R   0.799547 0.380512 0.516450 0.081432
C27   C     C_R   0.816705 0.637126 0.573314 0.068408
C28   C     C_R   0.188106 0.366123 0.443797 0.072526
C29   C     C_R   0.699558 0.120302 0.496975 0.085102
C30   C     C_R   0.299148 0.881446 0.518851 0.076218
C31   C     C_R   0.315391 0.136708 0.577057 0.069739
C32   C     C_R   0.693293 0.874202 0.447653 0.051747
C33   C     C_R   0.242217 0.670141 0.468934 0.085185
C34   C     C_R   0.751368 0.335382 0.504423 0.081475
C35   C     C_R   0.765883 0.679682 0.567095 0.032427
C36   C     C_R   0.227149 0.315452 0.430949 0.087964
C37   C     C_R   0.745075 0.167165 0.480106 0.062179
C38   C     C_R   0.250634 0.836696 0.508456 0.084111
C39   C     C_R   0.263976 0.178640 0.572297 0.081642
C40   C     C_R   0.737121 0.825330 0.439839 0.038630
C41   C     C_R   0.222823 0.729846 0.491829 -0.107243
C42   C     C_R   0.771424 0.274778 0.490369 -0.105286
C43   C     C_R   0.774622 0.729078 0.503787 -0.067199
C44   C     C_R   0.218945 0.267172 0.495269 -0.104298
C45   C     C_R   0.724656 0.227787 0.491983 -0.100579
C46   C     C_R   0.269960 0.776497 0.490007 -0.106926
C47   C     C_R   0.267041 0.222386 0.498519 -0.087157
C48   C     C_R   0.728273 0.775966 0.503566 -0.070612
C49   C     C_R   0.156651 0.742672 0.517701 0.077359
C50   C     C_R   0.838303 0.261314 0.473714 0.080039
C51   C     C_R   0.829610 0.731404 0.440322 0.035876
C52   C     C_R   0.163298 0.264406 0.557293 0.076439
C53   C     C_R   0.657537 0.241155 0.506360 0.077851
C54   C     C_R   0.336475 0.763060 0.469116 0.076308
C55   C     C_R   0.319910 0.223377 0.430915 0.030248
C56   C     C_R   0.673445 0.773832 0.567846 0.035678
C57   C     C_R   0.307146 0.658529 0.437697 0.166832
C58   C     C_R   0.683966 0.348717 0.509766 0.169393
C59   C     C_R   0.708472 0.676273 0.625490 0.170009
C60   C     C_R   0.278576 0.315367 0.361734 0.194702
C61   C     C_R   0.810784 0.154689 0.454970 0.158385
C62   C     C_R   0.183600 0.850071 0.520095 0.170892
C63   C     C_R   0.208786 0.177800 0.637198 0.157798
C64   C     C_R   0.791119 0.825645 0.374365 0.171344
C65   C     C_R   0.858006 0.200468 0.462095 0.171200
C66   C     C_R   0.138662 0.803262 0.538676 0.157358
C67   C     C_R   0.154944 0.214073 0.618001 0.169180
C68   C     C_R   0.840957 0.783565 0.384374 0.171640
C69   C     C_R   0.355203 0.702689 0.450784 0.165232
C70   C     C_R   0.638244 0.301779 0.522569 0.162094
C71   C     C_R   0.668681 0.726959 0.636215 0.175878
C72   C     C_R   0.328396 0.273146 0.368483 0.149440
C73   C     C_R   0.057389 0.506969 0.792575 0.289305
C74   C     C_R   0.942138 0.503725 0.207821 0.284492
C75   C     C_R   0.942952 0.492700 0.796719 0.288633
C76   C     C_R   0.057027 0.496440 0.202571 0.286180
C77   C     C_R   0.557855 0.007004 0.792074 0.284338
C78   C     C_R   0.442266 0.000132 0.207318 0.287837
C79   C     C_R   0.443420 0.994756 0.798242 0.268128
C80   C     C_R   0.557690 0.998915 0.203680 0.283260
N1    N     N_R   0.000000 0.500000 0.743810 -0.233227
N2    N     N_R   0.000000 0.500000 0.256190 -0.218404
N3    N     N_R   0.500000 0.000000 0.743810 -0.219897
N4    N     N_R   0.500000 1.000000 0.256190 -0.221201
C81   C     C_R   0.941046 0.497126 0.899030 -0.015807
C82   C     C_R   0.058456 0.501776 0.100631 0.009638
C83   C     C_R   0.058934 0.503515 0.895041 0.001489
C84   C     C_R   0.940313 0.499599 0.105175 -0.039401
C85   C     C_R   0.442203 0.004063 0.899608 -0.008058
C86   C     C_R   0.559438 0.003765 0.101380 -0.015829
C87   C     C_R   0.560041 0.004622 0.894912 -0.038061
C88   C     C_R   0.441291 0.006637 0.105158 -0.035159
C89   C     C_R   0.999819 0.500610 0.948556 -0.094455
C90   C     C_R   0.999492 0.500767 0.051414 -0.075594
C91   C     C_R   0.501044 0.005298 0.948862 -0.075801
C92   C     C_R   0.500636 0.005946 0.051849 -0.076613
C93   C     C_R   0.881639 0.496119 0.953060 0.179905
C94   C     C_R   0.117849 0.505754 0.046757 0.120371
C95   C     C_R   0.118207 0.504764 0.945407 0.117958
C96   C     C_R   0.881077 0.495936 0.053986 0.110515
C97   C     C_R   0.383261 0.011561 0.952805 0.172716
C98   C     C_R   0.618818 0.004456 0.047133 0.176228
C99   C     C_R   0.619343 0.003452 0.946078 0.110107
C100  C     C_R   0.382567 0.013315 0.053913 0.110187
N5    N     N_3   0.042430 0.705115 0.533592 -0.607846
H1    H     H_    0.017545 0.688966 0.474345 0.214629
H2    H     H_    0.026394 0.681338 0.594244 0.234498
N6    N     N_3   0.944731 0.301212 0.416300 -0.593439
H3    H     H_    0.945384 0.326705 0.353592 0.245983
H4    H     H_    0.982282 0.316175 0.459471 0.209112
N7    N     N_3   0.908273 0.668979 0.345558 -0.589129
H5    H     H_    0.952569 0.691843 0.346982 0.229407
H6    H     H_    0.882133 0.680227 0.284972 0.224162
N8    N     N_3   0.069123 0.315668 0.633612 -0.595988
H7    H     H_    0.081531 0.348348 0.684421 0.252616
H8    H     H_    0.024453 0.325933 0.604331 0.224218
N9    N     N_3   0.543731 0.205263 0.490164 -0.606641
H9    H     H_    0.517590 0.184849 0.546549 0.221438
H10   H     H_    0.528848 0.186384 0.425409 0.224221
N10   N     N_3   0.443818 0.802677 0.415235 -0.597706
H11   H     H_    0.480826 0.817445 0.459602 0.240193
H12   H     H_    0.445122 0.828388 0.352753 0.238529
N11   N     N_3   0.393527 0.157334 0.335575 -0.568593
H13   H     H_    0.438621 0.178662 0.328519 0.228329
H14   H     H_    0.363901 0.166297 0.277604 0.223542
N12   N     N_3   0.559386 0.808702 0.598058 -0.612787
H15   H     H_    0.557393 0.821086 0.670383 0.246695
H16   H     H_    0.543609 0.764482 0.586710 0.223739
N13   N     N_3   0.217638 0.562142 0.482015 -0.602531
H17   H     H_    0.203053 0.543045 0.547494 0.211573
H18   H     H_    0.194417 0.540152 0.426215 0.210395
N14   N     N_3   0.782005 0.439538 0.549982 -0.610529
H19   H     H_    0.801164 0.446138 0.617665 0.228275
H20   H     H_    0.801055 0.471873 0.502743 0.203001
N15   N     N_3   0.822170 0.598960 0.655115 -0.586869
H21   H     H_    0.813538 0.623383 0.718484 0.240898
H22   H     H_    0.791471 0.561671 0.649272 0.226401
N16   N     N_3   0.216852 0.423281 0.422752 -0.596082
H23   H     H_    0.222598 0.446043 0.487783 0.223474
H24   H     H_    0.186315 0.446766 0.379360 0.222570
N17   N     N_3   0.721863 0.060593 0.518382 -0.598367
H25   H     H_    0.684106 0.029870 0.530369 0.224650
H26   H     H_    0.746611 0.063388 0.582912 0.220039
N18   N     N_3   0.282279 0.940062 0.554198 -0.607740
H27   H     H_    0.301845 0.945338 0.621845 0.228669
H28   H     H_    0.301201 0.972624 0.507272 0.198419
N19   N     N_3   0.314748 0.093719 0.652353 -0.599556
H29   H     H_    0.355707 0.099489 0.694297 0.257733
H30   H     H_    0.310767 0.051002 0.622051 0.219289
N20   N     N_3   0.712175 0.934237 0.420952 -0.621022
H31   H     H_    0.759191 0.943260 0.444232 0.243443
H32   H     H_    0.709806 0.940043 0.347334 0.243520
C101  C     C_3   0.325148 0.602225 0.380691 -0.804148
H33   H     H_    0.337240 0.565043 0.429712 0.253471
H34   H     H_    0.285134 0.588596 0.332933 0.242926
H35   H     H_    0.367604 0.610399 0.331673 0.220209
C102  C     C_3   0.659155 0.411595 0.490529 -0.813307
H36   H     H_    0.657447 0.438676 0.557816 0.248551
H37   H     H_    0.689965 0.434187 0.434853 0.241159
H38   H     H_    0.609759 0.410347 0.460278 0.222276
C103  C     C_3   0.682244 0.617051 0.664334 -0.887002
H39   H     H_    0.690482 0.580372 0.611011 0.234336
H40   H     H_    0.703646 0.606443 0.734372 0.231896
H41   H     H_    0.628660 0.618414 0.675592 0.242960
C104  C     C_3   0.278008 0.356567 0.275244 -0.817703
H42   H     H_    0.227569 0.368146 0.256225 0.236121
H43   H     H_    0.306141 0.398364 0.289631 0.251000
H44   H     H_    0.299444 0.333756 0.210858 0.222459
C105  C     C_3   0.830234 0.095007 0.409032 -0.819000
H45   H     H_    0.845156 0.062802 0.464673 0.235761
H46   H     H_    0.789969 0.075564 0.366847 0.256226
H47   H     H_    0.871137 0.101069 0.356436 0.225082
C106  C     C_3   0.157902 0.912681 0.501249 -0.810510
H48   H     H_    0.157326 0.940104 0.568196 0.249334
H49   H     H_    0.187388 0.935299 0.444086 0.242500
H50   H     H_    0.107882 0.910687 0.473205 0.220268
C107  C     C_3   0.205887 0.141091 0.728963 -0.797682
H51   H     H_    0.249987 0.149739 0.771387 0.245181
H52   H     H_    0.165274 0.154138 0.778353 0.218566
H53   H     H_    0.199819 0.092495 0.712092 0.251753
C108  C     C_3   0.792724 0.864018 0.284831 -0.885553
H54   H     H_    0.743660 0.865943 0.253728 0.232710
H55   H     H_    0.812307 0.909600 0.300449 0.232505
H56   H     H_    0.823957 0.843872 0.227170 0.242860
C109  C     C_3   0.928778 0.182459 0.468128 -0.820031
H57   H     H_    0.934112 0.135448 0.492793 0.222402
H58   H     H_    0.953756 0.186923 0.397013 0.253434
H59   H     H_    0.953329 0.210359 0.522838 0.235499
C110  C     C_3   0.073968 0.819392 0.586784 -0.805069
H60   H     H_    0.074416 0.865043 0.619515 0.220821
H61   H     H_    0.034490 0.817721 0.533959 0.248195
H62   H     H_    0.063352 0.788890 0.647972 0.244234
C111  C     C_3   0.088028 0.194217 0.654116 -0.819876
H63   H     H_    0.085043 0.144497 0.660812 0.222756
H64   H     H_    0.076324 0.215121 0.724993 0.248014
H65   H     H_    0.050643 0.205689 0.601641 0.240698
C112  C     C_3   0.908617 0.800602 0.347813 -0.890026
H66   H     H_    0.914515 0.850217 0.343062 0.243351
H67   H     H_    0.945710 0.786338 0.399258 0.235239
H68   H     H_    0.918387 0.781306 0.275300 0.230314
C113  C     C_3   0.425557 0.682824 0.455078 -0.813470
H69   H     H_    0.429343 0.634559 0.473879 0.222467
H70   H     H_    0.450905 0.689864 0.384787 0.251024
H71   H     H_    0.450907 0.707317 0.513090 0.236007
C114  C     C_3   0.571253 0.317300 0.563473 -0.808845
H72   H     H_    0.571005 0.361371 0.601468 0.222566
H73   H     H_    0.535437 0.318972 0.505303 0.250039
H74   H     H_    0.555817 0.284332 0.619125 0.240319
C115  C     C_3   0.629844 0.733646 0.729584 -0.889000
H75   H     H_    0.650135 0.705435 0.786867 0.243189
H76   H     H_    0.633610 0.780457 0.757271 0.231482
H77   H     H_    0.578519 0.719580 0.720899 0.229089
C116  C     C_3   0.393927 0.287934 0.321642 -0.884401
H78   H     H_    0.400598 0.337103 0.311721 0.243065
H79   H     H_    0.433958 0.275035 0.369069 0.237780
H80   H     H_    0.398908 0.265943 0.250149 0.229079
N21   N     N_3   0.116565 0.522037 0.742025 -0.553066
H81   H     H_    0.125482 0.494529 0.682750 0.259652
H82   H     H_    0.117720 0.567926 0.726727 0.237937
N22   N     N_3   0.882819 0.516865 0.258840 -0.626683
H83   H     H_    0.874038 0.489640 0.317790 0.262687
H84   H     H_    0.880108 0.562722 0.274122 0.258848
N23   N     N_3   0.884733 0.475863 0.750175 -0.564836
H85   H     H_    0.879451 0.501407 0.689273 0.277663
H86   H     H_    0.886137 0.429798 0.735122 0.230067
N24   N     N_3   0.115757 0.481330 0.247451 -0.565685
H87   H     H_    0.123366 0.509755 0.305391 0.253200
H88   H     H_    0.113493 0.435839 0.265080 0.230100
N25   N     N_3   0.616738 0.021560 0.740745 -0.628817
H89   H     H_    0.625692 0.993712 0.681969 0.262567
H90   H     H_    0.618487 0.067445 0.725488 0.240150
N26   N     N_3   0.382778 0.983487 0.255660 -0.622765
H91   H     H_    0.383137 0.937563 0.270555 0.235625
H92   H     H_    0.373044 0.009589 0.316201 0.268460
N27   N     N_3   0.385461 0.974000 0.755245 -0.569286
H93   H     H_    0.380396 0.997318 0.692316 0.253798
H94   H     H_    0.390277 0.928007 0.741228 0.231365
N28   N     N_3   0.616292 0.983108 0.249294 -0.566379
H95   H     H_    0.624807 0.009908 0.308951 0.276006
H96   H     H_    0.614208 0.937339 0.265166 0.232737
N29   N     N_3   0.820348 0.497475 0.905876 -0.560159
H97   H     H_    0.793508 0.458983 0.924557 0.242458
H98   H     H_    0.794740 0.535500 0.929384 0.226524
N30   N     N_3   0.178406 0.513427 0.094841 -0.570806
H99   H     H_    0.209243 0.477727 0.076967 0.219340
H100  H     H_    0.200160 0.554004 0.073659 0.214422
N31   N     N_3   0.179588 0.502764 0.894034 -0.571547
H101  H     H_    0.206933 0.541136 0.910407 0.218582
H102  H     H_    0.204736 0.464340 0.913908 0.215439
N32   N     N_3   0.818521 0.489186 0.100921 -0.617100
H103  H     H_    0.805062 0.529398 0.134943 0.243940
H104  H     H_    0.818865 0.452933 0.148232 0.246599
N33   N     N_3   0.323505 0.020757 0.903978 -0.555395
H105  H     H_    0.290039 0.987655 0.925844 0.238175
H106  H     H_    0.305088 0.062921 0.923618 0.234120
N34   N     N_3   0.680091 0.007899 0.094265 -0.560910
H107  H     H_    0.707464 0.969986 0.075379 0.240122
H108  H     H_    0.705140 0.046401 0.070834 0.232031
N35   N     N_3   0.681966 0.998312 0.898985 -0.617304
H109  H     H_    0.694349 0.038522 0.864544 0.244277
H110  H     H_    0.682352 0.961466 0.851886 0.244739
N36   N     N_3   0.321291 0.025749 0.101283 -0.615437
H111  H     H_    0.326902 0.060282 0.151864 0.243497
H112  H     H_    0.302545 0.986584 0.132721 0.248112

loop_
_geom_bond_atom_site_label_1
_geom_bond_atom_site_label_2
_geom_bond_distance
_ccdc_geom_bond_type
C64   C108  1.516677 S    
C107  H53   1.110298 S    
C26   N14   1.435168 S    
N27   H94   1.044296 S    
N24   H88   1.042868 S    
C80   C86   1.430313 A    
C8    C21   1.453761 S    
C17   C25   1.393885 A    
C9    N5    1.435328 S    
O2    C2    1.306780 A    
C58   C102  1.519997 S    
N31   H102  1.045084 S    
C108  H54   1.110090 S    
C84   C96   1.429266 A    
C70   C114  1.520148 S    
C31   N19   1.424658 S    
C14   C22   1.399933 A    
C66   C110  1.520139 S    
Cu1   N1    2.040370 S    
N6    H3    1.045155 S    
C110  H62   1.110053 S    
C82   C90   1.408746 A    
N17   H25   1.041539 S    
C104  H42   1.110590 S    
C45   C53   1.424400 A    
C12   C52   1.419508 A    
C103  H39   1.109993 S    
O10   C6    1.308493 A    
C112  H68   1.109179 S    
N9    H10   1.044088 S    
C74   C84   1.434277 A    
N25   H89   1.036586 S    
C113  H69   1.110165 S    
O7    Cu2   1.970679 S    
N20   H32   1.037578 S    
C71   C115  1.517185 S    
C13   C53   1.416715 A    
C109  H59   1.108065 S    
C54   C69   1.418676 A    
C81   C89   1.408862 A    
N18   H27   1.039820 S    
N10   H12   1.045101 S    
C53   C70   1.422650 A    
C48   C56   1.424080 A    
C113  H71   1.109801 S    
C76   N2    1.378214 A    
C38   C62   1.418862 A    
N12   H16   1.044670 S    
C69   C113  1.520060 S    
N29   H97   1.045751 S    
C77   C87   1.436576 A    
C102  H38   1.110335 S    
C99   N35   1.436790 S    
C111  H65   1.107336 S    
O6    Cu1   1.966032 S    
N15   H22   1.041951 S    
N20   H31   1.045597 S    
O10   Cu4   1.979614 S    
N11   H13   1.041552 S    
C46   C54   1.426095 A    
N21   H82   1.043644 S    
N11   H14   1.045643 S    
C72   C116  1.518517 S    
C80   N4    1.379545 A    
C114  H74   1.110196 S    
C96   N32   1.436927 S    
C68   C112  1.517092 S    
C42   C50   1.424094 A    
O3    C2    1.312804 A    
C20   C28   1.401775 A    
O14   C8    1.299439 A    
C107  H52   1.108584 S    
C94   C95   1.412430 A    
C83   C89   1.412556 A    
C97   C100  1.409179 A    
C79   N27   1.420255 S    
C76   C82   1.426269 A    
C16   C56   1.419629 A    
C39   C47   1.420760 A    
C89   C90   1.433448 A    
C33   C41   1.420510 A    
C41   C46   1.414117 A    
C38   C46   1.418751 A    
C10   N6    1.438052 S    
C13   N9    1.436761 S    
N30   H99   1.044899 S    
C106  H49   1.110487 S    
C35   C43   1.421508 A    
C11   N7    1.438512 S    
C60   C104  1.520005 S    
C36   C44   1.410184 A    
O13   Cu4   1.966035 S    
N33   H106  1.045715 S    
O14   Cu3   1.966032 S    
C63   C107  1.522244 S    
C32   C40   1.419483 A    
C116  H78   1.109672 S    
C10   C50   1.412963 A    
C112  H67   1.110095 S    
C59   C71   1.403113 A    
C61   C65   1.405986 A    
C93   N29   1.437688 S    
C24   C32   1.397399 A    
O16   Cu3   1.970682 S    
C11   C51   1.418257 A    
C25   C33   1.404385 A    
N21   H81   1.037466 S    
C82   C94   1.421182 A    
N16   H24   1.030829 S    
O8    Cu1   1.970682 S    
C108  H55   1.109240 S    
N13   H18   1.039587 S    
C81   C93   1.420121 A    
C105  H45   1.110152 S    
C12   N8    1.438197 S    
C76   N24   1.418747 S    
N17   H26   1.045767 S    
O13   C7    1.296329 A    
N33   H105  1.045705 S    
C9    C49   1.421870 A    
C103  H40   1.108740 S    
C87   C91   1.412421 A    
C80   N28   1.425158 S    
N25   H90   1.043623 S    
O8    C3    1.309701 A    
C78   C88   1.433018 A    
C87   C99   1.429364 A    
C85   C97   1.416309 A    
C44   C47   1.411402 A    
O3    Cu1   1.989111 S    
N10   H11   1.042295 S    
C73   N21   1.430559 S    
N19   H30   1.039539 S    
C79   N3    1.378620 A    
Cu2   N2    2.040370 S    
C93   C96   1.406498 A    
C32   N20   1.436081 S    
N19   H29   1.044223 S    
N29   H98   1.045843 S    
N36   H111  1.045687 S    
C104  H44   1.110767 S    
N8    H8    1.042826 S    
C34   C42   1.422737 A    
C102  H37   1.110409 S    
C112  H66   1.110769 S    
C101  H33   1.110225 S    
C19   C27   1.406329 A    
C28   N16   1.426563 S    
O12   C5    1.309893 A    
O7    C4    1.305246 A    
C58   C70   1.408674 A    
C59   C103  1.517370 S    
C1    C20   1.475945 S    
C30   C38   1.412781 A    
N16   H23   1.043333 S    
C60   C72   1.401063 A    
C105  H47   1.110568 S    
N28   H96   1.043123 S    
C2    C19   1.485193 S    
C115  H75   1.110815 S    
C39   C63   1.434534 A    
C3    C18   1.461504 S    
C98   N34   1.437565 S    
C5    C24   1.469214 S    
C35   C59   1.419926 A    
Cu4   N4    2.040370 S    
N26   H92   1.036564 S    
C6    C23   1.489372 S    
O11   Cu3   1.989111 S    
C36   C60   1.414334 A    
N35   H109  1.044608 S    
C106  H50   1.110692 S    
C15   C55   1.409932 A    
C26   C34   1.416627 A    
N22   H84   1.041268 S    
C110  H60   1.109266 S    
C67   C111  1.517937 S    
C94   N30   1.438025 S    
O2    Cu2   1.979614 S    
C95   N31   1.437443 S    
N14   H19   1.040318 S    
N5    H2    1.045598 S    
C51   C68   1.416938 A    
C7    C22   1.459161 S    
C61   C105  1.520652 S    
C77   N3    1.389170 A    
C101  H34   1.110424 S    
C55   C72   1.419865 A    
C22   C30   1.402586 A    
O4    C1    1.315041 A    
C74   N22   1.428649 S    
O15   C8    1.302692 A    
O12   Cu4   1.989111 S    
C106  H48   1.110346 S    
O16   C7    1.308824 A    
C12   C20   1.412729 A    
C62   C106  1.519928 S    
C33   C57   1.420219 A    
C9    C17   1.400075 A    
C108  H56   1.110410 S    
N32   H104  1.045462 S    
C16   C24   1.399593 A    
C31   C39   1.419018 A    
C73   N1    1.384322 A    
N27   H93   1.030282 S    
C25   N13   1.427339 S    
C86   C92   1.409503 A    
C88   C92   1.413975 A    
C52   C67   1.414863 A    
C15   C23   1.407213 A    
O9    Cu3   1.979614 S    
C27   C35   1.420734 A    
N12   H15   1.042754 S    
N14   H20   1.045896 S    
C103  H41   1.110753 S    
C41   C49   1.430602 A    
C28   C36   1.396699 A    
C109  H57   1.109758 S    
N24   H87   1.035562 S    
C110  H61   1.110176 S    
C57   C101  1.520509 S    
C42   C45   1.414497 A    
C114  H72   1.109824 S    
C15   N11   1.439915 S    
C57   C69   1.401854 A    
C29   N17   1.443674 S    
C64   C68   1.404080 A    
C37   C45   1.421944 A    
N7    H6    1.045561 S    
N6    H4    1.041965 S    
C63   C67   1.408027 A    
C29   C37   1.412396 A    
O4    Cu2   1.989111 S    
N31   H101  1.044831 S    
O1    Cu1   1.979614 S    
C101  H35   1.110449 S    
C88   C100  1.428493 A    
N8    H7    1.045029 S    
O5    C3    1.296755 A    
C100  N36   1.436791 S    
C115  H77   1.108450 S    
C21   C29   1.401746 A    
O6    C4    1.299742 A    
N9    H9    1.045775 S    
C43   C48   1.418724 A    
O11   C6    1.313183 A    
O1    C1    1.299666 A    
C83   C95   1.422525 A    
C91   C92   1.435205 A    
C77   N25   1.428104 S    
C113  H70   1.110052 S    
C84   C90   1.414290 A    
C30   N18   1.431562 S    
N18   H28   1.045731 S    
N28   H95   1.036603 S    
Cu1   Cu2   2.715661 S    
C111  H64   1.110186 S    
C13   C21   1.401879 A    
C115  H76   1.109610 S    
C62   C66   1.407697 A    
N7    H5    1.040649 S    
C16   N12   1.437169 S    
N35   H110  1.045461 S    
C78   N26   1.430230 S    
C4    C17   1.460612 S    
C40   C64   1.420439 A    
O9    C5    1.300792 A    
O15   Cu4   1.970679 S    
N5    H1    1.042280 S    
C27   N15   1.433722 S    
C23   C31   1.418660 A    
C111  H63   1.110861 S    
Cu3   N3    2.040370 S    
N22   H83   1.035717 S    
C114  H73   1.110301 S    
C34   C58   1.421007 A    
C75   C81   1.428209 A    
C50   C65   1.421961 A    
C37   C61   1.417681 A    
C65   C109  1.518328 S    
C44   C52   1.418954 A    
C107  H51   1.110149 S    
C116  H80   1.109203 S    
C97   N33   1.437192 S    
C86   C98   1.421124 A    
C18   C26   1.403231 A    
C104  H43   1.110198 S    
C85   C91   1.406836 A    
C56   C71   1.418644 A    
N36   H112  1.044431 S    
O5    Cu2   1.966035 S    
C75   N1    1.380071 A    
C47   C55   1.421770 A    
N34   H107  1.045825 S    
C40   C48   1.424839 A    
N30   H100  1.045033 S    
C102  H36   1.110322 S    
C116  H79   1.109931 S    
N15   H21   1.045225 S    
C11   C19   1.407830 A    
N32   H103  1.044629 S    
C14   C54   1.411187 A    
N23   H86   1.044018 S    
C10   C18   1.402202 A    
C105  H46   1.110666 S    
C98   C99   1.408280 A    
N13   H17   1.045794 S    
C109  H58   1.109974 S    
N34   H108  1.045792 S    
C43   C51   1.419886 A    
C78   N4    1.384312 A    
C73   C83   1.431991 A    
C49   C66   1.425752 A    
N23   H85   1.033437 S    
C74   N2    1.386382 A    
C75   N23   1.422721 S    
N26   H91   1.043396 S    
Cu3   Cu4   2.715661 S    
C14   N10   1.437695 S    
C79   C85   1.425894 A    
