data_mof_unit_41026.cif
_audit_creation_date              2012-10-26T17:13:10-0400
_audit_creation_method            fapswitch 2.2
_symmetry_space_group_name_H-M    P1
_symmetry_Int_Tables_number       1
_space_group_crystal_system       triclinic
_cell_length_a                    16.865633
_cell_length_b                    16.799973
_cell_length_c                    16.839939
_cell_angle_alpha                 67.53684
_cell_angle_beta                  67.782989
_cell_angle_gamma                 67.712627
_cell_volume                      3925.34763917

loop_
_atom_site_label
_atom_site_type_symbol
_atom_type_description
_atom_site_fract_x
_atom_site_fract_y
_atom_site_fract_z
_atom_type_partial_charge
C1    C     C_R   0.325326 0.936927 0.457641 -0.029265
C2    C     C_R   0.696460 0.980244 0.566208 -0.029510
C3    C     C_R   0.940407 0.455581 0.323979 -0.035910
C4    C     C_R   0.981312 0.565227 0.695836 -0.030838
C5    C     C_R   0.454262 0.325902 0.945068 -0.032566
C6    C     C_R   0.550834 0.680730 0.031438 -0.038215
C7    C     C_R   0.569304 0.973891 0.698724 -0.033155
C8    C     C_R   0.454694 0.940282 0.325936 -0.034789
C9    C     C_R   0.691156 0.569061 0.990707 -0.031650
C10   C     C_R   0.321398 0.453968 0.953691 -0.030440
C11   C     C_R   0.976083 0.698117 0.566925 -0.023919
C12   C     C_R   0.942246 0.324261 0.454174 -0.035964
C13   C     C_R   0.465328 0.941382 0.466925 0.052793
C14   C     C_R   0.562972 0.955536 0.563445 0.055486
C15   C     C_R   0.950734 0.463184 0.461885 0.053790
C16   C     C_R   0.967058 0.559352 0.558290 0.053113
C17   C     C_R   0.459136 0.461953 0.963648 0.053075
C18   C     C_R   0.551920 0.555851 0.988994 0.055020
C19   C     C_R   0.006753 0.834242 0.571278 0.801048
C20   C     C_R   0.968268 0.171951 0.436231 0.821343
C21   C     C_R   0.830005 0.568203 0.018833 0.802188
C22   C     C_R   0.171845 0.435979 0.969984 0.824542
C23   C     C_R   0.568447 0.015872 0.830814 0.824587
C24   C     C_R   0.435989 0.968945 0.172205 0.801828
C25   C     C_R   0.436255 0.172362 0.968810 0.819807
C26   C     C_R   0.564281 0.828063 0.028793 0.790020
C27   C     C_R   0.967922 0.436432 0.171912 0.817643
C28   C     C_R   0.008233 0.570936 0.833531 0.805006
C29   C     C_R   0.172013 0.968084 0.436631 0.818333
C30   C     C_R   0.830255 0.017569 0.567892 0.807473
C31   C     C_R   0.414668 0.940216 0.416556 0.073898
C32   C     C_R   0.608902 0.971727 0.608980 0.072279
C33   C     C_R   0.945049 0.414052 0.412971 0.071941
C34   C     C_R   0.976333 0.607262 0.606631 0.070568
C35   C     C_R   0.411298 0.413437 0.954789 0.070785
C36   C     C_R   0.597964 0.601511 0.004469 0.069465
C37   C     C_R   0.272193 0.944729 0.404348 -0.176201
C38   C     C_R   0.736824 0.010608 0.607021 -0.149193
C39   C     C_R   0.944617 0.403521 0.271900 -0.172570
C40   C     C_R   0.990861 0.614131 0.743993 -0.169397
C41   C     C_R   0.403151 0.273150 0.947730 -0.172042
C42   C     C_R   0.598678 0.729155 0.041045 -0.164364
C43   C     C_R   0.608246 0.007810 0.737819 -0.159692
C44   C     C_R   0.402692 0.946172 0.272823 -0.171422
C45   C     C_R   0.734645 0.607780 0.019453 -0.155669
C46   C     C_R   0.271375 0.403388 0.950448 -0.174448
C47   C     C_R   0.988401 0.745070 0.614887 -0.168602
C48   C     C_R   0.945213 0.272143 0.402932 -0.171779
C49   C     C_R   0.492398 0.941682 0.744788 -0.131711
C50   C     C_R   0.547539 0.928313 0.293084 -0.111432
C51   C     C_R   0.956557 0.740430 0.483193 -0.127110
C52   C     C_R   0.932600 0.290721 0.546918 -0.103872
C53   C     C_R   0.736483 0.497331 0.951031 -0.130571
C54   C     C_R   0.286209 0.545700 0.951894 -0.121415
C55   C     C_R   0.294746 0.918776 0.552019 -0.125819
C56   C     C_R   0.738969 0.958518 0.483618 -0.137012
C57   C     C_R   0.548172 0.296909 0.926330 -0.111718
C58   C     C_R   0.457219 0.708851 0.048168 -0.104742
C59   C     C_R   0.926937 0.549254 0.291581 -0.104384
C60   C     C_R   0.969634 0.477812 0.735263 -0.120955
C61   C     C_R   0.315306 0.936722 0.316235 0.212141
C62   C     C_R   0.686034 0.035483 0.686184 0.208973
C63   C     C_R   0.935117 0.315786 0.315562 0.213433
C64   C     C_R   0.981169 0.706558 0.706502 0.183788
C65   C     C_R   0.316065 0.317003 0.937738 0.208443
C66   C     C_R   0.685158 0.684729 0.050200 0.217692
C67   C     C_R   0.691410 0.954157 0.433974 -0.001096
C68   C     C_R   0.344260 0.920257 0.602439 0.012073
C69   C     C_R   0.970019 0.427491 0.686029 0.003830
C70   C     C_R   0.938176 0.597258 0.336650 0.004048
C71   C     C_R   0.412747 0.669708 0.024353 0.005472
C72   C     C_R   0.596727 0.346029 0.931567 0.010635
C73   C     C_R   0.595546 0.938881 0.338348 0.004289
C74   C     C_R   0.443557 0.931276 0.699244 0.009995
C75   C     C_R   0.326572 0.587428 0.977129 -0.000979
C76   C     C_R   0.691011 0.446187 0.944710 0.014644
C77   C     C_R   0.949361 0.333720 0.592572 0.004388
C78   C     C_R   0.954290 0.692641 0.432509 -0.000696
C79   C     C_R   0.731750 0.953278 0.343978 0.305152
C80   C     C_R   0.311991 0.903418 0.696268 0.299109
C81   C     C_R   0.973909 0.335912 0.724986 0.325640
C82   C     C_R   0.936601 0.688172 0.296817 0.305884
C83   C     C_R   0.321867 0.708368 0.026994 0.333713
C84   C     C_R   0.690281 0.315901 0.912588 0.299085
C85   C     C_R   0.684649 0.941773 0.296817 0.305607
C86   C     C_R   0.360599 0.911670 0.744658 0.297774
C87   C     C_R   0.280572 0.670708 0.996087 0.292073
C88   C     C_R   0.737431 0.364766 0.922054 0.285773
C89   C     C_R   0.958477 0.289726 0.679798 0.284750
C90   C     C_R   0.948556 0.735182 0.343885 0.299578
C91   C     C_R   0.554000 0.945840 0.426011 -0.048706
C92   C     C_R   0.477727 0.941980 0.606943 -0.046438
C93   C     C_R   0.956974 0.421530 0.550186 -0.047078
C94   C     C_R   0.958295 0.601648 0.470718 -0.043485
C95   C     C_R   0.414828 0.546075 0.980956 -0.045600
C96   C     C_R   0.598016 0.476036 0.963201 -0.044022
C97   C     C_R   0.602423 0.952851 0.474120 -0.042893
C98   C     C_R   0.428417 0.936012 0.558572 -0.047494
C99   C     C_R   0.459906 0.590705 0.997869 -0.052335
C100  C     C_R   0.551120 0.427089 0.954485 -0.049523
C101  C     C_R   0.965802 0.469169 0.597741 -0.048136
C102  C     C_R   0.950638 0.553676 0.422483 -0.048850
Cu1   Cu    Cu3+1 0.995180 0.995180 0.424630 1.105475
Cu2   Cu    Cu3+1 0.004820 0.004820 0.575370 1.107164
Cu3   Cu    Cu3+1 0.995180 0.424630 0.995180 1.106592
Cu4   Cu    Cu3+1 0.004820 0.575370 0.004820 1.113007
Cu5   Cu    Cu3+1 0.424630 0.995180 0.995180 1.103557
Cu6   Cu    Cu3+1 0.575370 0.004820 0.004820 1.108678
H1    H     H_    0.470067 0.921263 0.816371 0.226112
H2    H     H_    0.585312 0.905473 0.234472 0.234149
H3    H     H_    0.934551 0.811815 0.458319 0.212384
H4    H     H_    0.907575 0.233261 0.586401 0.232913
H5    H     H_    0.807265 0.481161 0.921741 0.200493
H6    H     H_    0.229985 0.588389 0.926496 0.224764
H7    H     H_    0.234554 0.898193 0.588226 0.222805
H8    H     H_    0.809454 0.940565 0.456022 0.220174
H9    H     H_    0.585182 0.238906 0.901803 0.233481
H10   H     H_    0.417221 0.759626 0.082484 0.231019
H11   H     H_    0.902724 0.587199 0.233455 0.235246
H12   H     H_    0.949992 0.448700 0.805838 0.231226
O1    O     O_R   0.124540 0.978640 0.385460 -0.517772
O2    O     O_R   0.875460 0.021360 0.614540 -0.520949
O3    O     O_R   0.978640 0.385460 0.124540 -0.524935
O4    O     O_R   0.021360 0.614540 0.875460 -0.531366
O5    O     O_R   0.385460 0.124540 0.978640 -0.521059
O6    O     O_R   0.614540 0.875460 0.021360 -0.526306
O7    O     O_R   0.614540 0.021360 0.875460 -0.524535
O8    O     O_R   0.385460 0.978640 0.124540 -0.524457
O9    O     O_R   0.875460 0.614540 0.021360 -0.520699
O10   O     O_R   0.124540 0.385460 0.978640 -0.519400
O11   O     O_R   0.021360 0.875460 0.614540 -0.531764
O12   O     O_R   0.978640 0.124540 0.385460 -0.522292
O13   O     O_R   0.013780 0.867370 0.487190 -0.598124
O14   O     O_R   0.986220 0.132630 0.512810 -0.586960
O15   O     O_R   0.867370 0.487190 0.013780 -0.598990
O16   O     O_R   0.132630 0.512810 0.986220 -0.594492
O17   O     O_R   0.487190 0.013780 0.867370 -0.594702
O18   O     O_R   0.512810 0.986220 0.132630 -0.589529
O19   O     O_R   0.512810 0.132630 0.986220 -0.590444
O20   O     O_R   0.487190 0.867370 0.013780 -0.602725
O21   O     O_R   0.986220 0.512810 0.132630 -0.586329
O22   O     O_R   0.013780 0.487190 0.867370 -0.600478
O23   O     O_R   0.132630 0.986220 0.512810 -0.593654
O24   O     O_R   0.867370 0.013780 0.487190 -0.607786
Br1   Br    Br    0.263752 0.889735 0.264089 -0.420054
Br2   Br    Br    0.714543 0.121425 0.714923 -0.433391
Br3   Br    Br    0.887687 0.264012 0.264130 -0.412949
Br4   Br    Br    0.930438 0.784523 0.784578 -0.423899
Br5   Br    Br    0.266547 0.267409 0.886208 -0.414670
Br6   Br    Br    0.726517 0.721834 0.120170 -0.433324
O25   O     O_3   0.327207 0.904513 0.835067 -0.724783
H13   H     H_    0.261347 0.921687 0.851085 0.347174
O26   O     O_3   0.722437 0.935725 0.209979 -0.713470
H14   H     H_    0.787951 0.919315 0.196094 0.337753
O27   O     O_3   0.960143 0.820170 0.303711 -0.694234
H15   H     H_    0.990923 0.826356 0.239457 0.342333
O28   O     O_3   0.954605 0.201754 0.717372 -0.719441
H16   H     H_    0.942885 0.185742 0.782886 0.335535
O29   O     O_3   0.827340 0.331605 0.915868 -0.713456
H17   H     H_    0.843837 0.265391 0.931636 0.356833
O30   O     O_3   0.195263 0.712058 0.986460 -0.728859
H18   H     H_    0.183251 0.777551 0.973524 0.336396
O31   O     O_3   0.233710 0.878373 0.738909 -0.725602
H19   H     H_    0.236812 0.837791 0.799125 0.341581
O32   O     O_3   0.814184 0.969801 0.302597 -0.694161
H20   H     H_    0.816273 0.005754 0.239922 0.343293
O33   O     O_3   0.733963 0.239455 0.884209 -0.710623
H21   H     H_    0.792721 0.245546 0.842948 0.344251
O34   O     O_3   0.275991 0.783301 0.057867 -0.705127
H22   H     H_    0.212286 0.784543 0.083841 0.344015
O35   O     O_3   0.925141 0.728203 0.211848 -0.706669
H23   H     H_    0.902786 0.793787 0.201642 0.339365
O36   O     O_3   0.997889 0.292806 0.804076 -0.698924
H24   H     H_    0.033450 0.230511 0.803784 0.341276

loop_
_geom_bond_atom_site_label_1
_geom_bond_atom_site_label_2
_ccdc_geom_bond_type
C68   C80   A    
Cu4   O9    S    
C83   C87   A    
O35   H23   S    
C9    C45   A    
O32   H20   S    
C18   C96   A    
O34   H22   S    
C6    C58   A    
C11   C47   A    
O31   H19   S    
C1    C31   A    
C12   C48   A    
Cu1   O24   S    
O30   H18   S    
C92   C98   A    
C3    C33   A    
O36   H24   S    
C78   C90   A    
C77   C89   A    
O28   H16   S    
Cu2   O14   S    
Cu4   O21   S    
C57   H9    S    
C25   O19   A    
C78   C94   A    
Cu5   O8    S    
C66   Br6   S    
C26   O20   A    
C24   O8    A    
C19   C47   S    
C58   C71   A    
Cu2   O2    S    
C52   H4    S    
C29   O23   A    
C5    C35   A    
C50   H2    S    
C30   O24   A    
Cu3   O3    S    
C2    C32   A    
C26   O6    A    
C88   O29   S    
C74   C92   A    
Cu5   O20   S    
C58   H10   S    
C25   O5    A    
C80   C86   A    
C16   C34   A    
C54   H6    S    
Cu6   O7    S    
C30   O2    A    
C27   C39   S    
Cu2   O11   S    
C29   O1    A    
C10   C46   A    
C9    C36   A    
C59   H11   S    
Cu5   Cu6   S    
C10   C35   A    
C17   C95   A    
C7    C43   A    
Cu1   O12   S    
C76   C88   A    
C71   C83   A    
C1    C37   A    
Cu3   O15   S    
C81   C89   A    
Cu4   O16   S    
C3    C39   A    
C57   C72   A    
C13   C91   A    
C65   Br5   S    
C20   O12   A    
C10   C54   A    
C63   Br3   S    
C12   C52   A    
O33   H21   S    
C53   H5    S    
C55   C68   A    
C21   C45   S    
C19   O11   A    
C4    C34   A    
O27   H15   S    
C21   O15   A    
C75   C95   A    
C4    C40   A    
C67   C79   A    
C73   C91   A    
C46   C65   A    
C50   C73   A    
C93   C101  A    
Cu3   O22   S    
C27   O3    A    
C48   C63   A    
C41   C65   A    
C24   O18   A    
C71   C99   A    
C79   O32   S    
C22   O16   A    
C45   C66   A    
C81   O36   S    
Cu5   O17   S    
Cu5   O5    S    
C8    C44   A    
C80   O31   S    
C2    C38   A    
O29   H17   S    
C61   Br1   S    
O25   H13   S    
C21   O9    A    
C4    C60   A    
C28   O4    A    
C56   H8    S    
Cu2   O23   S    
C90   O27   S    
C85   O26   S    
C91   C97   A    
C7    C49   A    
C72   C84   A    
C69   C81   A    
C19   O13   A    
C75   C87   A    
C22   C46   S    
C14   C92   A    
C62   Br2   S    
C24   C44   S    
C53   C76   A    
C9    C53   A    
C18   C99   A    
C25   C41   S    
C52   C77   A    
Cu1   O1    S    
C8    C50   A    
C79   C85   A    
C26   C42   S    
C14   C97   A    
C49   H1    S    
C72   C100  A    
C5    C41   A    
C82   O35   S    
C64   Br4   S    
C51   H3    S    
C7    C32   A    
C20   C48   S    
C87   O30   S    
C8    C31   A    
C23   O17   A    
C11   C34   A    
C84   C88   A    
C14   C32   A    
C40   C64   A    
C15   C93   A    
Cu6   O19   S    
C37   C61   A    
C47   C64   A    
C89   O28   S    
Cu3   O10   S    
C69   C101  A    
C44   C61   A    
C74   C86   A    
C56   C67   A    
C39   C63   A    
Cu3   Cu4   S    
C96   C100  A    
C23   O7    A    
C16   C94   A    
C82   C90   A    
C5    C57   A    
C20   O14   A    
C1    C55   A    
C51   C78   A    
C73   C85   A    
C84   O33   S    
C2    C56   A    
C86   O25   S    
C76   C96   A    
Cu6   O18   S    
C13   C31   A    
C70   C102  A    
C13   C98   A    
C55   H7    S    
C60   C69   A    
C12   C33   A    
C83   O34   S    
C77   C93   A    
C27   O21   A    
C6    C36   A    
C60   H12   S    
C95   C99   A    
C15   C102  A    
Cu1   O13   S    
C70   C82   A    
C17   C100  A    
C68   C98   A    
C11   C51   A    
C67   C97   A    
C59   C70   A    
C54   C75   A    
C16   C101  A    
C28   O22   A    
C94   C102  A    
C6    C42   A    
C29   C37   S    
Cu1   Cu2   S    
C42   C66   A    
Cu4   O4    S    
C28   C40   S    
C49   C74   A    
C17   C35   A    
C30   C38   S    
Cu6   O6    S    
O26   H14   S    
C23   C43   S    
C18   C36   A    
C15   C33   A    
C22   O10   A    
C43   C62   A    
C38   C62   A    
C3    C59   A    
