data_mof_unit_48281.cif
_audit_creation_date              2012-12-10T18:53:05-0500
_audit_creation_method            fapswitch 2.2
_symmetry_space_group_name_H-M    P1
_symmetry_Int_Tables_number       1
_space_group_crystal_system       triclinic
_cell_length_a                    9.818797
_cell_length_b                    10.702327
_cell_length_c                    16.446914
_cell_angle_alpha                 90.272251
_cell_angle_beta                  85.773472
_cell_angle_gamma                 90.071376
_cell_volume                      1723.58676826

loop_
_atom_site_label
_atom_site_type_symbol
_atom_type_description
_atom_site_fract_x
_atom_site_fract_y
_atom_site_fract_z
_atom_type_partial_charge
C1    C     C_R   0.500137 0.740173 0.499779 0.868030
C2    C     C_R   0.065606 0.575191 0.552513 -0.071520
C3    C     C_R   0.078411 0.424572 0.447680 -0.067304
C4    C     C_R   0.921582 0.575244 0.552438 -0.081509
C5    C     C_R   0.482317 0.496490 0.654683 0.864893
C6    C     C_R   0.518244 0.500579 0.346056 0.859984
C7    C     C_R   0.472206 0.459013 0.741094 -0.096962
C8    C     C_R   0.528294 0.476030 0.259042 -0.057034
C9    C     C_R   0.581326 0.395161 0.775597 0.045394
C10   C     C_R   0.457000 0.547564 0.203716 0.013106
C11   C     C_R   0.547070 0.309114 0.838774 -0.041567
C12   C     C_R   0.499927 0.259826 0.499838 0.873033
C13   C     C_R   0.456676 0.504937 0.121931 0.007161
C14   C     C_R   0.425903 0.330969 0.888380 0.108873
C15   C     C_R   0.528547 0.394172 0.098356 0.045345
C16   C     C_R   0.322203 0.403187 0.858700 -0.161321
C17   C     C_R   0.604001 0.330282 0.153070 -0.163928
C18   C     C_R   0.342655 0.460531 0.783291 -0.213640
C19   C     C_R   0.603065 0.370277 0.232934 -0.228121
C20   C     C_2   0.423632 0.318003 0.977435 -0.103660
C21   C     C_2   0.536153 0.348648 0.014583 -0.132268
C22   C     C_3   0.731002 0.429166 0.753814 -0.357931
C23   C     C_R   0.616467 0.936331 0.521049 -0.181012
C24   C     C_3   0.809382 0.458481 0.829384 -0.346716
C25   C     C_3   0.953811 0.504424 0.804864 -0.881665
C26   C     C_3   0.393810 0.673117 0.229708 -0.433301
C27   C     C_3   0.486500 0.781599 0.199724 -0.341634
C28   C     C_3   0.426675 0.907449 0.227936 -0.850599
C29   C     C_2   0.387231 0.577134 0.060067 0.867887
C30   C     C_2   0.632356 0.196232 0.852325 0.863383
C31   C     C_R   0.384017 0.063682 0.477577 -0.188778
C32   C     C_R   0.616311 0.064306 0.521172 -0.180584
C33   C     C_R   0.384102 0.935674 0.477578 -0.209410
C34   C     C_R   0.500028 0.127445 0.499538 -0.018953
C35   C     C_R   0.500281 0.872551 0.499393 -0.015469
C36   C     C_R   0.934359 0.424512 0.447678 -0.065356
H1    H     H_    0.657832 0.315920 0.275424 0.149636
H2    H     H_    0.294302 0.886446 0.459912 0.158192
H3    H     H_    0.884700 0.364237 0.405900 0.125481
H4    H     H_    0.115204 0.635221 0.594456 0.128953
H5    H     H_    0.138266 0.364327 0.405908 0.127796
H6    H     H_    0.861775 0.635480 0.594229 0.122111
H7    H     H_    0.011693 0.431434 0.768690 0.270288
H8    H     H_    0.950779 0.591099 0.768143 0.254152
H9    H     H_    0.007588 0.525194 0.860429 0.258672
H10   H     H_    0.754204 0.531992 0.866725 0.243139
H11   H     H_    0.817858 0.374603 0.867882 0.235569
H12   H     H_    0.258591 0.510251 0.759213 0.164123
H13   H     H_    0.782596 0.354058 0.716355 0.243119
H14   H     H_    0.738769 0.516683 0.718408 0.217336
H15   H     H_    0.324839 0.921076 0.204078 0.270519
H16   H     H_    0.416494 0.912506 0.295569 0.258098
H17   H     H_    0.495384 0.983915 0.204801 0.255207
H18   H     H_    0.588569 0.770813 0.223996 0.225446
H19   H     H_    0.500260 0.781148 0.132104 0.248528
H20   H     H_    0.290897 0.682909 0.206958 0.246094
H21   H     H_    0.376895 0.681518 0.296810 0.210462
H22   H     H_    0.402865 0.662109 0.950536 0.350517
H23   H     H_    0.634774 0.357995 0.980863 0.146257
H24   H     H_    0.660340 0.041255 0.918727 0.350691
H25   H     H_    0.325607 0.315267 0.012803 0.140892
H26   H     H_    0.227461 0.419099 0.895300 0.153561
H27   H     H_    0.661568 0.247418 0.134169 0.158879
H28   H     H_    0.706395 0.887664 0.538618 0.155552
H29   H     H_    0.294163 0.112392 0.459942 0.154644
H30   H     H_    0.706145 0.113482 0.538839 0.163252
N1    N     N_R   0.142790 0.500030 0.500020 -0.078600
N2    N     N_R   0.857210 0.499970 0.499980 -0.077863
O1    O     O_R   0.385380 0.683250 0.500010 -0.626150
O2    O     O_R   0.461397 0.615828 0.988759 -0.809780
O3    O     O_2   0.729512 0.169789 0.804590 -0.640247
O4    O     O_R   0.596160 0.115160 0.916850 -0.797782
O5    O     O_R   0.614620 0.316750 0.499990 -0.626749
O6    O     O_R   0.614710 0.683220 0.500000 -0.620668
O7    O     O_R   0.385290 0.316780 0.500000 -0.618386
O8    O     O_R   0.371780 0.500040 0.615800 -0.605457
O9    O     O_R   0.628220 0.499960 0.384200 -0.608271
O10   O     O_R   0.601110 0.500010 0.615800 -0.628301
O11   O     O_R   0.398890 0.499990 0.384200 -0.617785
O12   O     O_2   0.265227 0.599968 0.070443 -0.645654
Zn1   Zn    Zn3+2 0.346870 0.500020 0.500000 0.946555
Zn2   Zn    Zn3+2 0.653130 0.499980 0.500000 0.941125

loop_
_geom_bond_atom_site_label_1
_geom_bond_atom_site_label_2
_ccdc_geom_bond_type
C25   H7    S    
C30   O3    D    
C27   H18   S    
C26   C27   S    
C1    O6    A    
C3    C36   A    
C13   C29   S    
C21   H23   S    
C28   H15   S    
C27   H19   S    
C9    C22   S    
H24   O4    S    
C15   C17   A    
C20   H25   S    
C19   H1    S    
C17   C19   A    
C11   C30   S    
C31   C33   A    
C22   H14   S    
C10   C26   S    
C12   O5    A    
C16   H26   S    
O6    Zn2   S    
C25   H8    S    
C5    C7    S    
C3    N1    A    
C8    C19   A    
C14   C20   S    
C24   C25   S    
C2    N1    A    
C11   C14   A    
O11   Zn1   S    
C31   H29   S    
H22   O2    S    
C6    O9    A    
C6    C8    S    
C4    N2    A    
C1    O1    A    
C18   H12   S    
C32   C34   A    
C2    C4    A    
O10   Zn2   S    
C7    C18   A    
C31   C34   A    
C9    C11   A    
C22   H13   S    
C16   C18   A    
C23   H28   S    
N1    Zn1   S    
C23   C35   A    
C13   C15   A    
C14   C16   A    
C12   C34   S    
C25   H9    S    
O5    Zn2   S    
C1    C35   S    
C32   H30   S    
C29   O2    S    
C7    C9    A    
C3    H5    S    
C24   H11   S    
C36   H3    S    
O7    Zn1   S    
C10   C13   A    
C26   H20   S    
O8    Zn1   S    
C30   O4    S    
C28   H17   S    
C36   N2    A    
C33   H2    S    
C24   H10   S    
C23   C32   A    
C5    O8    A    
N2    Zn2   S    
C17   H27   S    
C28   H16   S    
C6    O11   A    
C29   O12   D    
C4    H6    S    
O9    Zn2   S    
C33   C35   A    
C22   C24   S    
C26   H21   S    
O1    Zn1   S    
C2    H4    S    
C15   C21   S    
C20   C21   D    
C8    C10   A    
C12   O7    A    
C27   C28   S    
C5    O10   A    
