data_mof_unit_23616.cif
_audit_creation_date              2013-03-05T15:42:54-0500
_audit_creation_method            fapswitch 2.2
_symmetry_space_group_name_H-M    P1
_symmetry_Int_Tables_number       1
_space_group_crystal_system       triclinic
_cell_length_a                    15.081113
_cell_length_b                    10.911049
_cell_length_c                    9.67897
_cell_angle_alpha                 89.796047
_cell_angle_beta                  89.834071
_cell_angle_gamma                 90.1515
_cell_volume                      1592.65951719

loop_
_atom_site_label
_atom_site_type_symbol
_atom_site_description
_atom_site_fract_x
_atom_site_fract_y
_atom_site_fract_z
_atom_type_partial_charge
O1    O     O_R   0.500020 0.321960 0.617040 -0.591699
O2    O     O_R   0.499980 0.321920 0.382900 -0.523602
C1    C     C_R   0.495963 0.265129 0.500128 0.900391
O3    O     O_R   0.370270 0.499990 0.617090 -0.532536
O4    O     O_R   0.370240 0.499950 0.382940 -0.586432
C2    C     C_R   0.328657 0.497276 0.500313 0.825188
Cu1   Cu    Cu3+1 0.500020 0.500020 0.638630 0.968260
Cu2   Cu    Cu3+1 0.499980 0.499980 0.361370 0.986079
O5    O     O_R   0.500020 0.678080 0.617100 -0.590885
O6    O     O_R   0.499980 0.678040 0.382960 -0.528664
O7    O     O_R   0.629760 0.500050 0.617060 -0.583436
O8    O     O_R   0.629730 0.500010 0.382910 -0.586221
C3    C     C_R   0.499070 0.734765 0.499595 0.915053
C4    C     C_R   0.671322 0.499490 0.499817 0.805716
C5    C     C_R   0.815266 0.530624 0.381317 -0.215268
C6    C     C_R   0.768024 0.495739 0.499671 -0.090965
C7    C     C_R   0.813004 0.456125 0.618029 -0.182118
C8    C     C_R   0.905622 0.448214 0.618964 -0.014425
C9    C     C_R   0.953123 0.487480 0.500293 0.044936
C10   C     C_R   0.907548 0.528541 0.381360 0.122261
C11   C     C_R   0.952136 0.405287 0.736274 0.314139
C12   C     C_R   0.044828 0.405704 0.734894 -0.242343
C13   C     C_R   0.092375 0.445248 0.618076 -0.059971
C14   C     C_R   0.046248 0.486814 0.500396 -0.002072
C15   C     C_R   0.093146 0.528273 0.382630 0.111101
C16   C     C_R   0.047147 0.568100 0.265311 -0.162226
C17   C     C_R   0.954871 0.567828 0.264516 -0.144931
C18   C     C_R   0.185492 0.442576 0.616339 0.472281
C19   C     C_R   0.231796 0.490431 0.500973 -0.169161
C20   C     C_R   0.185382 0.530857 0.384383 -0.318162
H1    H     H_    0.780247 0.561883 0.290072 0.158643
H2    H     H_    0.775022 0.431801 0.709021 0.205991
H3    H     H_    0.079590 0.372840 0.825500 0.219702
H4    H     H_    0.221158 0.565898 0.295146 0.182003
H5    H     H_    0.082567 0.599804 0.174305 0.151190
H6    H     H_    0.920472 0.599341 0.172911 0.164236
C21   C     C_2   0.458909 0.931619 0.398824 0.411033
C22   C     C_2   0.500970 0.867219 0.497672 -0.479299
H7    H     H_    0.540159 0.911167 0.577196 0.118342
C23   C     C_2   0.472073 0.065724 0.387566 0.415981
C24   C     C_2   0.484222 0.132945 0.502537 -0.496137
H8    H     H_    0.482355 0.090710 0.604153 0.121023
C25   C     C_2   0.452154 0.424905 0.922607 -0.034710
N1    N     N_2   0.499020 0.498660 0.846910 -0.280323
H9    H     H_    0.411347 0.356903 0.871617 0.168511
H10   H     H_    0.535645 0.566151 0.893551 0.196234
C26   C     C_2   0.449585 0.428121 0.078373 -0.041550
N2    N     N_2   0.499000 0.498630 0.153040 -0.279607
H11   H     H_    0.403892 0.366216 0.130290 0.179705
H12   H     H_    0.544847 0.554291 0.105566 0.196314
O9    O     O_3   0.461531 0.122437 0.260086 -0.560236
C27   C     C_3   0.532125 0.088370 0.172579 -0.226781
H13   H     H_    0.527751 0.990091 0.143499 0.183886
H14   H     H_    0.597611 0.108618 0.220448 0.155393
H15   H     H_    0.527782 0.143089 0.076015 0.174232
N3    N     N_R   0.906933 0.358388 0.856324 0.112616
O10   O     O_R   0.847798 0.272147 0.843344 -0.368606
O11   O     O_R   0.936581 0.384071 0.979023 -0.374696
O12   O     O_3   0.231044 0.395488 0.728600 -0.572790
C28   C     C_3   0.246986 0.269898 0.704594 -0.326122
H16   H     H_    0.280637 0.230673 0.796322 0.183931
H17   H     H_    0.291478 0.256454 0.613982 0.150475
H18   H     H_    0.184037 0.218030 0.690106 0.164752
O13   O     O_3   0.410678 0.871339 0.297724 -0.546101
C29   C     C_3   0.319954 0.896571 0.317729 -0.268620
H19   H     H_    0.305136 0.995060 0.299134 0.180434
H20   H     H_    0.297535 0.868460 0.422959 0.137369
H21   H     H_    0.281137 0.842450 0.242120 0.183293

loop_
_geom_bond_atom_site_label_1
_geom_bond_atom_site_label_2
_geom_bond_distance
_ccdc_geom_bond_type
O1    C1    1.293806 A    
O4    Cu2   1.967128 S    
C13   C14   1.410516 A    
Cu2   N2    2.016623 S    
C14   C15   1.412122 A    
C5    H1    1.084770 S    
C21   C22   1.346320 D    
C10   C17   1.400843 A    
C17   H6    1.083938 S    
C11   N3    1.437380 S    
C23   O9    1.388110 S    
C24   H8    1.084915 S    
C26   N2    1.293668 D    
C27   H15   1.109453 S    
O8    C4    1.295362 A    
Cu2   O8    1.968449 S    
C29   H21   1.109361 S    
O13   C29   1.409309 S    
C2    C19   1.462475 S    
C9    C10   1.414500 A    
N2    H12   1.025672 S    
C9    C14   1.404468 A    
C16   C17   1.391664 A    
O12   C28   1.411822 S    
C26   H11   1.084770 S    
O1    Cu1   1.954767 S    
C11   C12   1.397925 A    
N3    O10   1.301398 A    
C28   H17   1.113079 S    
Cu1   O7    1.967130 S    
C25   H9    1.083880 S    
C3    C22   1.445473 S    
C19   C20   1.400220 A    
C28   H18   1.113423 S    
O4    C2    1.296258 A    
O3    C2    1.294793 A    
C23   C24   1.347640 D    
C27   H14   1.114038 S    
C7    C8    1.399718 A    
C21   C23   1.479708 S    
O2    C1    1.292074 A    
O3    Cu1   1.968448 S    
C25   N1    1.293741 D    
C5    C10   1.391962 A    
C7    H2    1.081114 S    
O7    C4    1.294842 A    
C4    C6    1.459042 S    
C1    C24   1.452727 S    
C29   H19   1.112316 S    
C20   H4    1.084969 S    
O9    C27   1.410003 S    
C8    C11   1.415363 A    
C16   H5    1.083986 S    
Cu1   Cu2   2.683596 S    
C21   O13   1.387580 S    
C22   H7    1.084182 S    
C27   H13   1.111461 S    
Cu2   O6    1.954767 S    
C8    C9    1.416390 A    
C18   O12   1.385190 S    
C15   C20   1.391396 A    
Cu1   O5    1.953227 S    
C12   H3    1.083478 S    
O5    C3    1.292819 A    
C12   C13   1.403193 A    
C18   C19   1.412992 A    
N1    H10   1.026069 S    
Cu1   N1    2.015949 S    
C15   C16   1.400760 A    
C13   C18   1.404750 A    
C25   C26   1.508573 S    
O2    Cu2   1.953227 S    
C5    C6    1.398383 A    
C6    C7    1.400677 A    
N3    O11   1.301390 A    
C28   H16   1.109067 S    
C29   H20   1.114004 S    
O6    C3    1.289433 A    
