data_mof_unit_51095.cif
_audit_creation_date              2012-12-10T16:57:07-0500
_audit_creation_method            fapswitch 2.2
_symmetry_space_group_name_H-M    P1
_symmetry_Int_Tables_number       1
_space_group_crystal_system       triclinic
_cell_length_a                    7.768037
_cell_length_b                    8.57761
_cell_length_c                    16.62298
_cell_angle_alpha                 91.883623
_cell_angle_beta                  80.300672
_cell_angle_gamma                 93.807159
_cell_volume                      1089.10207821

loop_
_atom_site_label
_atom_site_type_symbol
_atom_type_description
_atom_site_fract_x
_atom_site_fract_y
_atom_site_fract_z
_atom_type_partial_charge
C1    C     C_R   0.546268 0.794852 0.497964 0.963314
C2    C     C_R   0.453720 0.205154 0.502126 0.965067
C3    C     C_2   0.570633 0.958329 0.496857 -0.379256
C4    C     C_2   0.429338 0.041673 0.503374 -0.382022
C5    C     C_R   0.478240 0.509732 0.654355 0.862317
C6    C     C_R   0.523328 0.498214 0.345219 0.865867
C7    C     C_R   0.474629 0.565323 0.738086 -0.047691
C8    C     C_R   0.542864 0.515554 0.257128 -0.053850
C9    C     C_R   0.615248 0.665514 0.754802 -0.226850
C10   C     C_R   0.707989 0.567078 0.214595 -0.233753
C11   C     C_R   0.613473 0.731114 0.832055 -0.138557
C12   C     C_R   0.729073 0.601332 0.132576 -0.199502
C13   C     C_R   0.472688 0.694434 0.893774 0.132855
C14   C     C_R   0.585277 0.585164 0.092433 0.153976
C15   C     C_R   0.327179 0.602011 0.876774 -0.214143
C16   C     C_R   0.422008 0.526931 0.133030 -0.179799
C17   C     C_R   0.326396 0.536841 0.798623 0.104430
C18   C     C_R   0.398792 0.491859 0.215631 0.100177
C19   C     C_2   0.497172 0.712463 0.978648 0.040309
C20   C     C_2   0.606159 0.617805 0.005689 0.057902
H1    H     H_    0.727171 0.693062 0.707969 0.154403
H2    H     H_    0.820345 0.585694 0.245286 0.172742
H3    H     H_    0.703980 0.009563 0.490658 0.179391
H4    H     H_    0.295989 0.990435 0.509589 0.179980
N1    N     N_2   0.953500 0.457650 0.478520 -0.167793
N2    N     N_2   0.046500 0.542350 0.521480 -0.166579
O1    O     O_R   0.388470 0.738640 0.505270 -0.611566
O2    O     O_R   0.611530 0.261360 0.494730 -0.609456
O3    O     O_R   0.679650 0.711510 0.491500 -0.631858
O4    O     O_R   0.320350 0.288490 0.508500 -0.629256
O5    O     O_R   0.337210 0.515200 0.623500 -0.589174
O6    O     O_R   0.662790 0.484800 0.376500 -0.622958
O7    O     O_R   0.628380 0.488060 0.609730 -0.626904
O8    O     O_R   0.371620 0.511940 0.390270 -0.595942
Zn1   Zn    Zn3+2 0.305580 0.518120 0.509190 0.958058
Zn2   Zn    Zn3+2 0.694420 0.481880 0.490810 0.940711
N3    N     N_3   0.231011 0.431896 0.257009 -0.440802
H5    H     H_    0.243497 0.315704 0.271071 0.171761
H6    H     H_    0.137545 0.430135 0.218415 0.171482
N4    N     N_3   0.180109 0.437302 0.781407 -0.435879
H7    H     H_    0.221788 0.323675 0.772423 0.170638
H8    H     H_    0.079009 0.434575 0.831689 0.179938
N5    N     N_3   0.724174 0.527894 0.949285 -0.461227
H9    H     H_    0.851167 0.554076 0.960808 0.162802
H10   H     H_    0.692460 0.409405 0.960677 0.183470
N6    N     N_3   0.385334 0.808849 0.034167 -0.461697
H11   H     H_    0.404801 0.922969 0.012797 0.183088
H12   H     H_    0.255252 0.771505 0.032157 0.167658
H13   H     H_    0.220500 0.571422 0.925692 0.111567
H14   H     H_    0.313245 0.508076 0.099932 0.121938
H15   H     H_    0.856375 0.643413 0.101010 0.128859
H16   H     H_    0.727187 0.800825 0.845418 0.140209
H17   H     H_    0.023029 0.380143 0.439289 0.194794
H18   H     H_    0.976970 0.619866 0.560706 0.186814

loop_
_geom_bond_atom_site_label_1
_geom_bond_atom_site_label_2
_ccdc_geom_bond_type
C16   H14   S    
C7    C17   A    
C2    C4    S    
N5    H9    S    
O6    Zn2   S    
O7    Zn2   S    
N3    H5    S    
C14   C20   S    
C11   C13   A    
C3    H3    S    
C19   C20   D    
C2    O4    A    
C20   N5    S    
C13   C15   A    
C19   N6    S    
N3    H6    S    
C16   C18   A    
C10   H2    S    
C15   H13   S    
N5    H10   S    
O3    Zn2   S    
C9    H1    S    
C1    O3    A    
C10   C12   A    
O4    Zn1   S    
N2    H18   S    
N4    H8    S    
N4    H7    S    
C18   N3    S    
C12   C14   A    
C14   C16   A    
C9    C11   A    
C4    H4    S    
O5    Zn1   S    
C5    O5    A    
C2    O2    A    
C13   C19   S    
N1    Zn2   S    
C3    C4    D    
N6    H12   S    
C7    C9    A    
N2    Zn1   S    
C12   H15   S    
O2    Zn2   S    
C1    O1    A    
O8    Zn1   S    
C5    C7    S    
N6    H11   S    
C6    O6    A    
C6    C8    S    
C11   H16   S    
O1    Zn1   S    
N1    N2    D    
C15   C17   A    
C8    C10   A    
C8    C18   A    
C6    O8    A    
N1    H17   S    
C1    C3    S    
C17   N4    S    
C5    O7    A    
