data_mof_unit_28561.cif
_audit_creation_date              2013-03-05T15:42:40-0500
_audit_creation_method            fapswitch 2.2
_symmetry_space_group_name_H-M    P1
_symmetry_Int_Tables_number       1
_space_group_crystal_system       triclinic
_cell_length_a                    7.737534
_cell_length_b                    8.547056
_cell_length_c                    27.62942
_cell_angle_alpha                 90.792295
_cell_angle_beta                  86.475014
_cell_angle_gamma                 93.772497
_cell_volume                      1819.72367047

loop_
_atom_site_label
_atom_site_type_symbol
_atom_site_description
_atom_site_fract_x
_atom_site_fract_y
_atom_site_fract_z
_atom_type_partial_charge
O1    O     O_R   0.389250 0.738570 0.503220 -0.611089
O2    O     O_R   0.610750 0.261430 0.496780 -0.611269
O3    O     O_R   0.678390 0.711630 0.494810 -0.629041
O4    O     O_R   0.321610 0.288370 0.505190 -0.628887
C1    C     C_R   0.545957 0.794842 0.498732 0.974918
C2    C     C_R   0.454044 0.205158 0.501270 0.975527
O5    O     O_R   0.355440 0.513440 0.575450 -0.616728
O6    O     O_R   0.644560 0.486560 0.424550 -0.616247
O7    O     O_R   0.644590 0.486500 0.567040 -0.631800
O8    O     O_R   0.355410 0.513500 0.432960 -0.628040
C3    C     C_R   0.503328 0.498187 0.593982 0.883758
C4    C     C_R   0.497024 0.501366 0.406030 0.888843
Zn1   Zn    Zn3+2 0.306940 0.517990 0.505620 0.958730
Zn2   Zn    Zn3+2 0.693060 0.482010 0.494380 0.958828
C5    C     C_R   0.642958 0.586540 0.818880 0.624521
C6    C     C_R   0.455989 0.370613 0.178737 0.602319
O9    O     O_2   0.693488 0.714020 0.792152 -0.443728
O10   O     O_2   0.413326 0.243743 0.206454 -0.459491
N1    N     N_R   0.562441 0.460494 0.797009 -0.356186
N2    N     N_R   0.494481 0.511219 0.200753 -0.355639
C7    C     C_R   0.511462 0.325770 0.821135 0.612286
C8    C     C_R   0.553211 0.641138 0.175141 0.603187
C9    C     C_R   0.676734 0.429044 0.714640 -0.065300
C10   C     C_R   0.643955 0.540721 0.275099 -0.057408
C11   C     C_R   0.664789 0.439796 0.665154 -0.181895
C12   C     C_R   0.646755 0.534889 0.325016 -0.145644
C13   C     C_R   0.372660 0.525944 0.678114 -0.244576
C14   C     C_R   0.333194 0.490478 0.331214 -0.250636
C15   C     C_R   0.383230 0.517347 0.728582 -0.008483
C16   C     C_R   0.328728 0.496468 0.280629 0.029927
C17   C     C_R   0.538504 0.467755 0.746382 0.222425
C18   C     C_R   0.487189 0.519630 0.252574 0.204583
C19   C     C_R   0.598873 0.452026 0.895705 -0.125518
C20   C     C_R   0.538047 0.488307 0.100642 -0.134400
C21   C     C_R   0.667219 0.584584 0.868773 -0.092240
C22   C     C_R   0.464919 0.358166 0.127932 -0.079896
C23   C     C_R   0.755008 0.709821 0.892924 0.339489
C24   C     C_R   0.404118 0.221213 0.103500 0.367851
C25   C     C_R   0.528879 0.317174 0.871372 -0.081491
C26   C     C_R   0.585585 0.631446 0.124599 -0.093857
C27   C     C_R   0.513070 0.488507 0.646502 -0.064553
C28   C     C_R   0.491815 0.508327 0.353379 -0.077577
H1    H     H_    0.255911 0.563557 0.663313 0.196325
H2    H     H_    0.213153 0.471747 0.353320 0.185609
C29   C     C_R   0.640179 0.604338 0.022377 0.028965
C30   C     C_R   0.528467 0.323823 0.974022 0.027789
C31   C     C_R   0.508608 0.334418 0.025408 0.029791
C32   C     C_R   0.663576 0.591965 0.971182 0.029532
C33   C     C_R   0.563092 0.475387 0.049375 0.085665
C34   C     C_R   0.597628 0.455626 0.947105 0.085702
C35   C     C_R   0.685081 0.744875 0.047233 -0.255392
C36   C     C_R   0.481779 0.184903 0.948473 -0.255675
C37   C     C_R   0.662202 0.758884 0.097162 0.352891
C38   C     C_R   0.478306 0.180707 0.898331 0.358158
O11   O     O_2   0.578992 0.778183 0.199129 -0.445581
O12   O     O_2   0.440241 0.203766 0.796256 -0.467529
C39   C     C_R   0.753081 0.711482 0.943102 -0.245685
C40   C     C_R   0.425657 0.211443 0.053429 -0.248717
H3    H     H_    0.770477 0.551075 0.341357 0.184795
H4    H     H_    0.774620 0.409145 0.641526 0.169550
H5    H     H_    0.764631 0.559340 0.253478 0.168840
H6    H     H_    0.794907 0.391661 0.728662 0.171242
H7    H     H_    0.735527 0.849639 0.028754 0.171314
H8    H     H_    0.447119 0.075360 0.966388 0.170511
H9    H     H_    0.826327 0.808214 0.959061 0.175610
H10   H     H_    0.369486 0.106027 0.037493 0.172233
C41   C     C_2   0.570211 0.958399 0.498002 -0.365313
C42   C     C_2   0.429792 0.041603 0.502005 -0.365070
H11   H     H_    0.702715 0.009747 0.494183 0.182052
H12   H     H_    0.297288 0.990255 0.505825 0.181863
N3    N     N_2   0.950320 0.457960 0.486880 -0.174332
N4    N     N_2   0.049680 0.542040 0.513120 -0.174787
H13   H     H_    0.013845 0.383300 0.463425 0.196938
H14   H     H_    0.986156 0.616714 0.536570 0.196520
C43   C     C_2   0.232786 0.561995 0.761235 0.975560
O13   O     O_2   0.102268 0.604857 0.743851 -0.605986
O14   O     O_R   0.238398 0.556086 0.811656 -0.782384
H15   H     H_    0.127610 0.588757 0.829363 0.370917
C44   C     C_2   0.159238 0.477610 0.258002 0.952280
O15   O     O_2   0.035679 0.406552 0.279368 -0.631919
O16   O     O_R   0.139857 0.541292 0.212431 -0.777057
H16   H     H_    0.019808 0.516984 0.200399 0.347928
Br1   Br    Br    0.887853 0.882814 0.861440 -0.341317
Br2   Br    Br    0.274108 0.044715 0.134045 -0.304845
Br3   Br    Br    0.750712 0.956527 0.123553 -0.350479
Br4   Br    Br    0.403056 0.980283 0.871103 -0.332091

loop_
_geom_bond_atom_site_label_1
_geom_bond_atom_site_label_2
_geom_bond_distance
_ccdc_geom_bond_type
C10   H5    1.080987 S    
C13   C15   1.405020 A    
Zn2   N3    2.012326 S    
C43   O13   1.223918 D    
N1    C17   1.424967 S    
O16   H16   1.013499 S    
C32   C39   1.409886 A    
C31   C33   1.418935 A    
O14   H15   1.014061 S    
C5    N1    1.361569 A    
C19   C25   1.419494 A    
O1    C1    1.274104 A    
C6    N2    1.363050 A    
N1    C7    1.361978 A    
C10   C12   1.382321 A    
C25   C38   1.412985 A    
C29   C35   1.409538 A    
C30   C36   1.410800 A    
C14   C28   1.403517 A    
O4    Zn1   1.973127 S    
C4    C28   1.459887 S    
C24   C40   1.385229 A    
C40   H10   1.074990 S    
C9    H6    1.083367 S    
C11   H4    1.083230 S    
C12   H3    1.083239 S    
C1    C41   1.398430 S    
C2    C42   1.398423 S    
O2    C2    1.274100 A    
C38   Br4   1.930395 S    
C5    C21   1.403112 A    
C36   C38   1.387212 A    
C41   C42   1.335351 D    
C35   H7    1.075632 S    
N4    H14   1.029280 S    
C36   H8    1.075634 S    
C11   C27   1.400598 A    
C44   O16   1.398912 S    
C19   C34   1.419503 A    
C14   H2    1.083878 S    
C35   C37   1.384514 A    
C9    C17   1.394923 A    
O5    C3    1.296948 A    
O7    Zn2   2.019794 S    
C10   C18   1.397171 A    
C43   O14   1.398158 S    
C13   C27   1.402461 A    
C7    C25   1.406169 A    
C29   C33   1.417203 A    
O6    C4    1.293697 A    
C8    C26   1.405770 A    
C6    O10   1.347606 S    
C32   C34   1.415242 A    
O7    C3    1.292689 A    
O3    Zn2   1.973127 S    
O8    C4    1.295229 A    
C16   C44   1.485566 S    
O4    C2    1.283636 A    
N2    C8    1.362382 A    
C20   C26   1.420732 A    
O1    Zn1   1.950556 S    
C12   C28   1.398748 A    
N3    H13   1.029295 S    
N2    C18   1.430418 S    
C29   C32   1.418324 A    
C21   C23   1.411644 A    
C5    O9    1.347620 S    
C30   C31   1.420916 A    
C20   C33   1.421578 A    
O6    Zn2   1.989424 S    
C24   Br2   1.931573 S    
C39   H9    1.076184 S    
O3    C1    1.283632 A    
O8    Zn1   2.019794 S    
C7    O12   1.347110 S    
C8    O11   1.347280 S    
C15   C43   1.494798 S    
Zn1   N4    2.012327 S    
C30   C34   1.415430 A    
C14   C16   1.401890 A    
N3    N4    1.270646 D    
C15   C17   1.417905 A    
C6    C22   1.404086 A    
C31   C40   1.410230 A    
C16   C18   1.413801 A    
C22   C24   1.411355 A    
C19   C21   1.418834 A    
C3    C27   1.461444 S    
C20   C22   1.419094 A    
C9    C11   1.380758 A    
O2    Zn2   1.950556 S    
C44   O15   1.222891 D    
C13   H1    1.083466 S    
O5    Zn1   1.989424 S    
C42   H12   1.087965 S    
C26   C37   1.412476 A    
C23   Br1   1.930058 S    
C37   Br3   1.931174 S    
C41   H11   1.087966 S    
C23   C39   1.385444 A    
