data_mof_unit_8315.cif
_audit_creation_date              2012-12-11T15:39:22-0500
_audit_creation_method            fapswitch 2.2
_symmetry_space_group_name_H-M    P1
_symmetry_Int_Tables_number       1
_space_group_crystal_system       triclinic
_cell_length_a                    17.441966
_cell_length_b                    24.581654
_cell_length_c                    15.10107
_cell_angle_alpha                 90.008703
_cell_angle_beta                  126.045308
_cell_angle_gamma                 90.027025
_cell_volume                      5235.06489514

loop_
_atom_site_label
_atom_site_type_symbol
_atom_type_description
_atom_site_fract_x
_atom_site_fract_y
_atom_site_fract_z
_atom_type_partial_charge
C1    C     C_R   0.348760 0.349542 0.907930 0.491353
C2    C     C_R   0.687329 0.372633 0.092134 0.429377
C3    C     C_R   0.814441 0.870465 0.907625 0.486904
C4    C     C_R   0.148454 0.848736 0.091264 0.547464
C5    C     C_R   0.376435 0.682017 0.996585 -0.121710
C6    C     C_R   0.669860 0.657243 0.004745 -0.313625
C7    C     C_R   0.871297 0.179222 0.995108 -0.235977
C8    C     C_R   0.120233 0.183047 0.003682 -0.142489
C9    C     C_R   0.467250 0.498927 0.292766 -0.281422
C10   C     C_R   0.425359 0.499499 0.630452 -0.407031
C11   C     C_R   0.062420 0.000182 0.363857 -0.293057
C12   C     C_R   0.042064 0.999631 0.717179 -0.376590
C13   C     C_R   0.174147 0.502196 0.722715 -0.098528
C14   C     C_R   0.799489 0.502268 0.369870 -0.133404
C15   C     C_R   0.699489 0.002393 0.630898 -0.135182
C16   C     C_R   0.325620 0.002313 0.276249 -0.084666
C17   C     C_R   0.028693 0.554676 0.602292 0.059327
C18   C     C_R   0.935427 0.554609 0.514426 0.065693
C19   C     C_R   0.563797 0.054723 0.486288 0.072793
C20   C     C_R   0.470824 0.054886 0.397717 0.039818
C21   C     C_R   0.071476 0.507080 0.662122 -0.028095
C22   C     C_R   0.881108 0.507389 0.484295 -0.036355
C23   C     C_R   0.618044 0.007534 0.516428 -0.033883
C24   C     C_R   0.428274 0.007376 0.337204 -0.031977
C25   C     C_R   0.012731 0.464169 0.651982 0.362309
C26   C     C_R   0.914036 0.465492 0.562915 0.372499
C27   C     C_R   0.585661 0.965855 0.437381 0.368233
C28   C     C_R   0.487206 0.964579 0.347601 0.358824
C29   C     C_3   0.952787 0.591525 0.448999 -0.383811
C30   C     C_3   0.055705 0.591698 0.545727 -0.402537
C31   C     C_3   0.443173 0.091657 0.453993 -0.384051
C32   C     C_3   0.545801 0.091377 0.551459 -0.403405
C33   C     C_R   0.223352 0.695668 0.961926 -0.303076
C34   C     C_R   0.785565 0.706551 0.999799 -0.425387
C35   C     C_R   0.736753 0.217253 0.974014 -0.263420
C36   C     C_R   0.272929 0.197706 0.037961 -0.449542
C37   C     C_R   0.690054 0.260180 0.979821 0.631490
C38   C     C_R   0.336025 0.230111 0.033859 0.677442
C39   C     C_R   0.159581 0.727162 0.965368 0.660155
C40   C     C_R   0.822355 0.755582 0.996116 0.628051
C41   C     C_R   0.730877 0.312478 0.998763 -0.065786
C42   C     C_R   0.308519 0.283181 0.995628 -0.057153
C43   C     C_R   0.185604 0.781080 0.002558 -0.133302
C44   C     C_R   0.781618 0.803796 0.001049 0.004715
C45   C     C_R   0.441735 0.651937 0.088522 0.489816
C46   C     C_R   0.587435 0.637136 0.911134 0.505464
C47   C     C_R   0.937280 0.150539 0.088136 0.486015
C48   C     C_R   0.056019 0.152599 0.911812 0.478118
C49   C     C_R   0.816761 0.321163 0.013512 -0.372483
C50   C     C_R   0.221212 0.304504 0.963990 -0.416408
C51   C     C_R   0.272656 0.802846 0.033631 -0.358806
C52   C     C_R   0.707900 0.804132 0.011862 -0.384152
C53   C     C_R   0.335148 0.771115 0.028858 0.846789
C54   C     C_R   0.671936 0.755201 0.015682 0.877727
C55   C     C_R   0.863967 0.277197 0.010290 0.860104
C56   C     C_R   0.159551 0.272436 0.969824 0.858445
C57   C     C_R   0.310416 0.717611 0.993756 -0.175790
C58   C     C_R   0.711075 0.707138 0.008947 -0.063098
C59   C     C_R   0.823104 0.225907 0.990906 -0.155396
C60   C     C_R   0.185499 0.219121 0.006077 -0.090624
C61   C     C_R   0.354905 0.513939 0.436150 -0.141717
C62   C     C_R   0.366015 0.513928 0.352663 -0.178368
C63   C     C_R   0.978285 0.022759 0.531574 -0.086997
C64   C     C_R   0.983839 0.023138 0.445135 -0.183439
C65   C     C_R   0.453183 0.498200 0.376246 0.188136
C66   C     C_R   0.431441 0.498360 0.540810 0.126040
C67   C     C_R   0.062849 0.000376 0.457819 0.156074
C68   C     C_R   0.052619 0.000492 0.630854 0.143631
C69   C     C_R   0.529217 0.482671 0.480959 -0.045897
C70   C     C_R   0.518199 0.482612 0.563542 -0.142742
C71   C     C_R   0.137053 0.977131 0.556229 -0.038184
C72   C     C_R   0.132157 0.977548 0.644441 -0.212845
C73   C     C_R   0.494946 0.454155 0.263624 0.457887
C74   C     C_R   0.444107 0.454746 0.694429 0.574743
C75   C     C_R   0.051029 0.955096 0.304410 0.546729
C76   C     C_R   0.012969 0.954333 0.744540 0.512665
C77   C     C_R   0.233288 0.546418 0.754498 -0.267356
C78   C     C_R   0.751927 0.546242 0.303771 -0.207656
C79   C     C_R   0.747173 0.046399 0.697133 -0.223523
C80   C     C_R   0.266510 0.046491 0.244736 -0.264220
C81   C     C_R   0.489909 0.544835 0.259302 0.472075
C82   C     C_R   0.445220 0.544760 0.694202 0.552929
C83   C     C_R   0.046717 0.045240 0.301696 0.487229
C84   C     C_R   0.016378 0.045066 0.748238 0.503694
C85   C     C_R   0.229065 0.455995 0.745663 0.827083
C86   C     C_R   0.753519 0.456253 0.307383 0.851466
C87   C     C_R   0.745877 0.956307 0.692894 0.863698
C88   C     C_R   0.270763 0.956033 0.253479 0.808443
C89   C     C_R   0.349791 0.650695 0.908074 0.682352
C90   C     C_R   0.679200 0.635763 0.094241 0.779945
C91   C     C_R   0.843770 0.148411 0.906303 0.741159
C92   C     C_R   0.148500 0.151174 0.092007 0.685371
C93   C     C_R   0.437277 0.349278 0.088459 0.754623
C94   C     C_R   0.596893 0.374054 0.909684 0.749711
C95   C     C_R   0.904635 0.871591 0.090031 0.734224
C96   C     C_R   0.058964 0.848473 0.910772 0.820254
C97   C     C_R   0.372929 0.319472 0.997249 -0.209973
C98   C     C_R   0.683237 0.358132 0.001095 -0.345770
C99   C     C_R   0.819634 0.853899 0.998484 -0.289572
C100  C     C_R   0.121923 0.817980 0.001545 -0.351784
H1    H     H_    0.940353 0.571520 0.375492 0.198970
H2    H     H_    0.080176 0.632202 0.585913 0.234541
H3    H     H_    0.419043 0.132244 0.414221 0.231743
H4    H     H_    0.557540 0.071131 0.624390 0.197173
H5    H     H_    0.918261 0.631842 0.433928 0.243287
H6    H     H_    0.102501 0.571874 0.527783 0.204970
H7    H     H_    0.395836 0.071676 0.470983 0.205501
H8    H     H_    0.580520 0.131718 0.567350 0.236890
H9    H     H_    0.205690 0.653587 0.935877 0.163080
H10   H     H_    0.813643 0.668335 0.994400 0.175034
H11   H     H_    0.707399 0.176595 0.960237 0.175376
H12   H     H_    0.291045 0.155743 0.064559 0.147118
H13   H     H_    0.846816 0.361602 0.028051 0.194737
H14   H     H_    0.202048 0.346333 0.936893 0.210733
H15   H     H_    0.291218 0.844854 0.059809 0.203130
H16   H     H_    0.678468 0.841941 0.016494 0.200497
H17   H     H_    0.288089 0.526169 0.419984 0.141106
H18   H     H_    0.307825 0.526176 0.270739 0.140128
H19   H     H_    0.915816 0.039364 0.521068 0.156394
H20   H     H_    0.925835 0.040223 0.367656 0.142008
H21   H     H_    0.596966 0.471299 0.498574 0.151345
H22   H     H_    0.577486 0.471097 0.645536 0.138603
H23   H     H_    0.197616 0.959248 0.564261 0.156358
H24   H     H_    0.188735 0.959813 0.721872 0.149594
H25   H     H_    0.214074 0.588347 0.750049 0.214527
H26   H     H_    0.758152 0.587632 0.331300 0.236272
H27   H     H_    0.740040 0.088020 0.670425 0.235700
H28   H     H_    0.285546 0.088472 0.248850 0.210671
N1    N     N_R   0.394180 0.396910 0.943210 -0.147436
N2    N     N_R   0.605820 0.396910 0.056790 -0.126043
N3    N     N_R   0.894180 0.896910 0.943210 -0.117318
N4    N     N_R   0.105820 0.896910 0.056790 -0.155810
N5    N     N_R   0.450950 0.603070 0.056740 -0.132038
N6    N     N_R   0.549050 0.603070 0.943260 -0.119466
N7    N     N_R   0.950950 0.103070 0.056740 -0.130650
N8    N     N_R   0.049050 0.103070 0.943260 -0.133934
N9    N     N_R   0.525650 0.471570 0.206150 -0.151068
N10   N     N_R   0.474350 0.471570 0.793850 -0.139236
N11   N     N_R   0.025650 0.971570 0.206150 -0.172554
N12   N     N_R   0.974350 0.971570 0.793850 -0.112152
N13   N     N_R   0.319480 0.528420 0.793810 -0.080366
N14   N     N_R   0.680520 0.528420 0.206190 -0.106226
N15   N     N_R   0.819480 0.028420 0.793810 -0.101619
N16   N     N_R   0.180520 0.028420 0.206190 -0.074220
N17   N     N_R   0.525640 0.528390 0.206120 -0.097240
N18   N     N_R   0.474360 0.528390 0.793880 -0.125079
N19   N     N_R   0.025640 0.028390 0.206120 -0.106628
N20   N     N_R   0.974360 0.028390 0.793880 -0.102131
N21   N     N_R   0.319490 0.471590 0.793840 -0.131896
N22   N     N_R   0.680510 0.471590 0.206160 -0.147429
N23   N     N_R   0.819490 0.971590 0.793840 -0.150387
N24   N     N_R   0.180510 0.971590 0.206160 -0.145257
N25   N     N_R   0.394130 0.603080 0.943110 -0.162777
N26   N     N_R   0.605870 0.603080 0.056890 -0.152738
N27   N     N_R   0.894130 0.103080 0.943110 -0.165687
N28   N     N_R   0.105870 0.103080 0.056890 -0.165852
N29   N     N_R   0.450990 0.396900 0.056840 -0.181491
N30   N     N_R   0.549010 0.396900 0.943160 -0.153377
N31   N     N_R   0.950990 0.896900 0.056840 -0.165545
N32   N     N_R   0.049010 0.896900 0.943160 -0.172833
Ni1   Ni    Ni4+2 0.434860 0.434850 0.869700 0.303008
Ni2   Ni    Ni4+2 0.565140 0.434850 0.130300 0.272474
Ni3   Ni    Ni4+2 0.934860 0.934850 0.869700 0.334848
Ni4   Ni    Ni4+2 0.065140 0.934850 0.130300 0.241578
Ni5   Ni    Ni4+2 0.565130 0.565140 0.130240 0.279811
Ni6   Ni    Ni4+2 0.434870 0.565140 0.869760 0.297833
Ni7   Ni    Ni4+2 0.065130 0.065140 0.130240 0.291336
Ni8   Ni    Ni4+2 0.934870 0.065140 0.869760 0.275514
O1    O     O_3   0.311837 0.328825 0.805517 -0.610332
H29   H     H_    0.291854 0.290785 0.803452 0.339296
O2    O     O_3   0.752147 0.355265 0.197851 -0.645319
H30   H     H_    0.805676 0.338059 0.202308 0.331653
O3    O     O_3   0.751764 0.852218 0.802069 -0.637225
H31   H     H_    0.698970 0.833562 0.797115 0.323365
O4    O     O_3   0.185783 0.828533 0.194110 -0.648098
H32   H     H_    0.203326 0.789987 0.195695 0.338575
O5    O     O_3   0.606318 0.249002 0.967078 -0.695203
H33   H     H_    0.587481 0.280192 0.991480 0.329991
O6    O     O_3   0.423344 0.211175 0.065497 -0.688361
H34   H     H_    0.430948 0.172966 0.090511 0.320983
O7    O     O_3   0.074701 0.703730 0.932992 -0.721263
H35   H     H_    0.037841 0.729659 0.944253 0.353401
O8    O     O_3   0.897135 0.757822 0.987784 -0.732751
H36   H     H_    0.916843 0.720257 0.985893 0.325430
F1    F     F_    0.418820 0.792373 0.057670 -0.639606
F2    F     F_    0.598323 0.754322 0.023686 -0.628470
F3    F     F_    0.948794 0.284143 0.026919 -0.618686
F4    F     F_    0.075563 0.293154 0.940891 -0.630784
O9    O     O_3   0.509521 0.673529 0.189931 -0.619469
H37   H     H_    0.491761 0.711602 0.191256 0.360369
O10   O     O_3   0.540833 0.657180 0.806616 -0.644665
H38   H     H_    0.584269 0.682294 0.804707 0.321736
O11   O     O_3   0.995470 0.170796 0.192740 -0.614979
H39   H     H_    0.973708 0.207936 0.193134 0.333161
O12   O     O_3   0.986722 0.173918 0.810724 -0.618878
H40   H     H_    0.002477 0.212472 0.809555 0.359232
O13   O     O_3   0.516821 0.404737 0.315222 -0.662045
H41   H     H_    0.574614 0.391944 0.323491 0.392163
O14   O     O_3   0.408079 0.403430 0.655600 -0.620773
H42   H     H_    0.379626 0.402610 0.576233 0.341701
O15   O     O_3   0.093246 0.906022 0.351665 -0.658721
H43   H     H_    0.103205 0.887189 0.301118 0.373182
O16   O     O_3   0.004945 0.901995 0.708127 -0.641905
H44   H     H_    0.037420 0.899625 0.672256 0.338866
O17   O     O_3   0.492745 0.597527 0.291189 -0.684544
H45   H     H_    0.463769 0.598742 0.331174 0.320492
O18   O     O_3   0.410975 0.596194 0.654950 -0.645734
H46   H     H_    0.385010 0.597162 0.576393 0.322855
O19   O     O_3   0.074191 0.097487 0.340067 -0.648820
H47   H     H_    0.097497 0.098300 0.417800 0.324109
O20   O     O_3   0.019662 0.098182 0.722653 -0.693555
H48   H     H_    0.060741 0.100106 0.697443 0.321200
F5    F     F_    0.195526 0.405053 0.711235 -0.632126
F6    F     F_    0.760615 0.406070 0.348320 -0.598362
F7    F     F_    0.738049 0.906135 0.651562 -0.573016
F8    F     F_    0.304002 0.904926 0.286284 -0.638006
F9    F     F_    0.303851 0.669397 0.804094 -0.646290
F10   F     F_    0.737460 0.654098 0.198639 -0.676151
F11   F     F_    0.790930 0.165249 0.800688 -0.660850
F12   F     F_    0.194279 0.169534 0.196226 -0.638795
F13   F     F_    0.497527 0.326584 0.188326 -0.621250
F14   F     F_    0.559253 0.357483 0.806308 -0.622393
F15   F     F_    0.943597 0.854003 0.193154 -0.650417
F16   F     F_    0.994198 0.826273 0.811200 -0.587288
O21   O     O_3   0.053612 0.421170 0.724435 -0.695764
H49   H     H_    0.014774 0.388134 0.688517 0.361370
O22   O     O_3   0.850428 0.427454 0.550931 -0.657746
H50   H     H_    0.873860 0.413260 0.624158 0.336790
O23   O     O_3   0.649543 0.928011 0.449563 -0.641179
H51   H     H_    0.626576 0.914018 0.376340 0.339172
O24   O     O_3   0.446676 0.921707 0.274688 -0.693799
H52   H     H_    0.485390 0.888656 0.310540 0.362295

loop_
_geom_bond_atom_site_label_1
_geom_bond_atom_site_label_2
_ccdc_geom_bond_type
C87   F7    S    
C49   H13   S    
O16   H44   S    
C55   C59   A    
N25   Ni6   S    
O15   H43   S    
C6    C58   S    
C19   C20   A    
N31   Ni4   S    
C46   O10   S    
O2    H30   S    
C34   H10   S    
N12   N20   A    
N1    N29   A    
C75   O15   S    
C84   O20   S    
N13   N21   A    
C4    N4    A    
C34   C58   A    
N17   Ni5   S    
O17   H45   S    
N12   Ni3   S    
C74   N10   A    
N11   N19   A    
N13   Ni6   S    
N4    N32   A    
C10   C66   S    
C86   F6    S    
C75   N11   A    
C3    N3    A    
N5    Ni5   S    
C71   H23   S    
N11   Ni4   S    
C35   C37   A    
O21   H49   S    
N2    Ni2   S    
C38   C42   A    
C94   F14   S    
C1    N1    A    
C78   N14   A    
N9    Ni2   S    
N8    N28   A    
C44   C99   S    
C95   C99   A    
C94   C98   A    
C27   O23   S    
C39   O7    S    
O7    H35   S    
N7    N27   A    
C12   C84   A    
C35   C59   A    
C8    C60   S    
O1    H29   S    
C41   C49   A    
C92   F12   S    
C53   F1    S    
C21   C25   A    
N30   Ni1   S    
N21   Ni1   S    
C61   C66   A    
C3    O3    S    
C79   N15   A    
C56   F4    S    
C11   C67   S    
C80   N16   A    
C4    O4    S    
C73   O13   S    
C36   H12   S    
N6    Ni6   S    
N26   Ni5   S    
C8    C92   A    
C55   F3    S    
C90   N26   A    
C29   C30   S    
C88   F8    S    
N27   Ni8   S    
C54   F2    S    
C61   C62   A    
C2    O2    S    
C40   O8    S    
C44   C52   A    
C15   C23   S    
N18   Ni6   S    
O14   H42   S    
C94   N30   A    
C87   N23   A    
N15   N23   A    
C72   H24   S    
C35   H11   S    
C37   C41   A    
C17   C30   S    
C88   N24   A    
C29   H5    S    
C69   C70   A    
C9    C73   A    
C19   C32   S    
C7    C59   S    
C82   O18   S    
C82   N18   A    
C52   C54   A    
O19   H47   S    
C85   N21   A    
C52   H16   S    
C47   O11   S    
N22   Ni2   S    
C13   C77   A    
C76   O16   S    
C90   F10   S    
N16   Ni7   S    
C61   H17   S    
O18   H46   S    
C64   C67   A    
C20   C24   A    
C43   C100  S    
C14   C86   A    
N32   Ni3   S    
C42   C97   S    
C1    C97   A    
N14   N22   A    
C53   C57   A    
C39   C43   A    
C80   H28   S    
N28   Ni7   S    
C96   F16   S    
C25   C26   A    
O3    H31   S    
C5    C45   A    
C10   C82   A    
C95   F15   S    
C63   C64   A    
C16   C80   A    
C7    C47   A    
C31   H3    S    
C84   N20   A    
C19   C23   A    
C8    C48   A    
N4    Ni4   S    
O8    H36   S    
C91   N27   A    
O23   H51   S    
C30   H6    S    
C85   F5    S    
C46   N6    A    
C12   C68   S    
C70   H22   S    
C89   N25   A    
O22   H50   S    
O24   H52   S    
C69   H21   S    
C26   O22   S    
C68   C72   A    
C7    C91   A    
C30   H2    S    
C32   H4    S    
C17   C18   A    
N1    Ni1   S    
C92   N28   A    
C18   C29   S    
C33   C39   A    
N3    N31   A    
C28   O24   S    
N24   Ni4   S    
O6    H34   S    
N19   Ni7   S    
C29   H1    S    
C83   N19   A    
N23   Ni3   S    
C45   O9    S    
C96   N32   A    
C42   C50   A    
O11   H39   S    
C23   C27   A    
C12   C76   A    
C48   O12   S    
C32   H8    S    
N20   Ni8   S    
C95   N31   A    
C83   O19   S    
C33   H9    S    
C76   N12   A    
C13   C85   A    
C36   C38   A    
C78   H26   S    
C93   C97   A    
C1    O1    S    
C77   H25   S    
C81   O17   S    
C54   C58   A    
N9    N17   A    
O9    H37   S    
C79   H27   S    
C63   C68   A    
N5    N25   A    
C33   C57   A    
C38   O6    S    
C6    C46   A    
C62   C65   A    
C47   N7    A    
C18   C22   A    
C31   H7    S    
C48   N8    A    
C31   C32   S    
C24   C28   A    
C36   C60   A    
C49   C55   A    
C15   C79   A    
C45   N5    A    
N8    Ni8   S    
C66   C70   A    
C81   N17   A    
C64   H20   S    
C4    C100  A    
C5    C57   S    
N2    N30   A    
C11   C83   A    
C14   C22   S    
C86   N22   A    
C71   C72   A    
N16   N24   A    
O4    H32   S    
C11   C75   A    
C50   C56   A    
C13   C21   S    
N14   Ni5   S    
C93   N29   A    
C10   C74   A    
C43   C51   A    
N6    N26   A    
C73   N9    A    
N10   N18   A    
C65   C69   A    
C96   C100  A    
C25   O21   S    
C2    N2    A    
N10   Ni1   S    
C67   C71   A    
C14   C78   A    
C56   C60   A    
C91   F11   S    
O13   H41   S    
O10   H38   S    
C9    C65   S    
N15   Ni8   S    
C62   H18   S    
C51   H15   S    
C51   C53   A    
C89   F9    S    
O12   H40   S    
C3    C99   A    
C40   C44   A    
N3    Ni3   S    
C6    C90   A    
C74   O14   S    
C2    C98   A    
C77   N13   A    
C16   C24   S    
O5    H33   S    
C22   C26   A    
C15   C87   A    
C37   O5    S    
C27   C28   A    
C16   C88   A    
C63   H19   S    
N7    Ni7   S    
C41   C98   S    
C34   C40   A    
C93   F13   S    
O20   H48   S    
C50   H14   S    
N29   Ni2   S    
C5    C89   A    
C9    C81   A    
C20   C31   S    
C17   C21   A    
