data_mof_unit_20066.cif
_audit_creation_date              2013-03-05T15:54:20-0500
_audit_creation_method            fapswitch 2.2
_symmetry_space_group_name_H-M    P1
_symmetry_Int_Tables_number       1
_space_group_crystal_system       triclinic
_cell_length_a                    15.186696
_cell_length_b                    15.065382
_cell_length_c                    15.028989
_cell_angle_alpha                 109.979938
_cell_angle_beta                  108.965057
_cell_angle_gamma                 109.932512
_cell_volume                      2631.52609817

loop_
_atom_site_label
_atom_site_type_symbol
_atom_site_description
_atom_site_fract_x
_atom_site_fract_y
_atom_site_fract_z
_atom_type_partial_charge
C1    C     C_R   0.931063 0.743666 0.023183 0.490483
N1    N     N_R   0.995640 0.706130 0.053910 -0.098987
C2    C     C_R   0.794946 0.196762 0.701920 -0.071958
H1    H     H_    0.830843 0.169130 0.655310 0.177416
N2    N     N_R   0.848310 0.293860 0.791110 -0.063215
C3    C     C_R   0.097168 0.586796 0.790877 0.576393
N3    N     N_R   0.054010 0.556790 0.847890 -0.098928
C4    C     C_R   0.701189 0.405451 0.001849 0.489407
N4    N     N_R   0.789940 0.443190 0.997130 -0.095643
C5    C     C_R   0.999998 0.404834 0.699259 -0.070311
H2    H     H_    0.967542 0.319163 0.643289 0.184591
N5    N     N_R   0.997630 0.443170 0.791110 -0.098453
C6    C     C_R   0.789761 0.586620 0.096569 -0.079879
H3    H     H_    0.818737 0.668743 0.158552 0.230138
N6    N     N_R   0.846320 0.556810 0.053910 -0.087573
C7    C     C_R   0.699877 0.195924 0.787976 -0.084211
H4    H     H_    0.643973 0.168450 0.815306 0.200872
N7    N     N_R   0.791080 0.293860 0.847890 -0.063706
C8    C     C_R   0.025962 0.750546 0.936719 0.557940
N8    N     N_R   0.052880 0.706130 0.997130 -0.107064
C9    C     C_R   0.948061 0.773278 0.950176 -0.304983
C10   C     C_R   0.701945 0.132808 0.697154 0.028581
C11   C     C_R   0.064297 0.492825 0.698360 -0.203058
C12   C     C_R   0.693716 0.493993 0.057736 0.063806
C13   C     C_R   0.050652 0.591016 0.315524 0.274994
N9    N     N_R   0.002370 0.556830 0.208890 -0.082922
C14   C     C_R   0.206714 0.407777 0.904389 0.720639
N10   N     N_R   0.153680 0.443190 0.946090 -0.079934
C15   C     C_R   0.313380 0.757198 0.220022 -0.021953
H5    H     H_    0.373141 0.765183 0.195675 0.171769
N11   N     N_R   0.208920 0.706140 0.152110 -0.061125
C16   C     C_R   0.907744 0.197499 0.996935 0.455686
N12   N     N_R   0.947120 0.293870 0.002870 -0.141784
C17   C     C_R   0.002707 0.198764 0.911227 0.530103
N13   N     N_R   0.004360 0.293870 0.946090 -0.095801
C18   C     C_R   0.227320 0.765487 0.315611 -0.119982
H6    H     H_    0.214251 0.791268 0.383533 0.170832
N14   N     N_R   0.151690 0.706140 0.208890 -0.052547
C19   C     C_R   0.972446 0.408589 0.221409 -0.072552
H7    H     H_    0.939961 0.324285 0.201366 0.201119
N15   N     N_R   0.945990 0.443210 0.152110 -0.081077
C20   C     C_R   0.303955 0.589695 0.004757 -0.129845
H8    H     H_    0.363642 0.674093 0.039610 0.161230
N16   N     N_R   0.210060 0.556810 0.002870 -0.077707
Ni1   Ni    Ni4+2 0.999010 0.630300 0.130220 0.300979
Ni2   Ni    Ni4+2 0.000990 0.369700 0.869780 0.278193
Ni3   Ni    Ni4+2 0.130280 0.630280 0.000000 0.286766
Ni4   Ni    Ni4+2 0.869720 0.369720 0.000000 0.249571
C21   C     C_R   0.040553 0.499849 0.324436 -0.044959
C22   C     C_R   0.307116 0.497019 0.949507 -0.125924
C23   C     C_R   0.327929 0.793611 0.323399 0.080451
C24   C     C_R   0.942108 0.137275 0.941976 -0.262266
C25   C     C_3   0.497445 0.387225 0.920639 -0.704764
H9    H     H_    0.490517 0.311356 0.918933 0.224107
H10   H     H_    0.517506 0.387348 0.855563 0.227161
C26   C     C_3   0.387523 0.379787 0.891996 0.702018
C27   C     C_3   0.565528 0.499961 0.126168 0.764162
C28   C     C_3   0.596852 0.590084 0.012647 -0.417065
C29   C     C_3   0.590143 0.492881 0.031536 0.044767
H11   H     H_    0.659770 0.670372 0.087838 0.250003
H12   H     H_    0.620895 0.587324 0.949585 0.190744
C30   C     C_3   0.407754 0.491922 0.981672 -0.103684
C31   C     C_3   0.465579 0.519102 0.108006 0.242359
C32   C     C_3   0.487514 0.583868 0.973913 -0.335693
H13   H     H_    0.455143 0.568038 0.888804 0.239584
H14   H     H_    0.499943 0.666013 0.021092 0.213115
C33   C     C_R   0.621437 0.984294 0.510637 0.059582
C34   C     C_R   0.625571 0.018321 0.611795 -0.229155
C35   C     C_R   0.541263 0.947405 0.618476 0.541440
C36   C     C_R   0.443010 0.866410 0.521712 -0.169773
H15   H     H_    0.373995 0.819904 0.526290 0.179975
C37   C     C_R   0.432625 0.852780 0.420873 -0.116031
C38   C     C_R   0.525986 0.902281 0.416188 0.190638
C39   C     C_3   0.545861 0.958702 0.353659 0.198106
C40   C     C_3   0.651151 0.048776 0.457396 0.248132
H16   H     H_    0.486300 0.984385 0.326301 0.042405
H17   H     H_    0.655231 0.129130 0.491992 0.101435
C41   C     C_R   0.960665 0.443854 0.422414 0.013581
C42   C     C_R   0.053561 0.490846 0.418185 -0.005757
C43   C     C_R   0.153898 0.521699 0.500234 -0.055277
H18   H     H_    0.225581 0.552274 0.493246 0.165533
C44   C     C_R   0.161602 0.517863 0.594137 0.520175
C45   C     C_R   0.066619 0.484002 0.602239 -0.164837
C46   C     C_R   0.966612 0.440314 0.513312 0.086553
C47   C     C_3   0.880631 0.469864 0.508820 0.076431
C48   C     C_3   0.874222 0.472624 0.406590 0.046653
H19   H     H_    0.911729 0.551220 0.579195 0.073429
H20   H     H_    0.900184 0.555673 0.416733 0.133568
C49   C     C_R   0.954473 0.944759 0.030986 0.067420
C50   C     C_R   0.927626 0.855047 0.937019 0.108937
C51   C     C_R   0.883644 0.848569 0.835634 -0.190133
H21   H     H_    0.857396 0.776826 0.760974 0.157652
C52   C     C_R   0.882453 0.940262 0.833350 -0.158372
H22   H     H_    0.855056 0.939567 0.756850 0.160639
C53   C     C_R   0.924397 0.034987 0.932503 0.091615
C54   C     C_R   0.950529 0.032412 0.028450 0.092529
C55   C     C_3   0.049003 0.112045 0.139740 0.019030
C56   C     C_3   0.052526 0.013315 0.142741 0.204060
H23   H     H_    0.118973 0.168160 0.139224 0.157340
H24   H     H_    0.037059 0.996936 0.204640 0.155909
O1    O     O_3   0.871084 0.764024 0.070311 -0.771680
H25   H     H_    0.817363 0.773827 0.022219 0.320322
O2    O     O_3   0.151283 0.315991 0.802466 -0.678282
H26   H     H_    0.170530 0.339801 0.754369 0.331872
O3    O     O_3   0.821506 0.153255 0.011332 -0.699226
H27   H     H_    0.796368 0.206511 0.026714 0.341789
O4    O     O_3   0.040703 0.165425 0.842365 -0.641013
H28   H     H_    0.034229 0.094632 0.832237 0.342666
O5    O     O_3   0.345272 0.373121 0.789440 -0.761884
H29   H     H_    0.337054 0.307173 0.733495 0.363875
N17   N     N_R   0.313359 0.276031 0.879729 0.235410
O6    O     O_R   0.284439 0.182702 0.799692 -0.325492
O7    O     O_R   0.280290 0.272944 0.948617 -0.354415
O8    O     O_3   0.546424 0.402842 0.129622 -0.673636
H30   H     H_    0.474904 0.341034 0.067633 0.332793
N18   N     N_R   0.393568 0.450729 0.134889 0.262261
O9    O     O_R   0.437237 0.439479 0.217594 -0.287123
O10   O     O_R   0.299476 0.441396 0.111236 -0.362818
O11   O     O_3   0.658579 0.587444 0.226166 -0.668429
H31   H     H_    0.646149 0.582854 0.285769 0.385189
N19   N     N_R   0.504200 0.635257 0.186161 0.249363
O12   O     O_R   0.462416 0.656287 0.248316 -0.334264
O13   O     O_R   0.589581 0.717583 0.206976 -0.326310
O14   O     O_3   0.548739 0.959398 0.716160 -0.705483
H32   H     H_    0.626440 0.997660 0.770955 0.336517
O15   O     O_3   0.183337 0.689277 0.835225 -0.683727
H33   H     H_    0.203111 0.690047 0.778783 0.342190
O16   O     O_3   0.561238 0.899917 0.270849 -0.626827
H34   H     H_    0.567256 0.939667 0.230401 0.347655
O17   O     O_3   0.742542 0.054326 0.450228 -0.638571
H35   H     H_    0.756196 0.097179 0.413803 0.375034
O18   O     O_3   0.261605 0.551563 0.675739 -0.720396
H36   H     H_    0.253052 0.536631 0.732581 0.325885
N20   N     N_R   0.782227 0.383471 0.489271 0.285949
O19   O     O_R   0.698848 0.395801 0.474071 -0.321905
O20   O     O_R   0.779092 0.297972 0.494057 -0.415862
N21   N     N_R   0.774137 0.386359 0.304206 0.291162
O21   O     O_R   0.730487 0.412938 0.235661 -0.331950
O22   O     O_R   0.739425 0.283044 0.272317 -0.297662
O23   O     O_3   0.651060 0.301505 0.985514 -0.753132
H37   H     H_    0.614868 0.301894 0.029511 0.386634
N22   N     N_R   0.024702 0.169248 0.220354 0.248793
O24   O     O_R   0.091662 0.273004 0.291964 -0.386687
O25   O     O_R   0.938262 0.117389 0.223214 -0.332937
O26   O     O_3   0.142764 0.009852 0.140150 -0.705542
H38   H     H_    0.203098 0.058231 0.216865 0.346976
O27   O     O_3   0.082289 0.785307 0.888582 -0.668152
H39   H     H_    0.050007 0.819261 0.852894 0.333727
N23   N     N_R   0.066773 0.688740 0.397124 0.214758
O28   O     O_R   0.119798 0.721814 0.500434 -0.401608
O29   O     O_R   0.027264 0.744806 0.367963 -0.369667

loop_
_geom_bond_atom_site_label_1
_geom_bond_atom_site_label_2
_geom_bond_distance
_ccdc_geom_bond_type
C4    N4    1.308483 A    
C1    C9    1.381880 A    
C52   H22   1.083020 S    
C38   C39   1.500676 S    
C53   C54   1.383875 A    
O27   H39   0.988558 S    
O16   H34   0.992001 S    
C55   C56   1.521774 S    
C25   C29   1.558014 S    
C19   N15   1.326755 A    
C47   C48   1.523476 S    
N21   O22   1.302609 A    
N10   Ni2   1.889816 S    
O15   H33   0.989839 S    
C39   H16   1.114698 S    
C17   O4    1.373626 S    
C18   H6    1.070327 S    
C8    C9    1.393650 A    
C17   N13   1.334914 A    
N23   O29   1.301202 A    
O26   H38   0.991867 S    
C43   H18   1.083418 S    
C48   H20   1.112806 S    
C27   C29   1.562977 S    
C28   H11   1.108660 S    
N18   O9    1.303200 A    
C24   C53   1.417708 S    
C13   N23   1.434109 S    
C1    N1    1.325540 A    
C16   C24   1.366984 A    
N14   Ni1   1.889001 S    
C30   C32   1.567735 S    
N9    Ni1   1.875966 S    
C31   N19   1.494540 S    
C34   C35   1.419510 A    
C39   O16   1.401596 S    
N17   O6    1.302497 A    
O18   H36   0.990370 S    
O4    H28   0.989003 S    
C36   H15   1.083182 S    
C33   C38   1.373188 A    
C26   N17   1.487821 S    
C48   N21   1.460589 S    
C40   O17   1.403266 S    
C47   N20   1.463138 S    
C27   O11   1.410224 S    
C41   C48   1.491069 S    
C28   H12   1.114302 S    
C47   H19   1.112972 S    
N21   O21   1.296149 A    
C52   C53   1.404576 A    
N11   Ni3   1.862219 S    
C6    H3    1.080203 S    
N2    Ni2   1.889001 S    
C20   N16   1.327418 A    
C5    N5    1.319857 A    
C55   H23   1.114102 S    
C27   C31   1.595195 S    
C9    C50   1.428357 S    
C25   H10   1.115302 S    
N1    Ni1   1.876188 S    
C28   C32   1.527511 S    
N3    N5    1.385245 A    
C39   C40   1.511064 S    
N1    N8    1.402147 A    
C33   C34   1.400524 A    
O1    H25   0.990791 S    
C46   C47   1.505768 S    
C3    O15   1.375753 S    
N5    Ni2   1.875966 S    
C19   H7    1.077943 S    
C41   C42   1.379700 A    
C7    H4    1.078919 S    
N20   O20   1.300119 A    
N2    N7    1.402024 A    
C35   O14   1.377398 S    
C13   N9    1.336382 A    
C25   H9    1.101994 S    
N10   N16   1.385245 A    
C8    O27   1.372989 S    
C21   C42   1.417930 S    
C6    C12   1.384837 A    
N3    Ni3   1.862353 S    
C15   H5    1.069366 S    
C51   C52   1.399575 A    
C45   C46   1.387099 A    
C54   C55   1.500966 S    
C30   C31   1.638160 S    
N17   O7    1.296612 A    
O23   H37   0.987493 S    
C40   H17   1.112396 S    
C10   C34   1.456941 S    
N19   O12   1.302210 A    
C3    N3    1.340089 A    
C18   C23   1.391481 A    
C11   C45   1.418050 S    
C20   C22   1.385821 A    
C31   N18   1.491233 S    
C43   C44   1.400618 A    
C19   C21   1.375584 A    
C56   H24   1.113951 S    
C16   O3    1.376186 S    
C6    N6    1.332185 A    
C22   C30   1.483459 S    
N22   O25   1.302256 A    
C33   C40   1.501542 S    
C23   C37   1.447742 S    
N6    Ni1   1.889818 S    
C44   O18   1.380741 S    
C2    H1    1.079284 S    
C1    O1    1.373619 S    
C26   O5    1.415942 S    
C51   H21   1.082988 S    
C14   C22   1.378237 A    
C15   C23   1.369440 A    
C25   C26   1.535255 S    
C7    C10   1.389063 A    
C37   C38   1.396875 A    
C2    N2    1.318714 A    
N7    Ni4   1.862221 S    
O11   H31   0.993069 S    
N16   Ni3   1.899467 S    
O8    H30   0.987210 S    
N20   O19   1.300546 A    
C56   O26   1.401557 S    
C5    C11   1.359850 A    
O3    H27   0.991150 S    
C17   C24   1.380712 A    
N11   N14   1.402023 A    
C49   C56   1.498443 S    
C4    O23   1.376618 S    
C32   H13   1.112440 S    
C8    N8    1.341498 A    
C18   N14   1.346680 A    
O17   H35   0.991723 S    
C28   C29   1.560966 S    
C15   N11   1.314963 A    
N23   O28   1.300966 A    
C16   N12   1.326023 A    
N12   N13   1.402149 A    
C50   C51   1.403484 A    
C27   O8    1.414177 S    
C49   C54   1.354877 A    
C12   C29   1.484707 S    
C3    C11   1.381493 A    
C14   O2    1.373981 S    
C4    C12   1.377400 A    
N15   Ni4   1.862352 S    
N18   O10   1.298731 A    
C26   C30   1.608027 S    
N4    N6    1.385245 A    
C35   C36   1.402056 A    
C13   C21   1.386819 A    
C55   N22   1.463105 S    
N19   O13   1.300818 A    
N8    Ni3   1.898916 S    
C5    H2    1.082216 S    
C42   C43   1.400936 A    
C41   C46   1.360186 A    
N4    Ni4   1.899467 S    
C7    N7    1.339485 A    
C44   C45   1.417993 A    
C20   H8    1.078474 S    
O2    H26   0.989783 S    
N12   Ni4   1.898915 S    
N22   O24   1.300355 A    
C2    C10   1.373869 A    
C36   C37   1.404871 A    
C49   C50   1.390306 A    
O5    H29   0.992976 S    
N13   Ni2   1.876187 S    
N9    N15   1.385246 A    
C32   H14   1.106342 S    
O14   H32   0.991500 S    
C14   N10   1.310977 A    
