data_mof_unit_12812.cif
_audit_creation_date              2012-12-10T19:43:25-0500
_audit_creation_method            fapswitch 2.2
_symmetry_space_group_name_H-M    P1
_symmetry_Int_Tables_number       1
_space_group_crystal_system       triclinic
_cell_length_a                    10.857047
_cell_length_b                    10.874131
_cell_length_c                    9.570888
_cell_angle_alpha                 90.016555
_cell_angle_beta                  90.955416
_cell_angle_gamma                 91.943553
_cell_volume                      1129.14069518

loop_
_atom_site_label
_atom_site_type_symbol
_atom_type_description
_atom_site_fract_x
_atom_site_fract_y
_atom_site_fract_z
_atom_type_partial_charge
C1    C     C_R   0.507350 0.262495 0.501408 0.800570
C2    C     C_R   0.208548 0.730955 0.024425 -0.116442
C3    C     C_R   0.932882 0.543951 0.387448 -0.251013
C4    C     C_R   0.871567 0.494759 0.503289 -0.076217
C5    C     C_R   0.939910 0.447360 0.616904 -0.004149
C6    C     C_R   0.067644 0.452692 0.612499 -0.246395
C7    C     C_R   0.128692 0.503067 0.497310 -0.084138
C8    C     C_R   0.060662 0.549328 0.383257 -0.001451
C9    C     C_R   0.868210 0.451071 0.862983 -0.132382
C10   C     C_R   0.827477 0.390043 0.983127 -0.142525
C11   C     C_R   0.806826 0.262536 0.981291 -0.124375
C12   C     C_R   0.262513 0.502295 0.498836 0.793863
C13   C     C_R   0.826624 0.196002 0.859152 -0.163205
C14   C     C_R   0.863486 0.257292 0.737549 -0.160408
C15   C     C_R   0.884100 0.385372 0.738813 0.135669
C16   C     C_R   0.542309 0.116641 0.767898 -0.172001
C17   C     C_R   0.518572 0.054769 0.892304 -0.168764
C18   C     C_R   0.462371 0.938687 0.888744 -0.140578
C19   C     C_R   0.439588 0.880528 0.760905 -0.163999
C20   C     C_R   0.476923 0.936407 0.633757 0.098354
C21   C     C_R   0.511609 0.062416 0.636133 0.096313
C22   C     C_R   0.513505 0.128060 0.506964 -0.118955
C23   C     C_R   0.491329 0.737242 0.500762 0.776374
C24   C     C_R   0.506476 0.063339 0.380456 -0.221466
C25   C     C_R   0.496347 0.936392 0.379739 -0.228524
C26   C     C_R   0.482712 0.871374 0.504992 -0.117883
C27   C     C_R   0.658794 0.667521 0.146764 -0.179041
C28   C     C_R   0.734478 0.750714 0.075673 -0.228067
C29   C     C_R   0.734247 0.750630 0.931837 -0.208144
C30   C     C_R   0.658779 0.666891 0.858385 -0.141741
C31   C     C_R   0.577595 0.582571 0.926460 0.209442
C32   C     C_R   0.577562 0.582685 0.076176 0.210479
C33   C     C_R   0.425888 0.421766 0.072554 -0.051671
C34   C     C_R   0.737555 0.496395 0.501350 0.777932
C35   C     C_R   0.425945 0.421774 0.924486 -0.074678
C36   C     C_R   0.224525 0.784960 0.156356 -0.134645
C37   C     C_R   0.179532 0.724208 0.274594 -0.108233
C38   C     C_R   0.118140 0.609030 0.260858 0.132863
C39   C     C_R   0.104632 0.554308 0.128387 -0.153743
C40   C     C_R   0.150113 0.615131 0.010554 -0.137986
Cu1   Cu    Cu3+1 0.499990 0.499990 0.640660 0.923387
Cu2   Cu    Cu3+1 0.500010 0.500010 0.359340 0.934620
H1    H     H_    0.239961 0.779332 0.932680 0.116997
H2    H     H_    0.776627 0.215168 0.074755 0.127518
H3    H     H_    0.812142 0.097012 0.858299 0.139038
H4    H     H_    0.879037 0.204806 0.643651 0.122989
H5    H     H_    0.510181 0.110804 0.281016 0.157862
H6    H     H_    0.589704 0.204600 0.778664 0.191155
H7    H     H_    0.541676 0.098180 0.991601 0.130971
H8    H     H_    0.439093 0.892470 0.985294 0.133811
H9    H     H_    0.390225 0.792970 0.763877 0.158784
H10   H     H_    0.498835 0.889166 0.280170 0.167356
H11   H     H_    0.365082 0.357790 0.126818 0.135183
H12   H     H_    0.269903 0.874719 0.166771 0.120627
H13   H     H_    0.669589 0.673444 0.256784 0.203389
H14   H     H_    0.795110 0.814572 0.132979 0.154081
H15   H     H_    0.794805 0.814273 0.876471 0.147874
H16   H     H_    0.670340 0.670914 0.748752 0.202570
H17   H     H_    0.365275 0.357675 0.867863 0.140378
H18   H     H_    0.190221 0.767727 0.376107 0.102736
H19   H     H_    0.058250 0.465142 0.116630 0.131302
H20   H     H_    0.881235 0.581804 0.300594 0.152433
H21   H     H_    0.119700 0.414313 0.698895 0.153552
H22   H     H_    0.889385 0.548963 0.867049 0.134407
H23   H     H_    0.814371 0.441223 0.078408 0.142618
N1    N     N_R   0.501190 0.501210 0.147910 -0.195736
N2    N     N_R   0.501230 0.501290 0.852040 -0.201916
O1    O     O_R   0.499990 0.319640 0.618810 -0.591924
O2    O     O_R   0.500000 0.319660 0.381240 -0.584000
O3    O     O_R   0.319640 0.500000 0.618780 -0.591215
O4    O     O_R   0.319650 0.500020 0.381210 -0.565592
O5    O     O_R   0.500000 0.680340 0.618760 -0.612948
O6    O     O_R   0.500010 0.680360 0.381190 -0.594389
O7    O     O_R   0.680350 0.499980 0.618790 -0.593432
O8    O     O_R   0.680360 0.500000 0.381220 -0.606795
H24   H     H_    0.138722 0.573269 0.908356 0.133268

loop_
_geom_bond_atom_site_label_1
_geom_bond_atom_site_label_2
_ccdc_geom_bond_type
C16   C21   A    
C9    H22   S    
Cu1   Cu2   S    
C19   C20   A    
C16   H6    S    
C28   H14   S    
C7    C8    A    
C14   H4    S    
C31   N2    A    
Cu2   O8    S    
C37   C38   A    
C36   C37   A    
C5    C6    A    
C27   H13   S    
C10   H23   S    
C1    O1    A    
C35   H17   S    
C18   C19   A    
C23   C26   S    
Cu1   O7    S    
C16   C17   A    
C9    C10   A    
C34   O8    A    
C1    C22   S    
C21   C22   A    
C8    C38   S    
C23   O6    A    
C33   N1    A    
Cu1   O1    S    
C33   H11   S    
C7    C12   S    
C39   H19   S    
C4    C34   S    
C38   C39   A    
C24   C25   A    
Cu1   N2    S    
C3    C8    A    
C17   H7    S    
C39   C40   A    
C25   C26   A    
Cu2   O2    S    
C1    O2    A    
C40   H24   S    
C6    H21   S    
C29   C30   A    
C19   H9    S    
C31   C32   A    
C35   N2    A    
C2    H1    S    
C17   C18   A    
C11   H2    S    
C34   O7    A    
Cu1   O5    S    
C12   O4    A    
C29   H15   S    
C22   C24   A    
C3    C4    A    
C18   H8    S    
C32   N1    A    
C3    H20   S    
C2    C36   A    
C12   O3    A    
C28   C29   A    
Cu2   O6    S    
C27   C32   A    
C24   H5    S    
C23   O5    A    
C4    C5    A    
C6    C7    A    
C9    C15   A    
C25   H10   S    
C13   H3    S    
C11   C13   A    
C30   C31   A    
C20   C26   A    
C30   H16   S    
Cu2   O4    S    
C33   C35   A    
C5    C15   S    
C37   H18   S    
C36   H12   S    
C10   C11   A    
C2    C40   A    
C20   C21   A    
C27   C28   A    
Cu2   N1    S    
C14   C15   A    
C13   C14   A    
Cu1   O3    S    
