data_mof_unit_26643.cif
_audit_creation_date              2012-12-10T20:30:09-0500
_audit_creation_method            fapswitch 2.2
_symmetry_space_group_name_H-M    P1
_symmetry_Int_Tables_number       1
_space_group_crystal_system       triclinic
_cell_length_a                    9.870688
_cell_length_b                    10.670105
_cell_length_c                    13.101524
_cell_angle_alpha                 89.934728
_cell_angle_beta                  69.827516
_cell_angle_gamma                 90.080905
_cell_volume                      1295.22309337

loop_
_atom_site_label
_atom_site_type_symbol
_atom_type_description
_atom_site_fract_x
_atom_site_fract_y
_atom_site_fract_z
_atom_type_partial_charge
C1    C     C_R   0.498391 0.740038 0.503439 0.884040
C2    C     C_R   0.433880 0.474812 0.983954 0.031787
C3    C     C_R   0.461194 0.440589 0.875692 0.040650
C4    C     C_R   0.546236 0.460526 0.026977 -0.003706
C5    C     C_R   0.675596 0.394768 0.968236 -0.033291
C6    C     C_R   0.686812 0.338491 0.868319 0.406950
C7    C     C_R   0.580320 0.363121 0.822884 -0.291043
C8    C     C_R   0.533107 0.512612 0.127082 -0.252725
C9    C     C_R   0.757917 0.420638 0.122246 -0.179577
C10   C     C_R   0.367959 0.484116 0.822762 -0.150958
C11   C     C_R   0.368855 0.935933 0.516768 0.125502
C12   C     C_R   0.419848 0.493614 0.704324 0.885316
C13   C     C_R   0.489313 0.871401 0.520920 -0.108893
C14   C     C_R   0.597942 0.935321 0.546170 -0.211414
C15   C     C_R   0.597715 0.064977 0.546477 -0.223069
C16   C     C_R   0.489020 0.128620 0.521263 -0.104909
C17   C     C_R   0.368753 0.063728 0.516900 0.151151
C18   C     C_3   0.293752 0.071061 0.435504 -0.470805
C19   C     C_3   0.293888 0.928985 0.435298 -0.477214
C20   C     C_R   0.886142 0.522442 0.593607 0.234095
C21   C     C_R   0.969067 0.466371 0.409928 -0.127713
C22   C     C_R   0.112825 0.466045 0.409988 -0.132074
C23   C     C_R   0.498282 0.259973 0.503542 0.873441
C24   C     C_R   0.028544 0.522432 0.593648 0.228504
C25   C     C_3   0.003283 0.638279 0.661091 -0.523650
C26   C     C_3   0.849426 0.638119 0.661104 -0.493341
C27   C     C_R   0.580321 0.499474 0.295581 0.905874
C28   C     C_R   0.785929 0.382959 0.014960 0.468395
C29   C     C_R   0.629803 0.482898 0.178564 -0.164667
C30   C     C_R   0.232914 0.534130 0.883110 -0.304681
C31   C     C_R   0.193690 0.550692 0.996148 0.620814
C32   C     C_R   0.294909 0.521473 0.045109 -0.256789
H1    H     H_    0.835943 0.400754 0.161407 0.194227
H2    H     H_    0.686884 0.114281 0.558781 0.166698
H3    H     H_    0.183862 0.111869 0.470775 0.210757
H4    H     H_    0.362483 0.112829 0.356822 0.204886
H5    H     H_    0.184009 0.887743 0.470303 0.204778
H6    H     H_    0.362724 0.887954 0.356501 0.205835
H7    H     H_    0.948330 0.441280 0.336698 0.162351
H8    H     H_    0.199592 0.440017 0.336656 0.157730
H9    H     H_    0.009324 0.620384 0.742863 0.187076
H10   H     H_    0.068515 0.719186 0.616839 0.216310
H11   H     H_    0.767766 0.619833 0.742743 0.206753
H12   H     H_    0.825110 0.718890 0.616684 0.208232
H13   H     H_    0.443825 0.572811 0.169719 0.162512
H14   H     H_    0.160533 0.561160 0.841268 0.146816
H15   H     H_    0.260190 0.533589 0.132107 0.146595
H16   H     H_    0.589393 0.318493 0.746651 0.158407
H17   H     H_    0.687329 0.886350 0.558123 0.164985
N1    N     N_R   0.856940 0.500860 0.500710 -0.112558
N2    N     N_R   0.142580 0.500820 0.500710 -0.107492
O1    O     O_R   0.385310 0.683210 0.499990 -0.615015
O2    O     O_R   0.614650 0.683240 0.500000 -0.614448
O3    O     O_R   0.328390 0.499940 0.653610 -0.609349
O4    O     O_R   0.557730 0.499980 0.653620 -0.617995
O5    O     O_R   0.385350 0.316760 0.500000 -0.608523
O6    O     O_R   0.614690 0.316790 0.500010 -0.629119
O7    O     O_R   0.442270 0.500020 0.346380 -0.622205
O8    O     O_R   0.671610 0.500060 0.346390 -0.609372
Zn1   Zn    Zn3+2 0.346870 0.499980 0.499990 0.944698
Zn2   Zn    Zn3+2 0.653130 0.500020 0.500010 0.941664
O9    O     O_3   0.798737 0.257182 0.817716 -0.756498
H18   H     H_    0.790645 0.227766 0.748263 0.324943
O10   O     O_3   0.920493 0.334493 0.959790 -0.714008
H19   H     H_    0.953459 0.371597 0.885863 0.356906
O11   O     O_3   0.058424 0.591532 0.063689 -0.615315
C33   C     C_3   0.993999 0.676709 0.011751 -0.310369
H20   H     H_    0.944438 0.626151 0.959349 0.159383
H21   H     H_    0.071646 0.749439 0.964759 0.161054
H22   H     H_    0.905470 0.725924 0.075119 0.202667

loop_
_geom_bond_atom_site_label_1
_geom_bond_atom_site_label_2
_ccdc_geom_bond_type
C25   H10   S    
C31   O11   S    
C2    C4    A    
O6    Zn2   S    
C6    C7    A    
C19   H6    S    
C13   C14   A    
C27   C29   S    
C5    C28   A    
O1    Zn1   S    
C18   H3    S    
C10   C30   A    
C15   H2    S    
C31   C32   A    
C21   H7    S    
C9    C29   A    
C30   C31   A    
C4    C8    A    
C33   H22   S    
C22   H8    S    
O10   H19   S    
C6    O9    S    
C24   N2    A    
C2    C3    A    
C26   H12   S    
C23   O5    A    
C20   C26   S    
C3    C10   A    
O3    Zn1   S    
C21   C22   A    
C7    H16   S    
C9    H1    S    
C11   C13   A    
C11   C19   S    
O9    H18   S    
C10   C12   S    
C8    C29   A    
C28   O10   S    
C21   N1    A    
C1    O1    A    
C26   H11   S    
C17   C18   S    
C16   C23   S    
C3    C7    A    
C5    C6    A    
C20   C24   A    
C32   H15   S    
O8    Zn2   S    
C14   H17   S    
C1    C13   S    
C27   O8    A    
O7    Zn1   S    
C15   C16   A    
C12   O4    A    
C16   C17   A    
O4    Zn2   S    
O5    Zn1   S    
C24   C25   S    
O2    Zn2   S    
C2    C32   A    
C18   C19   S    
C25   H9    S    
O11   C33   S    
C23   O6    A    
N1    Zn2   S    
C1    O2    A    
C8    H13   S    
C4    C5    A    
C20   N1    A    
N2    Zn1   S    
C19   H5    S    
C25   C26   S    
C14   C15   A    
C18   H4    S    
C30   H14   S    
C12   O3    A    
C33   H20   S    
C9    C28   A    
C22   N2    A    
C33   H21   S    
C27   O7    A    
C11   C17   A    
