data_mof_unit_43304.cif
_audit_creation_date              2012-12-11T14:23:14-0500
_audit_creation_method            fapswitch 2.2
_symmetry_space_group_name_H-M    P1
_symmetry_Int_Tables_number       1
_space_group_crystal_system       triclinic
_cell_length_a                    10.901921
_cell_length_b                    10.970555
_cell_length_c                    18.853869
_cell_angle_alpha                 90.550431
_cell_angle_beta                  89.957448
_cell_angle_gamma                 60.647223
_cell_volume                      1965.30439849

loop_
_atom_site_label
_atom_site_type_symbol
_atom_type_description
_atom_site_fract_x
_atom_site_fract_y
_atom_site_fract_z
_atom_type_partial_charge
C1    C     C_R   0.240455 0.643864 0.611082 0.529802
C2    C     C_R   0.551978 0.200720 0.718952 -0.159720
C3    C     C_R   0.563324 0.196308 0.791068 -0.163856
C4    C     C_R   0.653797 0.622083 0.600933 0.535193
C5    C     C_R   0.934184 0.122986 0.812254 -0.092225
C6    C     C_R   0.049214 0.095061 0.769308 -0.135792
C7    C     C_R   0.041015 0.085942 0.696135 -0.131293
C8    C     C_R   0.916726 0.107729 0.665046 -0.089706
C9    C     C_R   0.665264 0.177791 0.675683 -0.011352
C10   C     C_R   0.194538 0.657925 0.837436 -0.008053
C11   C     C_R   0.199043 0.543620 0.799627 0.020820
C12   C     C_3   0.660946 0.559462 0.800023 -0.251141
C13   C     C_R   0.191965 0.547196 0.724314 0.020926
C14   C     C_R   0.228271 0.748872 0.727997 -0.151403
C15   C     C_R   0.221037 0.752519 0.801145 -0.156267
C16   C     C_R   0.628705 0.227563 0.602712 0.527231
C17   C     C_R   0.209146 0.426528 0.835163 -0.098963
C18   C     C_R   0.197280 0.322651 0.798349 -0.150624
C19   C     C_R   0.174046 0.333848 0.725697 -0.160837
C20   C     C_R   0.170112 0.445215 0.688924 -0.115188
C21   C     C_R   0.207638 0.652048 0.687859 -0.003035
C22   C     C_R   0.673236 0.650839 0.170014 0.004423
C23   C     C_3   0.699781 0.675381 0.811756 0.046428
C24   C     C_R   0.792775 0.560110 0.212645 0.041395
C25   C     C_R   0.787182 0.586919 0.285685 0.015717
C26   C     C_R   0.532300 0.713298 0.276118 -0.132432
C27   C     C_R   0.542001 0.720388 0.202559 -0.158917
C28   C     C_R   0.221955 0.647110 0.401872 0.535759
C29   C     C_R   0.916191 0.441352 0.186270 -0.071549
C30   C     C_R   0.036327 0.373381 0.227679 -0.125979
C31   C     C_R   0.035562 0.417292 0.296874 -0.117290
C32   C     C_R   0.913345 0.527261 0.325149 -0.088657
C33   C     C_R   0.654361 0.655408 0.318505 -0.000277
C34   C     C_3   0.669739 0.648235 0.676250 0.057624
C35   C     C_R   0.668978 0.095268 0.184550 0.030735
C36   C     C_R   0.581667 0.066022 0.229378 0.031502
C37   C     C_R   0.588901 0.082816 0.303009 0.025014
C38   C     C_R   0.714706 0.211145 0.280475 -0.139111
C39   C     C_R   0.729170 0.173219 0.210366 -0.118717
C40   C     C_R   0.641780 0.622533 0.392168 0.532671
C41   C     C_R   0.478569 0.033308 0.204165 -0.081601
C42   C     C_R   0.384335 0.024391 0.250848 -0.138438
C43   C     C_R   0.406798 0.020331 0.323330 -0.115650
C44   C     C_R   0.515977 0.038560 0.349019 -0.087480
C45   C     C_3   0.820764 0.618720 0.690912 -0.246397
C46   C     C_R   0.654224 0.158799 0.327957 0.003677
C47   C     C_R   0.137928 0.693485 0.187046 0.018903
C48   C     C_R   0.097299 0.812210 0.233536 0.014111
C49   C     C_R   0.083450 0.795313 0.305864 0.012199
C50   C     C_R   0.226785 0.543923 0.286804 -0.128687
C51   C     C_R   0.209399 0.559449 0.214204 0.051978
C52   C     C_R   0.619222 0.224562 0.396911 0.532110
C53   C     C_R   0.083233 0.942815 0.212990 -0.097701
C54   C     C_R   0.040795 0.052655 0.261571 -0.156132
C55   C     C_R   0.006421 0.039066 0.330626 -0.112098
C56   C     C_3   0.640315 0.545352 0.720364 -0.211698
C57   C     C_R   0.019252 0.913038 0.351733 -0.079540
C58   C     C_R   0.160939 0.661102 0.332720 -0.027964
C59   C     C_R   0.703189 0.102810 0.896158 0.550310
C60   C     C_R   0.724539 0.688768 0.887819 0.544022
C61   C     C_R   0.122045 0.703609 0.906725 0.544741
C62   C     C_R   0.697441 0.048137 0.111472 0.563913
C63   C     C_R   0.697278 0.686218 0.097386 0.533929
C64   C     C_3   0.580239 0.814985 0.781030 -0.228294
C65   C     C_R   0.090466 0.714054 0.113786 0.571656
C66   C     C_3   0.566151 0.800275 0.700574 -0.241670
C67   C     C_R   0.690928 0.159452 0.824260 -0.013592
C68   C     C_3   0.837479 0.637781 0.770364 -0.219086
C69   C     C_R   0.807536 0.141526 0.782306 0.017683
C70   C     C_R   0.796427 0.142632 0.706906 0.014977
Cr1   Cr    Cr6+3 0.392940 0.397950 0.502230 0.993723
Cr2   Cr    Cr6+3 0.398400 0.708500 0.501260 0.992031
Cr3   Cr    Cr6+3 0.708640 0.393530 0.496460 0.989929
Cr4   Cr    Cr6+3 0.937880 0.938320 0.007620 0.996751
Cr5   Cr    Cr6+3 0.625560 0.937220 0.994510 1.004649
Cr6   Cr    Cr6+3 0.938080 0.625010 0.001190 1.022670
H1    H     H_    0.603621 0.901723 0.790841 0.148422
H2    H     H_    0.917600 0.093236 0.608248 0.128487
H3    H     H_    0.251726 0.822778 0.702791 0.137540
H4    H     H_    0.478348 0.843615 0.807718 0.115784
H5    H     H_    0.231741 0.411373 0.891246 0.142967
H6    H     H_    0.228969 0.834733 0.829329 0.133628
H7    H     H_    0.206664 0.233730 0.826839 0.107398
H8    H     H_    0.161405 0.255144 0.697169 0.116796
H9    H     H_    0.145031 0.451282 0.633332 0.136447
H10   H     H_    0.428758 0.755424 0.299959 0.154196
H11   H     H_    0.919992 0.394181 0.135146 0.141172
H12   H     H_    0.712462 0.435429 0.703431 0.152501
H13   H     H_    0.447989 0.778469 0.171262 0.117716
H14   H     H_    0.129458 0.284065 0.206364 0.136563
H15   H     H_    0.128491 0.363446 0.329327 0.125700
H16   H     H_    0.455896 0.828504 0.688529 0.128969
H17   H     H_    0.915531 0.558799 0.379528 0.124226
H18   H     H_    0.751909 0.282006 0.297485 0.148032
H19   H     H_    0.460456 0.022608 0.149139 0.171179
H20   H     H_    0.784272 0.209202 0.175957 0.139843
H21   H     H_    0.301159 0.008276 0.230238 0.104550
H22   H     H_    0.341533 0.000236 0.359362 0.124248
H23   H     H_    0.924844 0.538932 0.790767 0.169375
H24   H     H_    0.534866 0.028867 0.405560 0.126200
H25   H     H_    0.298149 0.440793 0.306871 0.167769
H26   H     H_    0.116616 0.960786 0.162238 0.143005
H27   H     H_    0.589246 0.874895 0.671734 0.116553
H28   H     H_    0.030864 0.149857 0.244836 0.108619
H29   H     H_    0.970302 0.125970 0.367712 0.126405
H30   H     H_    0.994846 0.903242 0.406405 0.111593
H31   H     H_    0.866661 0.721074 0.778265 0.127048
H32   H     H_    0.844934 0.689980 0.659617 0.108397
H33   H     H_    0.745819 0.458053 0.820325 0.134626
H34   H     H_    0.896876 0.509537 0.674789 0.146833
H35   H     H_    0.562484 0.585121 0.829455 0.119916
H36   H     H_    0.531042 0.566014 0.710956 0.131258
H37   H     H_    0.450617 0.226744 0.697233 0.167415
H38   H     H_    0.945653 0.134231 0.868318 0.142961
H39   H     H_    0.472411 0.212062 0.821068 0.155150
H40   H     H_    0.147097 0.075570 0.793037 0.089628
H41   H     H_    0.132145 0.059970 0.663214 0.099096
I1    I     I_    0.322619 0.384435 0.146223 -0.411853
O1    O     O_R   0.507340 0.255690 0.581430 -0.529773
O2    O     O_R   0.837290 0.593240 0.915240 -0.524913
O3    O     O_R   0.065320 0.635310 0.931580 -0.505237
O4    O     O_R   0.280360 0.527380 0.578910 -0.513061
O5    O     O_R   0.068470 0.828620 0.091850 -0.555641
O6    O     O_R   0.799150 0.057200 0.079350 -0.509170
O7    O     O_R   0.585220 0.080180 0.076770 -0.503449
O8    O     O_R   0.627170 0.809480 0.067050 -0.526818
O9    O     O_R   0.816200 0.596410 0.076500 -0.526742
O10   O     O_R   0.045770 0.638240 0.081070 -0.465373
O11   O     O_3   0.833840 0.833520 0.001110 -0.267637
O12   O     O_R   0.524510 0.695820 0.424050 -0.508792
O13   O     O_R   0.260600 0.739610 0.584580 -0.531879
O14   O     O_R   0.532370 0.695050 0.573830 -0.511133
O15   O     O_R   0.744850 0.503430 0.576380 -0.531035
O16   O     O_R   0.699080 0.276500 0.571950 -0.513586
O17   O     O_R   0.498860 0.256520 0.419860 -0.528903
O18   O     O_R   0.272490 0.528150 0.429140 -0.512891
O19   O     O_R   0.252110 0.740440 0.423010 -0.519918
O20   O     O_R   0.736370 0.504260 0.414810 -0.526182
O21   O     O_R   0.691220 0.277270 0.422180 -0.514357
O22   O     O_3   0.499990 0.499990 0.499980 -0.237165
O23   O     O_R   0.089570 0.825450 0.930590 -0.523000
O24   O     O_R   0.818700 0.054260 0.929860 -0.507535
O25   O     O_R   0.606310 0.077010 0.915520 -0.522857
O26   O     O_R   0.646730 0.806540 0.917560 -0.510096

loop_
_geom_bond_atom_site_label_1
_geom_bond_atom_site_label_2
_ccdc_geom_bond_type
Cr4   O6    S    
C34   C56   S    
C5    H38   S    
C11   C13   A    
C64   H1    S    
C7    H41   S    
Cr1   O4    S    
C19   C20   A    
C43   H22   S    
C30   H14   S    
C16   O16   A    
C34   C66   S    
C62   O6    A    
C7    C8    A    
C4    O14   A    
C41   H19   S    
C53   C54   A    
C1    C21   S    
C12   C23   S    
C18   H7    S    
C26   C27   A    
Cr6   O2    S    
C55   H29   S    
C5    C6    A    
Cr6   O3    S    
C14   C21   A    
C54   H28   S    
C36   C37   A    
C9    C16   S    
C10   C15   A    
Cr1   O17   S    
C30   C31   A    
C2    H37   S    
C56   H12   S    
Cr3   O20   S    
C46   C52   S    
C51   I1    S    
C49   C57   A    
C61   O3    A    
C18   C19   A    
C41   C42   A    
C24   C29   A    
C5    C69   A    
C59   C67   S    
C22   C63   S    
C1    O4    A    
C35   C36   A    
C59   O24   A    
C40   O20   A    
C47   C48   A    
C60   O2    A    
C68   H31   S    
C45   H32   S    
C25   C32   A    
Cr4   O5    S    
Cr4   O24   S    
C59   O25   A    
C8    H2    S    
C64   H4    S    
C36   C41   A    
C48   C53   A    
C12   H33   S    
Cr2   O14   S    
C15   H6    S    
Cr2   O19   S    
C23   C60   S    
C4    C34   S    
C33   C40   S    
C38   C46   A    
C50   C58   A    
C65   O10   A    
C9    C70   A    
Cr5   O26   S    
C16   O1    A    
Cr1   O18   S    
C45   H34   S    
C66   H16   S    
Cr3   O21   S    
C50   C51   A    
C49   C58   A    
C67   C69   A    
C64   C66   S    
C23   C68   S    
C35   C39   A    
C43   C44   A    
C29   C30   A    
Cr6   O11   S    
C26   C33   A    
C31   C32   A    
C53   H26   S    
C26   H10   S    
C32   H17   S    
C20   H9    S    
C38   H18   S    
C45   C68   S    
C17   C18   A    
C13   C21   A    
C34   C45   S    
C14   H3    S    
C24   C25   A    
C6    H40   S    
C12   C56   S    
Cr5   O25   S    
C61   O23   A    
C23   C64   S    
Cr4   O23   S    
Cr3   O15   S    
C31   H15   S    
C22   C27   A    
C55   C57   A    
Cr6   O10   S    
C22   C24   A    
C42   H21   S    
C10   C61   S    
C42   C43   A    
C19   H8    S    
C57   H30   S    
Cr2   O13   S    
C52   O17   A    
C40   O12   A    
C54   C55   A    
C11   C17   A    
Cr1   O22   S    
C13   C20   A    
C28   O18   A    
C66   H27   S    
C3    C67   A    
C28   O19   A    
C1    O13   A    
C62   O7    A    
C47   C51   A    
Cr2   O12   S    
C6    C7    A    
Cr3   O22   S    
C28   C58   S    
C8    C70   A    
Cr1   O1    S    
Cr5   O8    S    
C37   C44   A    
C2    C3    A    
C68   H23   S    
C52   O21   A    
C3    H39   S    
C60   O26   A    
C44   H24   S    
C38   C39   A    
C48   C49   A    
C47   C65   S    
C27   H13   S    
C35   C62   S    
C17   H5    S    
C65   O5    A    
C69   C70   A    
C39   H20   S    
C29   H11   S    
C63   O8    A    
C10   C11   A    
Cr2   O22   S    
Cr3   O16   S    
C50   H25   S    
Cr4   O11   S    
Cr6   O9    S    
C14   C15   A    
Cr5   O7    S    
C37   C46   A    
C2    C9    A    
C56   H36   S    
C12   H35   S    
C63   O9    A    
Cr5   O11   S    
C25   C33   A    
C4    O15   A    
