data_mof_unit_54966.cif
_audit_creation_date              2012-12-10T16:57:04-0500
_audit_creation_method            fapswitch 2.2
_symmetry_space_group_name_H-M    P1
_symmetry_Int_Tables_number       1
_space_group_crystal_system       triclinic
_cell_length_a                    7.739805
_cell_length_b                    8.612295
_cell_length_c                    16.719353
_cell_angle_alpha                 91.710815
_cell_angle_beta                  82.657746
_cell_angle_gamma                 93.056621
_cell_volume                      1103.46061732

loop_
_atom_site_label
_atom_site_type_symbol
_atom_type_description
_atom_site_fract_x
_atom_site_fract_y
_atom_site_fract_z
_atom_type_partial_charge
C1    C     C_R   0.545029 0.794012 0.497368 0.835610
C2    C     C_R   0.454981 0.205949 0.502576 0.834930
C3    C     C_2   0.566892 0.954866 0.485906 0.195360
C4    C     C_2   0.433200 0.045056 0.513929 0.210338
C5    C     C_R   0.482907 0.511489 0.654191 0.923585
C6    C     C_R   0.519563 0.503663 0.346109 0.990993
C7    C     C_R   0.493160 0.566318 0.737456 -0.514323
C8    C     C_R   0.521603 0.527592 0.260400 -0.462714
C9    C     C_R   0.656671 0.575897 0.767960 0.385095
C10   C     C_R   0.398800 0.624987 0.234476 0.321588
C11   C     C_R   0.672682 0.653849 0.840710 0.554009
C12   C     C_R   0.397444 0.644575 0.152303 0.515704
C13   C     C_R   0.525201 0.708343 0.887428 -0.492553
C14   C     C_R   0.512040 0.564123 0.096749 -0.375932
C15   C     C_R   0.363577 0.700216 0.858132 0.507539
C16   C     C_R   0.633429 0.467871 0.122288 0.550391
C17   C     C_R   0.347538 0.631253 0.783093 0.524057
C18   C     C_R   0.639682 0.450823 0.204151 0.465478
C19   C     C_2   0.527758 0.713443 0.974863 0.669787
C20   C     C_2   0.498389 0.574658 0.010895 0.576539
N1    N     N_2   0.953500 0.457650 0.478520 0.242497
N2    N     N_2   0.046500 0.542350 0.521480 0.275868
O1    O     O_R   0.388470 0.738640 0.505270 -0.571310
O2    O     O_R   0.611530 0.261360 0.494730 -0.581877
O3    O     O_R   0.679650 0.711510 0.491500 -0.579062
O4    O     O_R   0.320350 0.288490 0.508500 -0.560160
O5    O     O_R   0.337210 0.515200 0.623500 -0.553383
O6    O     O_R   0.662790 0.484800 0.376500 -0.594122
O7    O     O_R   0.628380 0.488060 0.609730 -0.562009
O8    O     O_R   0.371620 0.511940 0.390270 -0.579720
Zn1   Zn    Zn3+2 0.305580 0.518120 0.509190 1.169893
Zn2   Zn    Zn3+2 0.694420 0.481880 0.490810 1.141851
O9    O     O_3   0.803870 0.513293 0.726376 -0.469743
C21   C     C_3   0.811410 0.358661 0.750727 -0.049595
H1    H     H_    0.695380 0.285942 0.736586 0.081963
H2    H     H_    0.824302 0.353784 0.816156 0.184575
H3    H     H_    0.928577 0.307821 0.716849 0.177109
O10   O     O_3   0.291879 0.711524 0.289801 -0.580111
C22   C     C_3   0.117060 0.653603 0.291695 -0.036030
H4    H     H_    0.104512 0.524135 0.292798 0.186093
H5    H     H_    0.057151 0.696212 0.240151 0.195963
H6    H     H_    0.041036 0.698050 0.347693 0.166602
F1    F     F_    0.756261 0.355463 0.228372 -0.615774
F2    F     F_    0.188840 0.625608 0.756338 -0.544142
O11   O     O_3   0.473605 0.439839 0.964462 -0.658210
C23   C     C_3   0.327808 0.349538 0.999822 -0.223532
H7    H     H_    0.211729 0.420723 0.015742 0.225528
H8    H     H_    0.358917 0.289235 0.053670 0.178519
H9    H     H_    0.293138 0.258854 0.955300 0.196356
O12   O     O_3   0.572581 0.846420 0.019364 -0.592018
C24   C     C_3   0.586072 0.982369 0.973511 -0.109275
H10   H     H_    0.461576 0.001560 0.949466 0.159480
H11   H     H_    0.696354 0.978167 0.923968 0.171991
H12   H     H_    0.613361 0.083534 0.013408 0.230017
F3    F     F_    0.219171 0.748323 0.905164 -0.558256
F4    F     F_    0.745142 0.390654 0.067759 -0.593453
F5    F     F_    0.283341 0.740544 0.126417 -0.606971
F6    F     F_    0.828204 0.659000 0.870643 -0.542516
O13   O     O_3   0.724417 0.012686 0.445533 -0.565703
C25   C     C_3   0.721365 0.989364 0.361802 -0.093833
H13   H     H_    0.610832 0.047857 0.340911 0.156345
H14   H     H_    0.715239 0.863357 0.344986 0.110711
H15   H     H_    0.843906 0.041755 0.329655 0.233788
O14   O     O_3   0.275639 0.987430 0.554327 -0.548193
C26   C     C_3   0.282182 0.004004 0.638133 -0.154043
H16   H     H_    0.293414 0.128706 0.657158 0.112841
H17   H     H_    0.391196 0.940103 0.656890 0.113275
H18   H     H_    0.158866 0.952952 0.670234 0.241684
F7    F     F_    0.039629 0.352627 0.430882 -0.548299
F8    F     F_    0.960466 0.647548 0.569025 -0.497089

loop_
_geom_bond_atom_site_label_1
_geom_bond_atom_site_label_2
_ccdc_geom_bond_type
C1    C3    S    
C2    C4    S    
O2    Zn2   S    
O13   C25   S    
C15   C17   A    
O7    Zn2   S    
C21   H3    S    
C11   C13   A    
C4    O14   S    
C21   H2    S    
C19   C20   D    
C19   O12   S    
C10   O10   S    
C26   H18   S    
O14   C26   S    
C24   H12   S    
O3    Zn2   S    
C16   F4    S    
O9    C21   S    
C17   F2    S    
O4    Zn1   S    
C2    O4    A    
C16   C18   A    
C5    O5    A    
N1    N2    D    
C26   H16   S    
C1    O3    A    
C8    C18   A    
C9    C11   A    
C23   H9    S    
O10   C22   S    
C10   C12   A    
C9    O9    S    
C25   H15   S    
C12   F5    S    
C25   H14   S    
C6    O8    A    
C12   C14   A    
C1    O1    A    
C22   H6    S    
C5    O7    A    
C13   C15   A    
C2    O2    A    
O8    Zn1   S    
N1    Zn2   S    
C14   C16   A    
C26   H17   S    
N2    Zn1   S    
C13   C19   S    
C24   H11   S    
O5    Zn1   S    
C3    C4    D    
C11   F6    S    
C23   H8    S    
C14   C20   S    
O6    Zn2   S    
N1    F7    S    
C22   H5    S    
C5    C7    S    
C21   H1    S    
C20   O11   S    
C18   F1    S    
C22   H4    S    
C7    C9    A    
C3    O13   S    
C23   H7    S    
C6    C8    S    
O12   C24   S    
O11   C23   S    
N2    F8    S    
C8    C10   A    
C6    O6    A    
C24   H10   S    
O1    Zn1   S    
C25   H13   S    
C7    C17   A    
C15   F3    S    
