data_mof_unit_10488.cif
_audit_creation_date              2012-12-11T16:53:21-0500
_audit_creation_method            fapswitch 2.2
_symmetry_space_group_name_H-M    P1
_symmetry_Int_Tables_number       1
_space_group_crystal_system       triclinic
_cell_length_a                    14.705709
_cell_length_b                    14.748322
_cell_length_c                    17.090224
_cell_angle_alpha                 109.310047
_cell_angle_beta                  105.900725
_cell_angle_gamma                 108.111104
_cell_volume                      3017.25447919

loop_
_atom_site_label
_atom_site_type_symbol
_atom_type_description
_atom_site_fract_x
_atom_site_fract_y
_atom_site_fract_z
_atom_type_partial_charge
C1    C     C_R   0.087371 0.285641 0.076305 -0.151656
C2    C     C_R   0.060751 0.555819 0.262779 -0.135911
C3    C     C_R   0.283738 0.781557 0.171920 0.147182
C4    C     C_R   0.934084 0.514227 0.746541 -0.174584
C5    C     C_R   0.696628 0.401677 0.993941 -0.153959
C6    C     C_R   0.337565 0.783856 0.254333 0.026533
C7    C     C_R   0.633510 0.427415 0.937874 0.069681
C8    C     C_R   0.965295 0.545501 0.268222 0.078241
C9    C     C_R   0.993050 0.824213 0.992714 0.067099
C10   C     C_R   0.384947 0.446224 0.862120 -0.039666
C11   C     C_R   0.341982 0.405632 0.914265 0.045765
C12   C     C_R   0.022987 0.551791 0.732914 0.101975
C13   C     C_R   0.366468 0.328439 0.933070 -0.268699
C14   C     C_R   0.451863 0.312120 0.921674 0.152296
C15   C     C_R   0.517213 0.382458 0.898128 0.002688
C16   C     C_R   0.776515 0.200420 0.813068 -0.140638
C17   C     C_R   0.472637 0.432353 0.852935 0.016989
C18   C     C_3   0.422619 0.388933 0.750446 0.523126
C19   C     C_3   0.327439 0.404382 0.760281 -0.118326
C20   C     C_R   0.947439 0.577731 0.351169 0.055849
C21   C     C_R   0.025419 0.563288 0.651006 0.021330
C22   C     C_R   0.118953 0.675181 0.594322 0.308805
C23   C     C_R   0.760047 0.193909 0.726921 0.081137
C24   C     C_R   0.112765 0.650254 0.664820 -0.258238
C25   C     C_R   0.942094 0.492657 0.561328 0.079621
C26   C     C_R   0.950410 0.515091 0.488422 -0.041684
C27   C     C_R   0.035635 0.610440 0.506699 0.094197
C28   C     C_R   0.258729 0.532146 0.947919 -0.141649
C29   C     C_R   0.036011 0.636084 0.434623 -0.312748
C30   C     C_R   0.855449 0.506433 0.346977 0.276578
C31   C     C_R   0.869203 0.452335 0.398362 0.100295
C32   C     C_R   0.720626 0.097490 0.640723 0.098005
C33   C     C_R   0.444308 0.861500 0.325602 0.136874
C34   C     C_R   0.285065 0.453837 0.959059 0.082759
C35   C     C_R   0.584494 0.041712 0.406076 -0.208130
C36   C     C_R   0.489856 0.964727 0.333675 -0.191183
C37   C     C_R   0.495892 0.837015 0.392502 -0.281787
C38   C     C_R   0.583539 0.918452 0.472934 0.104591
C39   C     C_R   0.627084 0.021645 0.478458 0.181667
C40   C     C_R   0.782100 0.296580 0.736059 -0.140080
C41   C     C_R   0.702305 0.107821 0.560428 -0.287931
C42   C     C_R   0.687454 0.994812 0.635768 -0.214830
C43   C     C_R   0.622372 0.902787 0.550932 0.115083
C44   C     C_R   0.082674 0.131493 0.160850 0.022639
C45   C     C_R   0.273534 0.691367 0.253308 -0.188091
C46   C     C_R   0.995037 0.115283 0.088839 0.077371
C47   C     C_R   0.900889 0.021490 0.054525 -0.223293
C48   C     C_R   0.892629 0.955868 0.098921 -0.164461
C49   C     C_R   0.978972 0.980242 0.176176 0.010771
C50   C     C_R   0.075626 0.062719 0.200598 0.093256
C51   C     C_3   0.156360 0.149128 0.292716 0.045404
C52   C     C_R   0.250982 0.433889 0.022934 -0.134448
C53   C     C_3   0.162653 0.226906 0.250750 0.039671
C54   C     C_R   0.107504 0.587813 0.815812 -0.156090
C55   C     C_R   0.913881 0.201937 0.000937 -0.146657
C56   C     C_R   0.700899 0.496411 0.917490 -0.134609
C57   C     C_R   0.999635 0.192975 0.050895 0.074409
C58   C     C_3   0.332046 0.828634 0.118174 -0.474147
C59   C     C_3   0.427705 0.808664 0.113881 -0.218001
C60   C     C_3   0.457159 0.832686 0.041494 -0.950817
C61   C     C_3   0.466761 0.219431 0.933716 -0.438372
C62   C     C_3   0.489597 0.152760 0.857663 -0.224029
C63   C     C_3   0.512636 0.065868 0.875803 -0.948463
C64   C     C_3   0.489484 0.459565 0.718488 -0.973126
C65   C     C_3   0.395628 0.270033 0.696641 -1.019328
C66   C     C_3   0.302037 0.486583 0.733207 -0.375301
C67   C     C_R   0.886894 0.471734 0.182625 -0.159141
C68   C     C_3   0.243955 0.440561 0.628803 -0.226553
C69   C     C_3   0.274823 0.526537 0.597327 -0.927138
C70   C     C_3   0.746868 0.490043 0.292746 -1.076960
C71   C     C_3   0.213793 0.772768 0.615103 -1.046534
C72   C     C_3   0.825436 0.330496 0.348379 -0.442943
C73   C     C_3   0.832839 0.288063 0.256216 -0.246887
C74   C     C_3   0.803864 0.168591 0.217303 -0.934192
C75   C     C_3   0.837364 0.406596 0.544783 -0.420063
C76   C     C_3   0.751153 0.446286 0.534378 -0.237243
C77   C     C_3   0.652760 0.373214 0.536005 -0.956255
C78   C     C_R   0.081667 0.808763 0.026047 -0.138501
C79   C     C_3   0.585701 0.790327 0.543877 -0.430434
C80   C     C_3   0.645541 0.781703 0.628336 -0.244067
C81   C     C_3   0.613635 0.664803 0.608840 -0.932632
C82   C     C_3   0.256857 0.134615 0.321978 -1.019785
C83   C     C_3   0.122563 0.307615 0.290984 -1.015959
C84   C     C_R   0.908318 0.722874 0.947861 -0.122047
H1    H     H_    0.165815 0.313061 0.126376 0.096794
H2    H     H_    0.254860 0.328020 0.730567 0.137653
H3    H     H_    0.105615 0.696824 0.440749 0.159203
H4    H     H_    0.175468 0.702974 0.732639 0.137220
H5    H     H_    0.733860 0.185362 0.562064 0.125596
H6    H     H_    0.766996 0.136139 0.831785 0.097785
H7    H     H_    0.707828 0.987552 0.698269 0.112001
H8    H     H_    0.617397 0.120787 0.410331 0.120370
H9    H     H_    0.450962 0.989023 0.287147 0.130297
H10   H     H_    0.462245 0.757142 0.385603 0.117824
H11   H     H_    0.831788 0.001526 0.996569 0.123221
H12   H     H_    0.677600 0.523501 0.867361 0.104644
H13   H     H_    0.817941 0.888604 0.075568 0.130641
H14   H     H_    0.124037 0.161285 0.345124 0.148734
H15   H     H_    0.278274 0.571221 0.907849 0.103513
H16   H     H_    0.240171 0.264743 0.249454 0.142247
H17   H     H_    0.777406 0.322661 0.684298 0.098673
H18   H     H_    0.259525 0.378143 0.048868 0.096301
H19   H     H_    0.189169 0.639026 0.836435 0.081606
H20   H     H_    0.832249 0.153890 0.983686 0.090173
H21   H     H_    0.294985 0.657496 0.298495 0.103325
H22   H     H_    0.390989 0.779288 0.972680 0.252840
H23   H     H_    0.803399 0.442811 0.161120 0.125919
H24   H     H_    0.476645 0.917518 0.056946 0.266153
H25   H     H_    0.527092 0.818921 0.040886 0.252663
H26   H     H_    0.497317 0.860100 0.180398 0.204330
H27   H     H_    0.410011 0.724038 0.097624 0.206106
H28   H     H_    0.271525 0.788817 0.046755 0.201521
H29   H     H_    0.351734 0.914892 0.144005 0.168911
H30   H     H_    0.583577 0.102651 0.940962 0.257899
H31   H     H_    0.444258 0.010988 0.879566 0.264485
H32   H     H_    0.527757 0.018545 0.819442 0.251517
H33   H     H_    0.420010 0.114208 0.791175 0.201673
H34   H     H_    0.161898 0.870346 0.061109 0.097719
H35   H     H_    0.558119 0.203797 0.851602 0.204604
H36   H     H_    0.526305 0.247580 0.003024 0.177077
H37   H     H_    0.392950 0.163944 0.930638 0.186081
H38   H     H_    0.522003 0.546288 0.764688 0.225688
H39   H     H_    0.557015 0.441406 0.717137 0.239104
H40   H     H_    0.442643 0.442413 0.647959 0.260779
H41   H     H_    0.468998 0.259916 0.705485 0.255156
H42   H     H_    0.348485 0.219186 0.720200 0.235261
H43   H     H_    0.349038 0.241287 0.622799 0.255220
H44   H     H_    0.270542 0.598900 0.639948 0.278170
H45   H     H_    0.827125 0.702853 0.909206 0.093472
H46   H     H_    0.356649 0.549494 0.603163 0.255527
H47   H     H_    0.220730 0.495539 0.524952 0.250588
H48   H     H_    0.260349 0.374343 0.591708 0.200742
H49   H     H_    0.157453 0.406332 0.608699 0.187638
H50   H     H_    0.248420 0.506482 0.762539 0.165406
H51   H     H_    0.374248 0.562814 0.763125 0.206723
H52   H     H_    0.696390 0.405685 0.240096 0.248008
H53   H     H_    0.709041 0.510367 0.339694 0.254638
H54   H     H_    0.750831 0.543684 0.259678 0.260721
H55   H     H_    0.270693 0.814619 0.688077 0.254114
H56   H     H_    0.138693 0.605066 0.317649 0.105550
H57   H     H_    0.255982 0.748493 0.573379 0.251645
H58   H     H_    0.188263 0.830633 0.599654 0.259035
H59   H     H_    0.859777 0.153213 0.263688 0.262133
H60   H     H_    0.722492 0.122488 0.207726 0.264867
H61   H     H_    0.807561 0.140464 0.149972 0.259445
H62   H     H_    0.777582 0.299089 0.205581 0.199067
H63   H     H_    0.914283 0.332295 0.265043 0.213948
H64   H     H_    0.873035 0.304360 0.390659 0.195129
H65   H     H_    0.741526 0.292822 0.336646 0.195623
H66   H     H_    0.621567 0.289752 0.483114 0.263287
H67   H     H_    0.672695 0.340233 0.014267 0.107370
H68   H     H_    0.670326 0.375483 0.604111 0.257037
H69   H     H_    0.590952 0.401144 0.521626 0.259924
H70   H     H_    0.781952 0.528829 0.589138 0.195019
H71   H     H_    0.727155 0.449755 0.468378 0.203285
H72   H     H_    0.807435 0.329820 0.485460 0.168155
H73   H     H_    0.846459 0.375479 0.594900 0.175889
H74   H     H_    0.527532 0.622163 0.587647 0.262080
H75   H     H_    0.634303 0.623820 0.553904 0.261078
H76   H     H_    0.656073 0.661061 0.671500 0.251601
H77   H     H_    0.731862 0.821840 0.648866 0.201623
H78   H     H_    0.323413 0.285336 0.961745 0.125835
H79   H     H_    0.627403 0.820770 0.685904 0.191640
H80   H     H_    0.500501 0.757377 0.529064 0.185418
H81   H     H_    0.595336 0.739364 0.485157 0.193819
H82   H     H_    0.284867 0.118586 0.266920 0.249410
H83   H     H_    0.319805 0.208303 0.383759 0.262544
H84   H     H_    0.241281 0.066321 0.338772 0.262122
H85   H     H_    0.178101 0.362971 0.363516 0.255321
H86   H     H_    0.117861 0.356062 0.253811 0.260160
H87   H     H_    0.043537 0.266003 0.287845 0.265101
H88   H     H_    0.856963 0.505338 0.710540 0.127860
N1    N     N_R   0.055640 0.348550 0.045600 -0.036101
N2    N     N_R   0.811290 0.303400 0.871650 -0.038688
N3    N     N_R   0.205180 0.552990 0.997660 -0.042417
N4    N     N_R   0.814810 0.361830 0.823710 -0.040479
N5    N     N_R   0.201660 0.494570 0.045600 -0.040182
N6    N     N_R   0.068420 0.560530 0.871650 -0.034794
N7    N     N_R   0.948050 0.295860 0.997660 -0.035372
N8    N     N_R   0.185190 0.638170 0.176290 -0.044363
N9    N     N_R   0.798340 0.505430 0.954400 -0.038466
N10   N     N_R   0.931580 0.439470 0.128350 -0.041004
N11   N     N_R   0.051950 0.704140 0.002340 -0.043984
N12   N     N_R   0.944360 0.651450 0.954400 -0.038721
N13   N     N_R   0.039170 0.492150 0.176290 -0.040044
N14   N     N_R   0.188710 0.696600 0.128350 -0.056385
N15   N     N_R   0.794820 0.447010 0.002340 -0.038498
N16   N     N_R   0.960830 0.507850 0.823710 -0.036611
Ni1   Ni    Ni4+2 0.119330 0.493420 0.109950 0.205639
Ni2   Ni    Ni4+2 0.880670 0.506580 0.890050 0.205899
Ni3   Ni    Ni4+2 0.872590 0.372590 0.000000 0.207009
Ni4   Ni    Ni4+2 0.127410 0.627410 0.000000 0.207646

loop_
_geom_bond_atom_site_label_1
_geom_bond_atom_site_label_2
_ccdc_geom_bond_type
C66   C68   S    
C74   H59   S    
C16   H6    S    
C81   H75   S    
C6    C45   A    
C27   C29   A    
C73   C74   S    
C74   H61   S    
C41   H5    S    
C35   C36   A    
C79   H80   S    
N11   N12   A    
C19   H2    S    
C67   H23   S    
N11   Ni4   S    
C59   H26   S    
N9    N15   A    
C13   H78   S    
C39   C41   A    
C82   H84   S    
C18   C65   S    
C48   H13   S    
C52   H18   S    
C26   C27   A    
C62   C63   S    
C20   C29   A    
C73   H63   S    
C58   H28   S    
C65   H43   S    
C61   H37   S    
C68   H49   S    
C78   H34   S    
C18   C19   S    
N8    Ni1   S    
C30   C31   A    
C66   H51   S    
C56   N9    A    
N1    N7    A    
C10   C17   A    
C16   N2    A    
C23   C40   A    
C83   H86   S    
C84   H45   S    
C33   C36   A    
C19   C66   S    
N16   Ni2   S    
C42   H7    S    
C76   H70   S    
C68   H48   S    
C52   N5    A    
C62   H33   S    
C21   C25   A    
C60   H25   S    
C45   N8    A    
C77   H69   S    
C40   H17   S    
C66   H50   S    
C63   H30   S    
C36   H9    S    
C69   H44   S    
C45   H21   S    
C69   H46   S    
C83   H87   S    
C58   H29   S    
C59   H27   S    
C32   C41   A    
C4    C12   A    
N15   Ni3   S    
C60   H24   S    
N2    Ni3   S    
C71   H57   S    
C63   H31   S    
C35   H8    S    
C75   H73   S    
C51   H14   S    
C7    C15   S    
C28   C34   A    
C59   C60   S    
C81   H76   S    
C13   C14   A    
C61   H36   S    
C70   H52   S    
C7    C56   A    
C75   H72   S    
C77   H68   S    
C30   C70   S    
C44   C46   A    
C50   C51   S    
C82   H83   S    
C53   H16   S    
C1    H1    S    
N5    Ni1   S    
C54   H19   S    
C84   N12   A    
C76   C77   S    
C72   C73   S    
N3    N5    A    
N3    Ni4   S    
C40   N4    A    
C68   C69   S    
C20   C30   A    
C25   C26   A    
C64   H40   S    
C14   C61   S    
C12   C21   S    
C33   C37   A    
C54   N6    A    
C25   C75   S    
N10   N13   A    
C65   H41   S    
C35   C39   A    
C75   C76   S    
C80   H79   S    
C37   C38   A    
C67   N10   A    
C1    C57   A    
N6    Ni4   S    
N9    Ni2   S    
N4    Ni2   S    
C47   C48   A    
C10   C19   S    
C69   H47   S    
C1    N1    A    
C17   C18   S    
C44   C53   S    
C56   H12   S    
C8    C20   S    
C79   H81   S    
C24   H4    S    
C51   C82   S    
C62   H35   S    
N8    N14   A    
C8    C67   A    
C71   H58   S    
C63   H32   S    
C28   H15   S    
C48   C49   A    
C70   H54   S    
C16   C23   A    
C22   C27   A    
C55   C57   A    
C46   C57   S    
C49   C50   A    
N12   Ni2   S    
C21   C24   A    
C42   C43   A    
C5    N15   A    
C3    N14   A    
C22   C71   S    
C60   H22   S    
C5    C7    A    
C82   H82   S    
C44   C50   A    
C15   C17   A    
C74   H60   S    
C46   C47   A    
C31   C72   S    
C32   C42   A    
C81   H74   S    
C4    H88   S    
C55   N7    A    
C11   C34   S    
C2    C8    A    
C80   C81   S    
C77   H66   S    
C71   H55   S    
C28   N3    A    
N13   Ni1   S    
C64   H39   S    
C76   H71   S    
C34   C52   A    
C5    H67   S    
C6    C33   S    
C73   H62   S    
C53   C83   S    
C2    H56   S    
C23   C32   S    
C4    N16   A    
C58   C59   S    
C2    N13   A    
N6    N16   A    
C38   C43   A    
C72   H64   S    
C65   H42   S    
C11   C13   A    
C18   C64   S    
C38   C39   A    
C55   H20   S    
C64   H38   S    
C83   H85   S    
N1    Ni1   S    
C37   H10   S    
C22   C24   A    
C9    C78   A    
N14   Ni4   S    
C61   C62   S    
N2    N4    A    
C80   H77   S    
C29   H3    S    
C10   C11   A    
C9    C84   A    
C79   C80   S    
C3    C58   S    
C26   C31   A    
N7    Ni3   S    
C70   H53   S    
C72   H65   S    
N10   Ni3   S    
C3    C6    A    
C47   H11   S    
C14   C15   A    
C51   C53   S    
C43   C79   S    
C12   C54   A    
C78   N11   A    
