data_mof_unit_54041.cif
_audit_creation_date              2012-10-26T20:43:03-0400
_audit_creation_method            fapswitch 2.2
_symmetry_space_group_name_H-M    P1
_symmetry_Int_Tables_number       1
_space_group_crystal_system       triclinic
_cell_length_a                    10.833431
_cell_length_b                    9.501922
_cell_length_c                    15.075558
_cell_angle_alpha                 90.061942
_cell_angle_beta                  90.199019
_cell_angle_gamma                 90.021735
_cell_volume                      1551.84368352

loop_
_atom_site_label
_atom_site_type_symbol
_atom_type_description
_atom_site_fract_x
_atom_site_fract_y
_atom_site_fract_z
_atom_type_partial_charge
C1    C     C_R   0.262012 0.499988 0.499939 0.548864
C2    C     C_R   0.128201 0.499989 0.499936 0.024649
C3    C     C_R   0.424828 0.074347 0.443631 0.037738
C4    C     C_R   0.575128 0.925654 0.556397 0.044320
C5    C     C_R   0.575126 0.074609 0.556402 0.037157
C6    C     C_R   0.424819 0.925389 0.443632 0.026585
C7    C     C_R   0.503340 0.499791 0.328624 0.543142
C8    C     C_R   0.494198 0.500016 0.671363 0.541031
C9    C     C_R   0.520840 0.379934 0.813460 -0.130338
C10   C     C_R   0.443067 0.606106 0.187168 -0.119591
C11   C     C_R   0.478697 0.497787 0.768017 -0.024894
C12   C     C_R   0.737990 0.500015 0.500040 0.544823
C13   C     C_R   0.503566 0.498216 0.231580 -0.022251
C14   C     C_R   0.420176 0.608160 0.814238 0.245036
C15   C     C_R   0.555158 0.384815 0.184279 0.230941
C16   C     C_R   0.412046 0.603049 0.908183 0.058735
C17   C     C_R   0.533907 0.373036 0.091774 0.039682
C18   C     C_R   0.465109 0.486093 0.953654 -0.022556
C19   C     C_R   0.473721 0.486270 0.046939 -0.019684
C20   C     C_R   0.512081 0.369987 0.905511 0.001542
C21   C     C_R   0.425579 0.601794 0.095308 0.016072
C22   C     C_R   0.352554 0.710773 0.958083 0.021450
C23   C     C_R   0.359830 0.710245 0.051430 0.008376
C24   C     C_R   0.569346 0.251242 0.042881 0.005479
C25   C     C_2   0.273107 0.818944 0.915448 0.323008
C26   C     C_2   0.615741 0.122360 0.087493 0.274968
C27   C     C_2   0.292591 0.821122 0.102108 0.236974
C28   C     C_2   0.584380 0.116137 0.900791 0.227394
C29   C     C_R   0.554565 0.248239 0.950067 -0.001987
C30   C     C_R   0.063799 0.372107 0.498881 -0.126245
C31   C     C_R   0.936213 0.627905 0.501054 -0.122475
C32   C     C_R   0.936103 0.372122 0.498930 -0.131633
C33   C     C_R   0.063910 0.627890 0.501005 -0.119970
C34   C     C_R   0.871809 0.500021 0.500012 0.020501
Cu1   Cu    Cu3+1 0.500000 0.640660 0.500000 0.971744
Cu2   Cu    Cu3+1 0.500000 0.359340 0.500000 0.973155
H1    H     H_    0.567049 0.298452 0.776042 0.175590
H2    H     H_    0.364627 0.869021 0.398523 0.128214
H3    H     H_    0.327014 0.688589 0.717881 0.346245
H4    H     H_    0.677228 0.337524 0.274173 0.333898
H5    H     H_    0.292033 0.929933 0.925647 0.131127
H6    H     H_    0.707912 0.120457 0.115851 0.156358
H7    H     H_    0.300767 0.930802 0.083130 0.137666
H8    H     H_    0.664088 0.053657 0.919607 0.123806
H9    H     H_    0.409265 0.693629 0.225930 0.186265
H10   H     H_    0.111798 0.272125 0.497983 0.136384
H11   H     H_    0.888215 0.727887 0.501952 0.135050
H12   H     H_    0.888019 0.272145 0.498089 0.134319
H13   H     H_    0.111997 0.727866 0.501846 0.138515
H14   H     H_    0.364635 0.130508 0.398533 0.128448
H15   H     H_    0.635294 0.869497 0.601513 0.129097
H16   H     H_    0.635271 0.130973 0.601540 0.117864
N1    N     N_R   0.500000 0.852070 0.500000 -0.232223
N2    N     N_R   0.500000 0.147930 0.500000 -0.229859
O1    O     O_R   0.319640 0.618740 0.499990 -0.513951
O2    O     O_3   0.629818 0.288371 0.227070 -0.703442
O3    O     O_2   0.182795 0.784018 0.872002 -0.464594
O4    O     O_2   0.551385 0.017077 0.091306 -0.522973
O5    O     O_2   0.222736 0.789804 0.162353 -0.506876
O6    O     O_2   0.516701 0.072626 0.841878 -0.492162
O7    O     O_R   0.680360 0.381260 0.500010 -0.515995
O8    O     O_R   0.680360 0.618740 0.500010 -0.509957
O9    O     O_R   0.319640 0.381260 0.499990 -0.509079
O10   O     O_R   0.499970 0.618800 0.370260 -0.508868
O11   O     O_R   0.500030 0.381200 0.629740 -0.504863
O12   O     O_R   0.500030 0.618800 0.629740 -0.478815
O13   O     O_R   0.499970 0.381200 0.370260 -0.475000
O14   O     O_3   0.376589 0.723712 0.768700 -0.631929

loop_
_geom_bond_atom_site_label_1
_geom_bond_atom_site_label_2
_ccdc_geom_bond_type
C16   C22   A    
C6    H2    S    
C5    H16   S    
C8    O12   A    
Cu1   O10   S    
C23   C27   S    
C4    N1    A    
Cu1   N1    S    
Cu2   O9    S    
C26   O4    D    
H3    O14   S    
C9    C20   A    
Cu1   Cu2   S    
C30   H10   S    
C2    C30   A    
C3    C6    A    
C15   O2    S    
C10   H9    S    
C9    H1    S    
C1    O1    A    
Cu2   O13   S    
C8    O11   A    
C10   C21   A    
C31   H11   S    
C30   C32   A    
C12   O7    A    
C32   H12   S    
C9    C11   A    
C28   O6    D    
C25   O3    D    
C8    C11   S    
C1    O9    A    
C2    C33   A    
C22   C23   A    
C28   C29   S    
C19   C21   A    
C3    H14   S    
C24   C26   S    
C10   C13   A    
C18   C19   A    
Cu1   O8    S    
C18   C20   A    
C20   C29   A    
C13   C15   A    
C21   C23   A    
C3    N2    A    
C14   C16   A    
C7    O10   A    
C31   C34   A    
C17   C24   A    
Cu2   N2    S    
C31   C33   A    
C4    H15   S    
C12   C34   S    
Cu2   O7    S    
C27   H7    S    
C5    N2    A    
C7    C13   S    
C12   O8    A    
C26   H6    S    
C16   C18   A    
C1    C2    S    
C33   H13   S    
C25   H5    S    
C11   C14   A    
C15   C17   A    
C14   O14   S    
Cu2   O11   S    
C27   O5    D    
C6    N1    A    
Cu1   O12   S    
C17   C19   A    
C24   C29   A    
C7    O13   A    
C28   H8    S    
Cu1   O1    S    
C4    C5    A    
H4    O2    S    
C22   C25   S    
C32   C34   A    
