data_mof_unit_13627.cif
_audit_creation_date              2013-03-05T16:04:20-0500
_audit_creation_method            fapswitch 2.2
_symmetry_space_group_name_H-M    P1
_symmetry_Int_Tables_number       1
_space_group_crystal_system       triclinic
_cell_length_a                    9.529402
_cell_length_b                    10.832003
_cell_length_c                    13.484677
_cell_angle_alpha                 90.821447
_cell_angle_beta                  72.9753
_cell_angle_gamma                 89.660475
_cell_volume                      1330.71489391

loop_
_atom_site_label
_atom_site_type_symbol
_atom_site_description
_atom_site_fract_x
_atom_site_fract_y
_atom_site_fract_z
_atom_type_partial_charge
O1    O     O_R   0.381250 0.680340 0.500010 -0.585635
O2    O     O_R   0.618820 0.680370 0.500010 -0.582859
C1    C     C_R   0.499781 0.737894 0.500039 0.808650
O3    O     O_R   0.323240 0.499950 0.650980 -0.578335
O4    O     O_R   0.560810 0.499980 0.650980 -0.592508
C2    C     C_R   0.423790 0.486727 0.699105 0.806022
Cu1   Cu    Cu3+1 0.359340 0.499980 0.500000 0.942605
Cu2   Cu    Cu3+1 0.640660 0.500020 0.500000 0.929177
O5    O     O_R   0.381180 0.319630 0.499990 -0.589843
O6    O     O_R   0.618750 0.319660 0.499990 -0.615108
O7    O     O_R   0.439190 0.500020 0.349020 -0.589064
O8    O     O_R   0.676760 0.500050 0.349020 -0.588198
C3    C     C_R   0.500315 0.262097 0.499749 0.776441
C4    C     C_R   0.578149 0.504877 0.300382 0.842561
C5    C     C_R   0.794336 0.569720 0.020825 -0.063649
H1    H     H_    0.860743 0.483661 0.821197 0.131998
C6    C     C_R   0.623117 0.512848 0.186924 -0.121735
C7    C     C_R   0.237057 0.441937 0.866145 -0.156387
C8    C     C_R   0.194800 0.427221 0.972971 -0.076890
C9    C     C_R   0.297190 0.437727 0.028053 -0.178174
C10   C     C_R   0.447880 0.454015 0.975853 0.104987
C11   C     C_R   0.493081 0.451780 0.865901 0.083035
C12   C     C_R   0.555022 0.478378 0.028592 0.086689
C13   C     C_R   0.699186 0.512018 0.971094 0.034918
C14   C     C_R   0.745878 0.482017 0.865411 -0.255924
C15   C     C_R   0.645571 0.443800 0.815561 -0.177161
C16   C     C_R   0.523496 0.471695 0.135968 -0.303518
C17   C     C_R   0.754868 0.570108 0.130808 0.225373
C18   C     C_R   0.385015 0.458188 0.811236 -0.121897
H2    H     H_    0.422337 0.431673 0.181671 0.165257
H3    H     H_    0.153160 0.441633 0.826590 0.143688
H4    H     H_    0.254346 0.435707 0.111336 0.126180
H5    H     H_    0.080190 0.413743 0.014044 0.150193
H6    H     H_    0.691611 0.407223 0.738049 0.186898
C19   C     C_R   0.626414 0.935474 0.502308 -0.168404
H7    H     H_    0.725153 0.886931 0.504497 0.155125
C20   C     C_R   0.626686 0.063189 0.502271 -0.165541
H8    H     H_    0.725408 0.110661 0.504588 0.174239
C21   C     C_R   0.500466 0.128233 0.499593 -0.029055
C22   C     C_R   0.373949 0.064518 0.496924 -0.166124
H9    H     H_    0.275230 0.113065 0.494689 0.164708
C23   C     C_R   0.373605 0.936800 0.497108 -0.175602
H10   H     H_    0.274752 0.889290 0.495060 0.155128
C24   C     C_R   0.499817 0.871761 0.499821 -0.031252
C25   C     C_R   0.900473 0.583726 0.559009 -0.057765
H11   H     H_    0.824430 0.650726 0.606443 0.137487
C26   C     C_R   0.049103 0.583464 0.559160 -0.041039
H12   H     H_    0.084872 0.650365 0.606715 0.126920
N1    N     N_R   0.147940 0.499970 0.499970 -0.180766
C27   C     C_R   0.101017 0.415916 0.441942 0.004253
H13   H     H_    0.180059 0.350412 0.395112 0.164242
C28   C     C_R   0.952578 0.414172 0.441476 0.090181
N2    N     N_R   0.852060 0.500060 0.499990 -0.205851
N3    N     N_2   0.835739 0.639424 0.185877 -0.403147
H14   H     H_    0.853848 0.730631 0.165577 0.281151
C29   C     C_3   0.957113 0.576978 0.208923 -0.565354
H15   H     H_    0.063246 0.612037 0.159403 0.246729
H16   H     H_    0.953426 0.475409 0.197344 0.195947
H17   H     H_    0.952011 0.596873 0.290767 0.224372
C30   C     C_2   0.912710 0.318149 0.375184 0.290615
H18   H     H_    0.818355 0.326971 0.347704 0.148523
O9    O     O_2   0.988914 0.225544 0.348073 -0.587057
C31   C     C_2   0.924323 0.638780 0.956838 0.325242
H19   H     H_    0.933220 0.660757 0.877018 0.072486
O10   O     O_2   0.022201 0.673913 0.991445 -0.548179

loop_
_geom_bond_atom_site_label_1
_geom_bond_atom_site_label_2
_geom_bond_distance
_ccdc_geom_bond_type
Cu2   N2    2.014479 S    
O4    Cu2   1.953673 S    
C27   C28   1.416628 A    
C12   C13   1.418291 A    
C31   O10   1.219249 D    
C13   C14   1.395778 A    
C22   H9    1.083335 S    
C20   H8    1.083009 S    
C11   C18   1.433117 A    
C12   C16   1.393036 A    
C8    C9    1.392815 A    
C29   H17   1.108359 S    
Cu2   O8    1.962957 S    
C22   C23   1.383508 A    
C27   H13   1.082524 S    
O8    C4    1.295082 A    
C25   N2    1.366311 A    
Cu1   Cu2   2.680815 S    
C20   C21   1.400203 A    
C7    C18   1.400906 A    
O1    Cu1   1.966017 S    
C10   C11   1.417498 A    
C28   N2    1.389765 A    
C16   H2    1.077841 S    
Cu1   O7    1.953674 S    
C19   C24   1.402039 A    
C4    C6    1.467004 S    
C5    C17   1.419220 A    
C23   C24   1.400236 A    
O3    Cu1   1.962956 S    
Cu2   O6    1.966017 S    
C5    C13   1.418902 A    
C19   C20   1.383428 A    
C29   H16   1.111209 S    
O6    C3    1.293439 A    
O2    C1    1.290888 A    
C10   C12   1.428583 A    
C11   C15   1.413890 A    
O4    C2    1.286604 A    
O7    C4    1.296028 A    
N3    C29   1.448830 S    
C1    C24   1.450090 S    
C3    C21   1.449975 S    
O3    C2    1.313365 A    
C23   H10   1.083304 S    
C31   H19   1.084681 S    
C6    C16   1.396527 A    
Cu1   O5    1.963373 S    
C21   C22   1.402041 A    
C2    C18   1.485256 S    
O5    C3    1.290992 A    
C9    C10   1.415392 A    
Cu1   N1    2.014635 S    
C26   N1    1.367886 A    
N1    C27   1.352950 A    
C9    H4    1.077366 S    
C25   C26   1.416938 A    
O2    Cu2   1.963375 S    
H1    C14   1.082739 S    
C29   H15   1.108781 S    
C17   N3    1.426562 S    
N3    H14   1.030963 S    
C7    C8    1.389360 A    
C5    C31   1.497359 S    
C7    H3    1.083223 S    
C28   C30   1.483984 S    
C14   C15   1.381981 A    
C25   H11   1.081664 S    
C6    C17   1.414207 A    
C15   H6    1.076794 S    
C30   O9    1.221714 D    
C26   H12   1.081737 S    
C8    H5    1.082077 S    
C30   H18   1.072382 S    
O1    C1    1.293486 A    
C19   H7    1.083301 S    
