data_mof_unit_54055.cif
_audit_creation_date              2012-12-10T17:48:56-0500
_audit_creation_method            fapswitch 2.2
_symmetry_space_group_name_H-M    P1
_symmetry_Int_Tables_number       1
_space_group_crystal_system       triclinic
_cell_length_a                    10.712155
_cell_length_b                    14.703558
_cell_length_c                    14.709293
_cell_angle_alpha                 64.879776
_cell_angle_beta                  103.522063
_cell_angle_gamma                 103.248982
_cell_volume                      2017.20483144

loop_
_atom_site_label
_atom_site_type_symbol
_atom_type_description
_atom_site_fract_x
_atom_site_fract_y
_atom_site_fract_z
_atom_type_partial_charge
C1    C     C_R   0.478919 0.119576 0.312368 0.881230
C2    C     C_3   0.876788 0.006594 0.490588 0.082305
C3    C     C_3   0.936539 0.932041 0.595360 -0.423322
C4    C     C_3   0.957201 0.115466 0.471812 -0.129460
C5    C     C_R   0.482235 0.186267 0.205565 -0.060396
C6    C     C_R   0.532161 0.812287 0.795835 -0.056898
C7    C     C_R   0.548819 0.222618 0.046115 -0.195436
C8    C     C_R   0.526884 0.154548 0.143164 -0.232731
C9    C     C_R   0.456062 0.285867 0.169394 0.190359
C10   C     C_R   0.500957 0.359509 0.079440 0.040101
C11   C     C_R   0.538124 0.325163 0.014267 0.118214
C12   C     C_R   0.259671 0.002583 0.496052 0.836326
C13   C     C_R   0.513216 0.465649 0.053036 0.075800
C14   C     C_R   0.533555 0.534236 0.953090 0.060468
C15   C     C_R   0.560059 0.496057 0.887103 -0.215338
C16   C     C_R   0.566142 0.393659 0.918663 -0.208645
C17   C     C_R   0.520377 0.505552 0.126456 -0.181914
C18   C     C_R   0.531823 0.609355 0.100014 -0.234879
C19   C     C_R   0.535306 0.676695 0.999256 0.160262
C20   C     C_R   0.533894 0.639517 0.924420 0.090866
C21   C     C_R   0.541179 0.781099 0.972427 -0.188392
C22   C     C_R   0.540578 0.848680 0.871308 -0.195457
C23   C     C_R   0.521441 0.880173 0.687871 0.793466
C24   C     C_R   0.529441 0.708611 0.822829 -0.252526
C25   C     C_R   0.721100 0.287535 0.664852 -0.325086
C26   C     C_R   0.685388 0.204811 0.636778 0.049733
C27   C     C_R   0.517081 0.284332 0.510280 0.004504
C28   C     C_R   0.548320 0.371209 0.535276 -0.027553
C29   C     C_R   0.652976 0.370769 0.614656 0.168561
C30   C     C_R   0.480031 0.457443 0.485345 0.065013
C31   C     C_R   0.518725 0.541866 0.515838 0.084333
C32   C     C_R   0.623352 0.536663 0.595888 -0.236818
C33   C     C_R   0.688719 0.452921 0.643963 -0.208463
C34   C     C_R   0.739054 0.003489 0.494413 0.769906
C35   C     C_R   0.374218 0.462017 0.406311 -0.230592
C36   C     C_R   0.308730 0.545660 0.358263 -0.185212
C37   C     C_R   0.345513 0.628387 0.386656 0.149882
C38   C     C_R   0.450896 0.628354 0.465455 -0.020817
C39   C     C_R   0.277230 0.711539 0.336513 -0.314004
C40   C     C_R   0.313432 0.794574 0.364095 0.081482
C41   C     C_R   0.483138 0.715806 0.489552 0.005237
C42   C     C_3   0.032528 0.964619 0.412314 0.094452
C43   C     C_3   0.888963 0.969614 0.408860 -0.398559
C44   C     C_3   0.082486 0.936568 0.597898 -0.456408
C45   C     C_3   0.098435 0.115544 0.463856 -0.385454
C46   C     C_3   0.121279 0.005418 0.491736 0.077604
Cu1   Cu    Cu3+1 0.465900 0.918260 0.475680 0.945759
Cu2   Cu    Cu3+1 0.534100 0.081740 0.524320 0.944112
H1    H     H_    0.042608 0.883495 0.436769 0.144490
H2    H     H_    0.963612 0.127038 0.543074 0.138137
H3    H     H_    0.140092 0.966656 0.655370 0.182295
H4    H     H_    0.923419 0.951360 0.657667 0.165839
H5    H     H_    0.593143 0.367976 0.867837 0.149558
H6    H     H_    0.518544 0.682596 0.762694 0.149689
H7    H     H_    0.542996 0.928771 0.851894 0.155633
H8    H     H_    0.537216 0.636914 0.158694 0.153453
H9    H     H_    0.580369 0.196189 0.997890 0.145491
H10   H     H_    0.546246 0.077455 0.169916 0.162853
H11   H     H_    0.585788 0.544486 0.813002 0.138380
H12   H     H_    0.525834 0.457631 0.206387 0.184105
H13   H     H_    0.544500 0.810264 0.029505 0.138020
H14   H     H_    0.768331 0.452461 0.705141 0.142012
H15   H     H_    0.562476 0.723025 0.547483 0.119870
H16   H     H_    0.261047 0.858870 0.325269 0.168716
H17   H     H_    0.228002 0.545468 0.298013 0.160025
H18   H     H_    0.801287 0.286288 0.725775 0.144478
H19   H     H_    0.737551 0.140376 0.675734 0.127112
H20   H     H_    0.438539 0.277518 0.451780 0.159270
H21   H     H_    0.844304 0.018164 0.332488 0.180559
H22   H     H_    0.657322 0.596264 0.623831 0.124185
H23   H     H_    0.338653 0.401601 0.379774 0.177454
H24   H     H_    0.196343 0.712377 0.276172 0.148111
H25   H     H_    0.833371 0.892060 0.423964 0.166213
H26   H     H_    0.104156 0.858356 0.622021 0.171174
H27   H     H_    0.886258 0.853064 0.609961 0.174112
H28   H     H_    0.164736 0.148152 0.516688 0.166063
H29   H     H_    0.122826 0.165230 0.386847 0.225991
N1    N     N_R   0.585360 0.204570 0.560800 -0.179096
N2    N     N_R   0.414550 0.795430 0.439160 -0.182737
O1    O     O_R   0.455060 0.022100 0.338110 -0.580111
O2    O     O_R   0.512640 0.160150 0.379180 -0.560959
O3    O     O_R   0.288900 0.930980 0.479450 -0.577959
O4    O     O_R   0.346480 0.069030 0.520520 -0.587867
O5    O     O_R   0.487360 0.839850 0.620820 -0.588364
O6    O     O_R   0.544940 0.977900 0.661890 -0.587772
O7    O     O_R   0.653520 0.930970 0.479480 -0.595824
O8    O     O_R   0.711100 0.069020 0.520550 -0.597521
Br1   Br    Br    0.326302 0.308625 0.226713 -0.584068
Br2   Br    Br    0.082604 0.033310 0.276718 -0.577195
C47   C     C_R   0.897934 0.205231 0.384948 0.096202
C48   C     C_R   0.893855 0.224894 0.281866 -0.142795
C49   C     C_R   0.845603 0.310618 0.204810 -0.108788
C50   C     C_R   0.801524 0.378389 0.229211 -0.133244
C51   C     C_R   0.803601 0.359897 0.330669 -0.126179
C52   C     C_R   0.852333 0.274534 0.408001 -0.084100
H30   H     H_    0.932151 0.176925 0.260022 0.187875
H31   H     H_    0.844338 0.325386 0.125990 0.149542
H32   H     H_    0.767287 0.445861 0.169423 0.139062
H33   H     H_    0.769058 0.412441 0.349541 0.131312
H34   H     H_    0.855407 0.263166 0.486113 0.121687

loop_
_geom_bond_atom_site_label_1
_geom_bond_atom_site_label_2
_ccdc_geom_bond_type
C43   H25   S    
C50   C51   A    
C19   C20   A    
Cu1   N2    S    
C27   N1    A    
C47   C52   A    
C45   C46   S    
C7    C11   A    
C26   N1    A    
C30   C35   A    
C45   H28   S    
C1    C5    S    
C26   H19   S    
C28   C29   A    
C19   C21   A    
C9    Br1   S    
C42   C46   S    
C30   C31   A    
C24   H6    S    
C15   C16   A    
C6    C22   A    
C29   C33   A    
Cu2   O2    S    
C18   C19   A    
C34   O7    A    
Cu1   O3    S    
Cu2   N1    S    
C20   C24   A    
C16   H5    S    
C27   H20   S    
C8    H10   S    
C48   H30   S    
C31   C32   A    
C33   H14   S    
C39   H24   S    
C3    H27   S    
C9    C10   A    
C21   H13   S    
C18   H8    S    
C2    C34   S    
C35   H23   S    
C43   H21   S    
C21   C22   A    
Cu1   O1    S    
C44   C46   S    
C49   H31   S    
C4    C47   S    
C4    C45   S    
C25   C29   A    
C3    C44   S    
Cu2   O8    S    
C23   O5    A    
Cu1   O7    S    
C14   C20   A    
C7    C8    A    
C38   C41   A    
C12   C46   S    
C48   C49   A    
C52   H34   S    
C32   H22   S    
C17   H12   S    
C25   C26   A    
C12   O4    A    
C4    H2    S    
C35   C36   A    
C2    C4    S    
C5    C9    A    
C37   C38   A    
C11   C16   A    
Cu1   Cu2   S    
C14   C15   A    
C2    C43   S    
C6    C24   A    
C17   C18   A    
C40   N2    A    
C12   O3    A    
Cu1   O5    S    
C44   H26   S    
C44   H3    S    
C42   C43   S    
C41   H15   S    
C39   C40   A    
C36   C37   A    
C36   H17   S    
C15   H11   S    
C25   H18   S    
C10   C13   A    
C41   N2    A    
C5    C8    A    
C3    H4    S    
Cu2   O4    S    
C22   H7    S    
C40   H16   S    
C31   C38   A    
C13   C17   A    
C42   Br2   S    
C32   C33   A    
C28   C30   A    
C2    C3    S    
C37   C39   A    
C47   C48   A    
C51   H33   S    
C6    C23   S    
C49   C50   A    
C34   O8    A    
C51   C52   A    
C10   C11   A    
C42   H1    S    
C23   O6    A    
C27   C28   A    
C1    O1    A    
Cu2   O6    S    
C45   H29   S    
C13   C14   A    
C1    O2    A    
C50   H32   S    
C7    H9    S    
