data_mof_unit_66548.cif
_audit_creation_date              2012-12-11T15:52:17-0500
_audit_creation_method            fapswitch 2.2
_symmetry_space_group_name_H-M    P1
_symmetry_Int_Tables_number       1
_space_group_crystal_system       triclinic
_cell_length_a                    11.209413
_cell_length_b                    11.097646
_cell_length_c                    18.793778
_cell_angle_alpha                 89.847295
_cell_angle_beta                  90.138863
_cell_angle_gamma                 120.1301
_cell_volume                      2022.02133918

loop_
_atom_site_label
_atom_site_type_symbol
_atom_type_description
_atom_site_fract_x
_atom_site_fract_y
_atom_site_fract_z
_atom_type_partial_charge
C1    C     C_R   0.520139 0.456916 0.147083 0.532389
C2    C     C_3   0.020645 0.739593 0.460608 -0.279594
C3    C     C_3   0.715637 0.977660 0.460929 -0.276570
C4    C     C_3   0.260956 0.284412 0.459709 -0.280419
C5    C     C_R   0.522814 0.453332 0.355821 0.549793
C6    C     C_R   0.547606 0.070271 0.355917 0.538842
C7    C     C_R   0.930566 0.477509 0.355889 0.548305
C8    C     C_R   0.457203 0.517688 0.647086 0.552076
C9    C     C_R   0.060231 0.542137 0.647088 0.546670
C10   C     C_R   0.481962 0.939513 0.647101 0.548200
C11   C     C_R   0.504930 0.990398 0.925566 -0.006698
C12   C     C_R   0.544600 0.066269 0.146710 0.528147
C13   C     C_R   0.990405 0.504122 0.920904 -0.014550
C14   C     C_R   0.448863 0.535166 0.934585 0.036701
C15   C     C_R   0.914756 0.467736 0.065291 0.020931
C16   C     C_R   0.509659 0.015407 0.074556 0.018828
C17   C     C_R   0.489595 0.497564 0.078511 -0.012404
C18   C     C_R   0.427609 0.040332 0.959136 0.042169
C19   C     C_R   0.931052 0.372432 0.952615 0.012644
C20   C     C_R   0.555253 0.644997 0.973382 -0.002886
C21   C     C_R   0.895280 0.354757 0.024121 0.017960
C22   C     C_R   0.429478 0.052774 0.032900 0.024776
C23   C     C_R   0.878999 0.455399 0.140057 0.565525
C24   C     C_R   0.571167 0.628434 0.046355 -0.006725
C25   C     C_R   0.591125 0.971401 0.040841 -0.172709
C26   C     C_R   0.956108 0.593628 0.030829 -0.112259
C27   C     C_R   0.391247 0.388937 0.036844 -0.107477
C28   C     C_R   0.990413 0.610706 0.960322 -0.070448
C29   C     C_R   0.592506 0.964442 0.967786 -0.109131
C30   C     C_R   0.364052 0.409789 0.968715 -0.113107
C31   C     C_3   0.278518 0.988986 0.953395 0.176710
C32   C     C_3   0.973943 0.266157 0.954736 0.162363
C33   C     C_3   0.708095 0.711158 0.960462 0.168445
C34   C     C_R   0.423768 0.545502 0.859765 0.569433
C35   C     C_3   0.944554 0.253678 0.035121 0.192934
C36   C     C_3   0.275606 0.990163 0.034403 0.152829
C37   C     C_3   0.723596 0.698928 0.039901 0.169209
C38   C     C_R   0.512263 0.012958 0.579628 0.012236
C39   C     C_R   0.987392 0.498908 0.579683 0.010171
C40   C     C_R   0.499502 0.487525 0.579617 0.013279
C41   C     C_R   0.960384 0.485668 0.431305 0.019213
C42   C     C_R   0.526009 0.040279 0.431308 0.018128
C43   C     C_R   0.514464 0.474869 0.431241 0.018192
C44   C     C_R   0.631716 0.039812 0.542713 0.024070
C45   C     C_R   0.064670 0.544276 0.853402 0.519057
C46   C     C_R   0.960239 0.592270 0.542595 0.024720
C47   C     C_R   0.405759 0.367867 0.542223 0.029649
C48   C     C_R   0.948032 0.585480 0.470145 0.050349
C49   C     C_R   0.637065 0.052085 0.470268 0.050905
C50   C     C_R   0.413461 0.362901 0.469827 0.048681
C51   C     C_R   0.417168 0.040447 0.468590 -0.159398
C52   C     C_R   0.961053 0.375924 0.468760 -0.157496
C53   C     C_R   0.623900 0.583865 0.469065 -0.159830
C54   C     C_R   0.972971 0.381730 0.543191 -0.166586
C55   C     C_R   0.411052 0.028273 0.543005 -0.163023
C56   C     C_R   0.479273 0.934040 0.853584 0.525916
C57   C     C_R   0.617167 0.589412 0.543495 -0.167523
C58   C     C_3   0.144058 0.042892 0.879815 -0.022225
C59   C     C_3   0.175444 0.015048 0.804006 -0.251905
C60   C     C_3   0.084978 0.027726 0.747186 -0.497950
C61   C     C_3   0.902762 0.153406 0.844590 0.003275
C62   C     C_3   0.820111 0.204301 0.801395 -0.227871
C63   C     C_3   0.826986 0.177188 0.722478 -0.452654
C64   C     C_3   0.796865 0.681905 0.853499 0.025154
C65   C     C_3   0.756464 0.566890 0.798256 -0.217045
C66   C     C_3   0.811561 0.629741 0.725158 -0.465129
C67   C     C_3   0.711079 0.963673 0.540909 -0.271938
C68   C     C_3   0.077738 0.215081 0.118901 -0.020116
C69   C     C_3   0.036708 0.215999 0.196632 -0.247361
C70   C     C_3   0.104316 0.161180 0.248203 -0.494226
C71   C     C_3   0.191943 0.853401 0.136982 0.004219
C72   C     C_3   0.236554 0.757770 0.172576 -0.215980
C73   C     C_3   0.229175 0.762468 0.253387 -0.466087
C74   C     C_3   0.829946 0.826345 0.143627 -0.018943
C75   C     C_3   0.728114 0.829452 0.196608 -0.252532
C76   C     C_3   0.773374 0.834721 0.273843 -0.444574
C77   C     C_3   0.034676 0.748828 0.540625 -0.270460
C78   C     C_3   0.250805 0.289307 0.539645 -0.269879
Cr1   Cr    Cr6+3 0.769160 0.541570 0.250690 0.938229
Cr2   Cr    Cr6+3 0.458430 0.227590 0.250690 0.954336
Cr3   Cr    Cr6+3 0.772410 0.230840 0.250690 0.965342
Cr4   Cr    Cr6+3 0.541570 0.769160 0.749310 0.952745
Cr5   Cr    Cr6+3 0.227590 0.458430 0.749310 0.960497
Cr6   Cr    Cr6+3 0.230840 0.772410 0.749310 0.949091
H1    H     H_    0.656784 0.945734 0.071025 0.182214
H2    H     H_    0.860144 0.150983 0.053406 0.148208
H3    H     H_    0.236335 0.056702 0.056041 0.102733
H4    H     H_    0.758472 0.626096 0.054717 0.132305
H5    H     H_    0.335291 0.044958 0.440406 0.127473
H6    H     H_    0.957619 0.289374 0.440657 0.125135
H7    H     H_    0.711066 0.666385 0.441246 0.124653
H8    H     H_    0.982758 0.301646 0.570963 0.112968
H9    H     H_    0.322470 0.019284 0.570732 0.118161
H10   H     H_    0.697374 0.678315 0.571556 0.113706
H11   H     H_    0.648663 0.853663 0.558099 0.170468
H12   H     H_    0.966813 0.682972 0.058290 0.164676
H13   H     H_    0.143681 0.796922 0.557774 0.169305
H14   H     H_    0.205843 0.353698 0.556326 0.167705
H15   H     H_    0.952338 0.777030 0.439580 0.130784
H16   H     H_    0.821263 0.045814 0.439892 0.132480
H17   H     H_    0.222222 0.177496 0.438958 0.132848
H18   H     H_    0.814205 0.023877 0.566431 0.119085
H19   H     H_    0.974475 0.791691 0.566136 0.120184
H20   H     H_    0.205487 0.185092 0.565303 0.123076
H21   H     H_    0.120886 0.780717 0.432453 0.128871
H22   H     H_    0.654769 0.876353 0.432991 0.127860
H23   H     H_    0.345061 0.282593 0.053508 0.132098
H24   H     H_    0.222568 0.346128 0.431035 0.131618
H25   H     H_    0.117138 0.124861 0.877821 0.165339
H26   H     H_    0.053803 0.950567 0.903745 0.107450
H27   H     H_    0.285298 0.088670 0.790716 0.204338
H28   H     H_    0.156367 0.907676 0.801837 0.198351
H29   H     H_    0.974491 0.953908 0.758162 0.098061
H30   H     H_    0.110243 0.001392 0.694445 0.138555
H31   H     H_    0.104537 0.136040 0.744550 0.153302
H32   H     H_    0.871190 0.045973 0.827464 0.137784
H33   H     H_    0.013044 0.219934 0.830766 0.133391
H34   H     H_    0.026467 0.712680 0.939216 0.139132
H35   H     H_    0.712397 0.154827 0.819093 0.192957
H36   H     H_    0.860540 0.316384 0.808507 0.150613
H37   H     H_    0.934413 0.237534 0.703452 0.154773
H38   H     H_    0.761227 0.206537 0.691196 0.146918
H39   H     H_    0.794021 0.066320 0.713758 0.173798
H40   H     H_    0.909987 0.741219 0.857287 0.118927
H41   H     H_    0.767669 0.758104 0.833624 0.136132
H42   H     H_    0.799339 0.499848 0.813930 0.158169
H43   H     H_    0.642672 0.499665 0.795399 0.204325
H44   H     H_    0.763815 0.690578 0.706629 0.153378
H45   H     H_    0.655693 0.928676 0.944590 0.184047
H46   H     H_    0.789208 0.545966 0.686177 0.146768
H47   H     H_    0.924048 0.702324 0.728351 0.183588
H48   H     H_    0.186276 0.245803 0.121120 0.172655
H49   H     H_    0.025018 0.109804 0.094765 0.128846
H50   H     H_    0.072687 0.325038 0.212943 0.213340
H51   H     H_    0.923146 0.152482 0.201815 0.188146
H52   H     H_    0.084719 0.056537 0.232880 0.104272
H53   H     H_    0.064362 0.156228 0.302786 0.126049
H54   H     H_    0.216956 0.233239 0.249450 0.211319
H55   H     H_    0.082326 0.814567 0.148263 0.132414
H56   H     H_    0.285075 0.321638 0.940703 0.180896
H57   H     H_    0.243109 0.957287 0.162074 0.140778
H58   H     H_    0.169484 0.649189 0.154013 0.209732
H59   H     H_    0.343510 0.788553 0.157090 0.160500
H60   H     H_    0.310748 0.864975 0.273207 0.162298
H61   H     H_    0.244831 0.679857 0.277354 0.137592
H62   H     H_    0.127608 0.746573 0.270127 0.179965
H63   H     H_    0.931916 0.917821 0.152980 0.110916
H64   H     H_    0.845998 0.738668 0.154520 0.179675
H65   H     H_    0.721978 0.923030 0.186475 0.189873
H66   H     H_    0.623183 0.739146 0.188778 0.175859
H67   H     H_    0.223999 0.885884 0.927556 0.144559
H68   H     H_    0.821949 0.769976 0.282037 0.180063
H69   H     H_    0.682663 0.797191 0.309474 0.146716
H70   H     H_    0.848565 0.943145 0.289200 0.121525
H71   H     H_    0.083148 0.305624 0.940901 0.119476
H72   H     H_    0.763650 0.821969 0.943528 0.123244
O1    O     O_R   0.911480 0.572650 0.170990 -0.586854
O2    O     O_R   0.528970 0.640340 0.824320 -0.513136
O3    O     O_R   0.111370 0.471030 0.824320 -0.535246
O4    O     O_R   0.359660 0.888630 0.824320 -0.528270
O5    O     O_R   0.909980 0.572450 0.331530 -0.540127
O6    O     O_R   0.427550 0.337530 0.331530 -0.531120
O7    O     O_R   0.662470 0.090020 0.331530 -0.523918
O8    O     O_R   0.572450 0.909980 0.668470 -0.540660
O9    O     O_R   0.337530 0.427550 0.668470 -0.523750
O10   O     O_R   0.090020 0.662470 0.668470 -0.539374
O11   O     O_R   0.638950 0.528780 0.324500 -0.515671
O12   O     O_R   0.427350 0.338830 0.170990 -0.551382
O13   O     O_R   0.471220 0.110170 0.324500 -0.516192
O14   O     O_R   0.889830 0.361050 0.324500 -0.509932
O15   O     O_R   0.528780 0.638950 0.675500 -0.517816
O16   O     O_R   0.110170 0.471220 0.675500 -0.518366
O17   O     O_R   0.361050 0.889830 0.675500 -0.508338
O18   O     O_3   0.666667 0.333333 0.250560 -0.252532
O19   O     O_3   0.333333 0.666667 0.749440 -0.250931
O20   O     O_3   0.262119 0.095991 0.923236 -0.611085
O21   O     O_3   0.875928 0.145204 0.918504 -0.617838
O22   O     O_3   0.739220 0.622053 0.920585 -0.584577
O23   O     O_R   0.661170 0.088520 0.170990 -0.569412
O24   O     O_3   0.066475 0.315508 0.077133 -0.582285
O25   O     O_3   0.210905 0.853618 0.062416 -0.610553
O26   O     O_3   0.791148 0.832066 0.072534 -0.630621
O27   O     O_R   0.572650 0.911480 0.829010 -0.543544
O28   O     O_R   0.338830 0.427350 0.829010 -0.534525
O29   O     O_R   0.088520 0.661170 0.829010 -0.565743
O30   O     O_R   0.640340 0.528970 0.175680 -0.538819
O31   O     O_R   0.471030 0.111370 0.175680 -0.519652
O32   O     O_R   0.888630 0.359660 0.175680 -0.494774

loop_
_geom_bond_atom_site_label_1
_geom_bond_atom_site_label_2
_ccdc_geom_bond_type
C44   C49   A    
C40   C47   A    
C70   H52   S    
C11   C18   A    
C61   O21   S    
C69   H50   S    
C16   C25   A    
Cr1   O30   S    
Cr5   O19   S    
C72   H59   S    
C58   H25   S    
C73   H60   S    
C71   O25   S    
C37   H4    S    
C60   H30   S    
C45   O3    A    
C55   H9    S    
C54   H8    S    
C3    C49   S    
C33   H72   S    
C1    O30   A    
C4    C78   S    
C4    H24   S    
Cr4   O8    S    
C65   H43   S    
C74   H64   S    
C68   H49   S    
C19   C21   A    
Cr1   O5    S    
C23   O32   A    
Cr4   O2    S    
C35   H2    S    
C10   O8    A    
C39   C54   A    
C76   H68   S    
C75   H66   S    
C76   H69   S    
C9    C39   S    
C31   H67   S    
C25   C29   A    
C68   H48   S    
C52   H6    S    
C3    H16   S    
C43   C53   A    
C29   H45   S    
C38   C55   A    
C12   C16   S    
C7    C41   S    
C68   C69   S    
C78   H14   S    
C59   H27   S    
C13   C28   A    
C34   O28   A    
Cr6   O19   S    
Cr3   O32   S    
C62   H36   S    
C8    O15   A    
C42   C51   A    
C71   H57   S    
C10   O17   A    
C15   C23   S    
C5    C43   S    
C59   C60   S    
C69   H51   S    
C18   C22   A    
C4    H17   S    
C27   C30   A    
C67   H11   S    
Cr3   O7    S    
Cr1   O18   S    
Cr6   O29   S    
C69   C70   S    
Cr2   O13   S    
C14   C30   A    
C19   C32   S    
C63   H37   S    
C52   C54   A    
C59   H28   S    
C47   C50   A    
C31   O20   S    
C36   H3    S    
C26   H12   S    
C46   C48   A    
C17   C24   A    
C30   H56   S    
C74   C75   S    
C13   C19   A    
C61   H33   S    
C17   C27   A    
C32   C35   S    
C20   C24   A    
C74   H63   S    
Cr3   O23   S    
C53   C57   A    
C15   C26   A    
C71   H55   S    
C1    O12   A    
C2    C48   S    
C58   C59   S    
C64   H40   S    
C12   O31   A    
C78   H20   S    
Cr4   O27   S    
C68   O24   S    
C33   C37   S    
C73   H61   S    
C72   H58   S    
C75   C76   S    
C38   C44   A    
C62   C63   S    
C14   C20   A    
C32   H71   S    
C64   O22   S    
C27   H23   S    
C60   H29   S    
Cr5   O16   S    
C61   H32   S    
C25   H1    S    
C24   C37   S    
Cr3   O14   S    
Cr4   O19   S    
C77   H13   S    
Cr5   O9    S    
Cr2   O6    S    
C62   H35   S    
C39   C46   A    
C74   O26   S    
C53   H7    S    
C34   O2    A    
C2    H15   S    
C70   H54   S    
C57   H10   S    
Cr2   O31   S    
C32   O21   S    
C77   H19   S    
C65   C66   S    
C20   C33   S    
Cr6   O17   S    
C63   H38   S    
C7    O5    A    
C66   H47   S    
C35   O24   S    
Cr4   O15   S    
C9    O10   A    
C16   C22   A    
C40   C57   A    
C41   C52   A    
C65   H42   S    
C33   O22   S    
C58   H26   S    
C26   C28   A    
C3    C67   S    
C72   C73   S    
C44   C67   S    
C14   C34   S    
C46   C77   S    
C63   H39   S    
Cr6   O4    S    
C43   C50   A    
C21   C35   S    
C56   O27   A    
Cr1   O1    S    
C22   C36   S    
C2    H21   S    
C1    C17   S    
C73   H62   S    
C10   C38   S    
C5    O6    A    
C3    H22   S    
Cr2   O18   S    
C71   C72   S    
C56   O4    A    
C2    C77   S    
C28   H34   S    
Cr3   O18   S    
C13   C45   S    
C45   O29   A    
C58   O20   S    
C9    O16   A    
C75   H65   S    
C37   O26   S    
C23   O1    A    
C64   C65   S    
C76   H70   S    
C36   O25   S    
C41   C48   A    
C66   H44   S    
Cr5   O28   S    
C51   C55   A    
C5    O11   A    
C61   C62   S    
Cr6   O10   S    
C8    O9    A    
C42   C49   A    
C15   C21   A    
C12   O23   A    
Cr5   O3    S    
C6    O7    A    
C11   C29   A    
C70   H53   S    
C64   H41   S    
C6    C42   S    
C7    O14   A    
C4    C50   S    
C31   C36   S    
C60   H31   S    
C18   C31   S    
C8    C40   S    
C47   C78   S    
Cr1   O11   S    
Cr2   O12   S    
C51   H5    S    
C11   C56   S    
C67   H18   S    
C66   H46   S    
C6    O13   A    
