data_mof_unit_56108.cif
_audit_creation_date              2013-03-05T16:06:48-0500
_audit_creation_method            fapswitch 2.2
_symmetry_space_group_name_H-M    P1
_symmetry_Int_Tables_number       1
_space_group_crystal_system       triclinic
_cell_length_a                    6.933857
_cell_length_b                    14.577352
_cell_length_c                    16.165403
_cell_angle_alpha                 90.499683
_cell_angle_beta                  89.847103
_cell_angle_gamma                 90.113309
_cell_volume                      1633.8837964

loop_
_atom_site_label
_atom_site_type_symbol
_atom_site_description
_atom_site_fract_x
_atom_site_fract_y
_atom_site_fract_z
_atom_type_partial_charge
O1    O     O_R   0.505830 0.583360 0.413880 -0.576553
O2    O     O_R   0.175830 0.595460 0.585520 -0.548926
O3    O     O_R   0.005520 0.416640 0.586120 -0.554128
C1    C     C_R   0.344611 0.617054 0.614565 1.088947
O4    O     O_R   0.176120 0.594390 0.414490 -0.552259
O5    O     O_R   0.005810 0.415570 0.413870 -0.576540
C2    C     C_R   0.345123 0.615873 0.385746 1.081560
O6    O     O_R   0.505540 0.584430 0.586130 -0.580460
O7    O     O_3   0.339200 0.441330 0.500000 -0.251779
V1    V     V_3+5 0.064350 0.510880 0.500000 1.428028
O8    O     O_R   0.676100 0.404540 0.414480 -0.599934
C3    C     C_R   0.845736 0.380665 0.387283 1.090210
O9    O     O_R   0.675810 0.405610 0.585510 -0.573213
C4    C     C_R   0.844204 0.386848 0.615873 0.961724
V2    V     V_3+5 0.564340 0.489120 0.500000 1.388046
O10   O     O_3   0.839360 0.558670 0.500000 -0.224498
C5    C     C_2   0.730670 0.221420 0.795152 0.637775
C6    C     C_2   0.885313 0.167407 0.811759 -0.182726
C7    C     C_2   0.712376 0.277463 0.719150 0.544978
C8    C     C_2   0.858227 0.330033 0.690697 0.303773
C9    C     C_R   0.764982 0.259759 0.181864 -0.205120
C10   C     C_R   0.883178 0.182317 0.185716 -0.402190
C11   C     C_R   0.004090 0.174083 0.255314 0.810851
C12   C     C_R   0.992774 0.237508 0.322187 0.145240
C13   C     C_R   0.860451 0.311944 0.319471 -0.405165
C14   C     C_R   0.754942 0.323053 0.246525 -0.033683
C15   C     C_3   0.545166 0.340195 0.232951 0.456839
C16   C     C_3   0.555943 0.270361 0.162462 1.219867
H1    H     H_    0.452184 0.319492 0.285566 0.066283
C17   C     C_R   0.462370 0.667229 0.754798 -0.197422
C18   C     C_R   0.352240 0.683673 0.684102 -0.381126
C19   C     C_R   0.238105 0.763541 0.684214 0.802591
C20   C     C_R   0.250762 0.829078 0.749418 0.221272
C21   C     C_R   0.375199 0.813982 0.818021 -0.295358
C22   C     C_R   0.471941 0.729756 0.820138 -0.164615
C23   C     C_3   0.677296 0.705053 0.838282 0.688449
C24   C     C_3   0.665616 0.636436 0.766309 1.156797
C25   C     C_R   0.463971 0.762427 0.322382 -0.252756
C26   C     C_R   0.352579 0.682659 0.317293 -0.320556
C27   C     C_R   0.238007 0.670647 0.245980 0.819600
C28   C     C_R   0.250219 0.732505 0.178593 0.217204
C29   C     C_R   0.374893 0.810338 0.183220 -0.339074
C30   C     C_R   0.473637 0.824807 0.257776 -0.112735
C31   C     C_3   0.680083 0.847573 0.275597 1.171053
C32   C     C_3   0.669661 0.778345 0.346025 0.674771
O11   O     O_R   0.229930 0.912420 0.917160 -0.575212
O12   O     O_R   0.559420 0.902500 0.088780 -0.561307
O13   O     O_R   0.729660 0.081330 0.089380 -0.575228
C33   C     C_R   0.389578 0.878518 0.115646 1.087188
O14   O     O_R   0.559650 0.901420 0.917750 -0.565394
O15   O     O_R   0.729880 0.080250 0.917130 -0.571224
C34   C     C_R   0.390566 0.880984 0.887583 1.045318
O16   O     O_R   0.229700 0.913500 0.089410 -0.566855
O17   O     O_3   0.396250 0.055540 0.003280 -0.240755
V3    V     V_3+5 0.671130 0.986010 0.003260 1.414767
O18   O     O_R   0.059600 0.091310 0.917720 -0.564960
C35   C     C_R   0.891307 0.111550 0.888122 1.028687
O19   O     O_R   0.059370 0.092380 0.088750 -0.557902
C36   C     C_R   0.890529 0.114188 0.117549 1.112526
V4    V     V_3+5 0.171120 0.007820 0.003230 1.422145
O20   O     O_3   0.896130 0.938240 0.003240 -0.233359
F1    F     F_    0.579933 0.225058 0.849161 -0.578965
F2    F     F_    0.449115 0.191823 0.177064 -0.689217
F3    F     F_    0.123084 0.781232 0.618375 -0.579956
N1    N     N_R   0.154211 0.914965 0.739672 0.260983
O21   O     O_R   0.001685 0.933484 0.783598 -0.313318
O22   O     O_R   0.191870 0.964350 0.674965 -0.217830
N2    N     N_R   0.704240 0.662193 0.918912 0.256366
O23   O     O_R   0.866417 0.621510 0.935117 -0.213663
O24   O     O_R   0.576741 0.672350 0.977529 -0.323639
F4    F     F_    0.805707 0.776125 0.824850 -0.633138
F5    F     F_    0.676825 0.545179 0.788924 -0.660081
F6    F     F_    0.784617 0.658274 0.700373 -0.639491
F7    F     F_    0.121849 0.595745 0.239593 -0.593785
N3    N     N_R   0.152659 0.709071 0.103115 0.265632
O25   O     O_R   0.019835 0.762420 0.073794 -0.268141
O26   O     O_R   0.174420 0.627597 0.070978 -0.195143
F8    F     F_    0.705002 0.937952 0.300516 -0.639441
N4    N     N_R   0.036871 0.154258 0.751475 0.281631
O27   O     O_R   0.215526 0.147167 0.774906 -0.202329
O28   O     O_R   0.994653 0.139352 0.674092 -0.285566
F9    F     F_    0.804056 0.821609 0.212479 -0.644304
N5    N     N_R   0.690635 0.818334 0.428970 0.232858
O29   O     O_R   0.820301 0.786376 0.479010 -0.229019
O30   O     O_R   0.575338 0.882940 0.454891 -0.270411
F10   F     F_    0.785244 0.701947 0.333132 -0.624413
F11   F     F_    0.537695 0.278043 0.681036 -0.579411
F12   F     F_    0.025727 0.336095 0.734244 -0.601874
F13   F     F_    0.125143 0.101218 0.260865 -0.596064
N6    N     N_R   0.101204 0.219518 0.395566 0.255901
O31   O     O_R   0.250147 0.269919 0.413887 -0.349903
O32   O     O_R   0.074110 0.143032 0.434830 -0.216222
F14   F     F_    0.512719 0.428638 0.205806 -0.574631
F15   F     F_    0.525114 0.307167 0.084977 -0.576897

loop_
_geom_bond_atom_site_label_1
_geom_bond_atom_site_label_2
_geom_bond_distance
_ccdc_geom_bond_type
O13   V3    2.000153 S    
C9    C14   1.389891 A    
C15   H1    1.109483 S    
C28   C29   1.426614 A    
C7    C8    1.349875 D    
C1    O6    1.295431 A    
C20   N1    1.431035 S    
O12   C33   1.302309 A    
O17   V4    1.707743 S    
C14   C15   1.493464 S    
C17   C22   1.390754 A    
C23   C24   1.529901 S    
C31   F9    1.383159 S    
O5    C3    1.293082 A    
C17   C18   1.398858 A    
O19   V4    1.999852 S    
V2    O10   2.157941 S    
O11   C34   1.294051 A    
O18   C35   1.297882 A    
C16   F15   1.384234 S    
C21   C22   1.400969 A    
C25   C32   1.494688 S    
O8    V2    2.000057 S    
C18   C19   1.409044 A    
C6    N4    1.443202 S    
N1    O22   1.300584 A    
O14   C34   1.303935 A    
C11   C12   1.418456 A    
C11   F13   1.358814 S    
O15   C35   1.296088 A    
O7    V1    2.160442 S    
C23   F4    1.382956 S    
O9    C4    1.298352 A    
C32   N5    1.464873 S    
O16   V4    2.008705 S    
C20   C21   1.425797 A    
O4    C2    1.298222 A    
C4    C8    1.475425 S    
C12   C13   1.423430 A    
C19   F3    1.358475 S    
C26   C27   1.411218 A    
N4    O28   1.301812 A    
N2    O23   1.300687 A    
C13   C14   1.400131 A    
O18   V4    2.007165 S    
C17   C24   1.492497 S    
V4    O20   2.157962 S    
C22   C23   1.499767 S    
O2    C1    1.299246 A    
N3    O25   1.299724 A    
C5    F1    1.360890 S    
C28   N3    1.434991 S    
C6    C35   1.485423 S    
N6    O32   1.300843 A    
N5    O29   1.300713 A    
C5    C6    1.360281 D    
N3    O26   1.301062 A    
O3    C4    1.292249 A    
O1    V2    2.007121 S    
C27   C28   1.422426 A    
N5    O30   1.302293 A    
C9    C16   1.492420 S    
O6    V2    2.000151 S    
O9    V2    2.007209 S    
C30   C31   1.496961 S    
C15   F14   1.384535 S    
C29   C30   1.401870 A    
V3    O20   1.709730 S    
O2    V1    2.000272 S    
C10   C36   1.477845 S    
C31   C32   1.529412 S    
O13   C36   1.295300 A    
O12   V3    2.003259 S    
C24   F6    1.385088 S    
O17   V3    2.160485 S    
O11   V4    2.000405 S    
O1    C2    1.296817 A    
C21   C34   1.486897 S    
C12   N6    1.432509 S    
O5    V1    2.000180 S    
O8    C3    1.301590 A    
C23   N2    1.462908 S    
C7    F11   1.360445 S    
O14   V3    2.000252 S    
C3    C13   1.481975 S    
C19   C20   1.419160 A    
C31   F8    1.384965 S    
C32   F10   1.387313 S    
O7    V2    1.708222 S    
O4    V1    2.003307 S    
O3    V1    2.004962 S    
V1    O10   1.709788 S    
N6    O31   1.299585 A    
C25   C26   1.396619 A    
C33   O16   1.295131 A    
C8    F12   1.362030 S    
C5    C7    1.487192 S    
C27   F7    1.358877 S    
O15   V3    2.004965 S    
O19   C36   1.297830 A    
C1    C18   1.480055 S    
C29   C33   1.486389 S    
N4    O27   1.300920 A    
C16   F2    1.384038 S    
C25   C30   1.392150 A    
N2    O24   1.301908 A    
N1    O21   1.299760 A    
C24   F5    1.385070 S    
C15   C16   1.523136 S    
C2    C26   1.480977 S    
C10   C11   1.410982 A    
C9    C10   1.398249 A    
