data_mof_unit_56255.cif
_audit_creation_date              2012-12-10T18:58:43-0500
_audit_creation_method            fapswitch 2.2
_symmetry_space_group_name_H-M    P1
_symmetry_Int_Tables_number       1
_space_group_crystal_system       triclinic
_cell_length_a                    13.018422
_cell_length_b                    10.819374
_cell_length_c                    9.538787
_cell_angle_alpha                 89.770999
_cell_angle_beta                  96.549405
_cell_angle_gamma                 90.338535
_cell_volume                      1334.75043269

loop_
_atom_site_label
_atom_site_type_symbol
_atom_type_description
_atom_site_fract_x
_atom_site_fract_y
_atom_site_fract_z
_atom_type_partial_charge
C1    C     C_R   0.501305 0.262426 0.500531 0.793532
C2    C     C_R   0.028071 0.499041 0.566819 0.159403
C3    C     C_R   0.970380 0.499741 0.432545 0.089902
C4    C     C_R   0.863266 0.498410 0.421384 -0.169185
C5    C     C_R   0.869556 0.498755 0.676666 -0.188967
C6    C     C_R   0.977235 0.498324 0.688667 -0.160700
C7    C     C_R   0.486825 0.063410 0.621999 0.140665
C8    C     C_R   0.509655 0.129478 0.503504 -0.096385
C9    C     C_R   0.544796 0.065586 0.390525 -0.204405
C10   C     C_R   0.544701 0.936737 0.390572 -0.173501
C11   C     C_R   0.508763 0.871165 0.502802 -0.101255
C12   C     C_R   0.300123 0.500644 0.472630 0.838314
C13   C     C_R   0.486045 0.936067 0.621559 0.115917
C14   C     C_3   0.391540 0.929828 0.696989 -0.454024
C15   C     C_3   0.392998 0.070040 0.698164 -0.466056
C16   C     C_R   0.576537 0.559689 0.085124 0.233681
C17   C     C_R   0.431323 0.430156 0.064104 -0.022245
C18   C     C_R   0.431057 0.430463 0.915105 -0.056299
C19   C     C_R   0.576888 0.558937 0.937686 0.183344
C20   C     C_3   0.604083 0.692563 0.933241 -0.501163
C21   C     C_3   0.601151 0.694512 0.091751 0.152669
C22   C     C_R   0.501086 0.737759 0.500129 0.820113
C23   C     C_R   0.699494 0.499648 0.526818 0.824908
C24   C     C_R   0.812263 0.498851 0.542712 -0.058699
C25   C     C_R   0.186514 0.501434 0.454771 -0.145746
C26   C     C_R   0.020139 0.502558 0.310710 -0.205838
C27   C     C_R   0.127422 0.504362 0.320073 0.381471
C28   C     C_R   0.135479 0.499202 0.576968 -0.308675
Cu1   Cu    Cu3+1 0.499990 0.499980 0.640670 0.954376
Cu2   Cu    Cu3+1 0.500010 0.500020 0.359330 0.995969
H1    H     H_    0.819796 0.497345 0.317463 0.189982
H2    H     H_    0.407075 0.888980 0.804238 0.198989
H3    H     H_    0.325690 0.112000 0.633119 0.198419
H4    H     H_    0.410715 0.109537 0.805687 0.199996
H5    H     H_    0.374819 0.375083 0.111493 0.178145
H6    H     H_    0.373985 0.376056 0.850650 0.142441
H7    H     H_    0.682164 0.707518 0.899431 0.230868
H8    H     H_    0.542090 0.749022 0.875694 0.188776
H9    H     H_    0.536672 0.750634 0.123581 0.126454
H10   H     H_    0.831342 0.498943 0.771756 0.168032
H11   H     H_    0.975395 0.504277 0.207576 0.181571
H12   H     H_    0.020565 0.497979 0.792671 0.171034
H13   H     H_    0.179130 0.497724 0.680816 0.186134
H14   H     H_    0.568922 0.114665 0.300535 0.170852
H15   H     H_    0.569663 0.889283 0.301388 0.191780
H16   H     H_    0.323604 0.890031 0.630703 0.205287
N1    N     N_R   0.500660 0.500930 0.148010 -0.213258
N2    N     N_R   0.500660 0.500890 0.852110 -0.186256
O1    O     O_R   0.500000 0.319640 0.618810 -0.582164
O2    O     O_R   0.500010 0.319680 0.381230 -0.592642
O3    O     O_R   0.348990 0.499960 0.599490 -0.597037
O4    O     O_R   0.349000 0.500000 0.361910 -0.527443
O5    O     O_R   0.499990 0.680320 0.618770 -0.583514
O6    O     O_R   0.500000 0.680360 0.381190 -0.572979
O7    O     O_R   0.651000 0.500000 0.638090 -0.587941
O8    O     O_R   0.651010 0.500040 0.400510 -0.562128
Cl1   Cl    Cl    0.724482 0.725103 0.187490 -0.639343
Cl2   Cl    Cl    0.180659 0.512013 0.158217 -0.655177

loop_
_geom_bond_atom_site_label_1
_geom_bond_atom_site_label_2
_ccdc_geom_bond_type
C18   N2    A    
C23   C24   S    
C16   C21   S    
C23   O7    A    
Cu1   Cu2   S    
C25   C27   A    
C1    C8    S    
C20   H8    S    
C9    C10   A    
C15   H4    S    
Cu1   O7    S    
C19   C20   S    
C21   H9    S    
C7    C13   A    
C12   C25   S    
Cu2   O8    S    
C10   H15   S    
C7    C15   S    
C17   C18   A    
Cu2   O2    S    
C7    C8    A    
C22   O6    A    
Cu1   O1    S    
C13   C14   S    
C25   C28   A    
C21   Cl1   S    
C20   H7    S    
Cu2   O6    S    
C23   O8    A    
C26   C27   A    
C2    C6    A    
C5    C24   A    
Cu1   O5    S    
C16   C19   A    
C16   N1    A    
C17   H5    S    
C12   O4    A    
Cu1   O3    S    
C2    C3    A    
C22   O5    A    
C6    H12   S    
C5    C6    A    
C4    C24   A    
C4    H1    S    
C10   C11   A    
Cu1   N2    S    
C3    C4    A    
Cu2   N1    S    
C11   C13   A    
C12   O3    A    
C20   C21   S    
C11   C22   S    
C14   H16   S    
C1    O2    A    
C5    H10   S    
Cu2   O4    S    
C14   C15   S    
C9    H14   S    
C2    C28   A    
C28   H13   S    
C19   N2    A    
C18   H6    S    
C15   H3    S    
C3    C26   A    
C17   N1    A    
C26   H11   S    
C14   H2    S    
C8    C9    A    
C27   Cl2   S    
C1    O1    A    
