data_mof_unit_20879.cif
_audit_creation_date              2012-12-10T17:11:03-0500
_audit_creation_method            fapswitch 2.2
_symmetry_space_group_name_H-M    P1
_symmetry_Int_Tables_number       1
_space_group_crystal_system       triclinic
_cell_length_a                    10.036127
_cell_length_b                    10.706785
_cell_length_c                    16.982182
_cell_angle_alpha                 89.847372
_cell_angle_beta                  83.326825
_cell_angle_gamma                 89.758614
_cell_volume                      1812.43124501

loop_
_atom_site_label
_atom_site_type_symbol
_atom_type_description
_atom_site_fract_x
_atom_site_fract_y
_atom_site_fract_z
_atom_type_partial_charge
C1    C     C_R   0.500778 0.737350 0.496458 0.859070
C2    C     C_R   0.535808 0.523688 0.261694 -0.168597
C3    C     C_2   0.610843 0.065878 0.503302 -0.070716
C4    C     C_R   0.479125 0.500179 0.652458 0.958628
C5    C     C_2   0.498122 0.131731 0.516495 -0.171941
C6    C     C_2   0.602297 0.932755 0.510163 -0.343792
C7    C     C_2   0.507331 0.867476 0.478852 0.340452
C8    C     C_2   0.080473 0.418432 0.462531 -0.116427
C9    C     C_2   0.933934 0.430749 0.452915 -0.075612
C10   C     C_R   0.499576 0.262793 0.503776 0.946882
C11   C     C_R   0.520964 0.505303 0.347275 0.966866
C12   C     C_R   0.364233 0.605658 0.767612 -0.336840
C13   C     C_R   0.459520 0.516499 0.737311 -0.224822
C14   C     C_R   0.535057 0.449435 0.787894 0.424965
C15   C     C_R   0.517772 0.477882 0.867993 -0.294239
C16   C     C_R   0.427649 0.571927 0.897886 -0.035379
C17   C     C_R   0.347090 0.634015 0.847965 0.512598
C18   C     C_R   0.100155 0.623729 0.510183 0.237226
C19   C     C_R   0.091189 0.677070 0.585968 -0.161371
C20   C     C_R   0.046411 0.800150 0.597925 -0.135090
C21   C     C_R   0.012242 0.871287 0.534060 -0.076899
C22   C     C_R   0.024850 0.820109 0.457915 -0.098137
C23   C     C_R   0.428530 0.504467 0.142489 -0.114704
C24   C     C_R   0.070157 0.697271 0.445628 -0.097260
C25   C     C_R   0.432637 0.476996 0.221464 -0.219197
C26   C     C_R   0.640307 0.595983 0.220204 0.466790
C27   C     C_R   0.634534 0.622141 0.140164 -0.197590
C28   C     C_R   0.527649 0.579969 0.102100 0.086542
C29   C     C_2   0.417611 0.599260 0.982248 -0.059433
C30   C     C_2   0.529406 0.603717 0.017629 -0.181169
H1    H     H_    0.712493 0.677019 0.107070 0.199741
H2    H     H_    0.348830 0.464305 0.113079 0.158044
H3    H     H_    0.306048 0.655868 0.727816 0.200081
H4    H     H_    0.319014 0.602976 0.016082 0.194986
H5    H     H_    0.574658 0.426278 0.907772 0.191920
H6    H     H_    0.758509 0.279559 0.852082 0.365496
H7    H     H_    0.321890 0.835927 0.307285 0.385997
H8    H     H_    0.117017 0.622487 0.635795 0.164121
H9    H     H_    0.038125 0.840336 0.656711 0.193879
H10   H     H_    0.977384 0.966495 0.543401 0.154254
H11   H     H_    0.000772 0.876112 0.408306 0.161132
H12   H     H_    0.708716 0.108671 0.489147 0.176172
H13   H     H_    0.081136 0.659084 0.386242 0.173998
H14   H     H_    0.793410 0.772456 0.368821 0.366695
H15   H     H_    0.231024 0.910159 0.960858 0.398816
H16   H     H_    0.402761 0.087840 0.536423 0.180704
H17   H     H_    0.670807 0.888312 0.546887 0.167650
H18   H     H_    0.132753 0.336647 0.436936 0.174687
H19   H     H_    0.894837 0.377260 0.406627 0.186221
H20   H     H_    0.884096 0.527822 0.551353 0.200510
H21   H     H_    0.353452 0.419820 0.251554 0.186809
H22   H     H_    0.626640 0.610988 0.982169 0.178980
N1    N     N_2   0.147950 0.498670 0.499150 -0.140724
N2    N     N_2   0.852290 0.498640 0.499130 -0.184064
O1    O     O_R   0.386960 0.680940 0.500010 -0.586476
O2    O     O_2   0.775460 0.383292 0.714147 -0.303531
O3    O     O_3   0.683131 0.237438 0.830291 -0.500974
O4    O     O_2   0.284400 0.978783 0.437288 -0.346898
O5    O     O_2   0.494455 0.018565 0.351928 -0.264771
O6    O     O_3   0.382561 0.801598 0.344052 -0.534100
O7    O     O_2   0.860650 0.557724 0.292374 -0.331638
O8    O     O_2   0.860993 0.741852 0.206930 -0.278098
O9    O     O_3   0.714152 0.749058 0.342538 -0.516998
O10   O     O_2   0.175175 0.816782 0.816152 -0.295459
O11   O     O_2   0.115663 0.688959 0.934976 -0.293418
O12   O     O_R   0.613100 0.680900 0.499990 -0.628839
O13   O     O_3   0.304117 0.853855 0.938234 -0.520356
O14   O     O_R   0.373570 0.500040 0.615810 -0.636396
O15   O     O_R   0.599710 0.500000 0.615790 -0.565248
O16   O     O_R   0.386900 0.319100 0.500010 -0.615507
O17   O     O_R   0.613040 0.319060 0.499990 -0.611322
O18   O     O_R   0.400290 0.500000 0.384210 -0.611407
O19   O     O_R   0.626430 0.499960 0.384190 -0.556047
O20   O     O_2   0.586352 0.247586 0.695442 -0.279028
S1    S     S_3+6 0.647682 0.327721 0.754097 0.054588
S2    S     S_3+6 0.415053 0.922432 0.401926 0.045600
S3    S     S_3+6 0.775358 0.661092 0.264906 0.040698
S4    S     S_3+6 0.229340 0.750063 0.883745 0.038039
Zn1   Zn    Zn3+2 0.349000 0.500030 0.500020 1.000822
Zn2   Zn    Zn3+2 0.651000 0.499970 0.499980 1.039856

loop_
_geom_bond_atom_site_label_1
_geom_bond_atom_site_label_2
_ccdc_geom_bond_type
C3    H12   S    
O8    S3    D    
C19   C20   A    
C3    C6    S    
C25   H21   S    
O4    S2    D    
C26   C27   A    
H20   N2    S    
C18   C24   A    
N1    Zn1   S    
O18   Zn1   S    
C22   H11   S    
C15   C16   A    
C18   C19   A    
C4    C13   S    
C4    O15   A    
C18   N1    S    
O7    S3    D    
C8    C9    S    
C12   C17   A    
H15   O13   S    
C10   O17   A    
O14   Zn1   S    
O2    S1    D    
C13   C14   A    
O13   S4    S    
C2    C11   S    
C15   H5    S    
O17   Zn2   S    
N2    Zn2   S    
H14   O9    S    
C26   S3    S    
C6    H17   S    
C27   H1    S    
C9    H19   S    
H6    O3    S    
C11   O19   A    
C4    O14   A    
C20   H9    S    
C11   O18   A    
C16   C17   A    
C16   C29   S    
C29   H4    S    
O6    S2    S    
C8    H18   S    
C29   C30   D    
C19   H8    S    
O1    Zn1   S    
C1    O12   A    
C2    C26   A    
C23   C28   A    
C12   C13   A    
C7    S2    S    
C10   O16   A    
C22   C24   A    
O20   S1    D    
O9    S3    S    
C30   H22   S    
O11   S4    D    
O16   Zn1   S    
C1    C7    S    
O10   S4    D    
C3    C5    D    
C8    N1    D    
C6    C7    D    
O12   Zn2   S    
C5    H16   S    
C14   S1    S    
O3    S1    S    
C28   C30   S    
C1    O1    A    
C5    C10   S    
C23   H2    S    
C21   H10   S    
C17   S4    S    
O19   Zn2   S    
C2    C25   A    
C23   C25   A    
H7    O6    S    
C20   C21   A    
C27   C28   A    
C24   H13   S    
C14   C15   A    
O15   Zn2   S    
C9    N2    D    
C12   H3    S    
C21   C22   A    
O5    S2    D    
