data_mof_unit_55492.cif
_audit_creation_date              2012-12-11T15:31:55-0500
_audit_creation_method            fapswitch 2.2
_symmetry_space_group_name_H-M    P1
_symmetry_Int_Tables_number       1
_space_group_crystal_system       triclinic
_cell_length_a                    13.574591
_cell_length_b                    13.604198
_cell_length_c                    27.614809
_cell_angle_alpha                 90.273911
_cell_angle_beta                  90.312505
_cell_angle_gamma                 119.992278
_cell_volume                      4416.55238058

loop_
_atom_site_label
_atom_site_type_symbol
_atom_type_description
_atom_site_fract_x
_atom_site_fract_y
_atom_site_fract_z
_atom_type_partial_charge
C1    C     C_R   0.619632 0.898340 0.431365 0.548283
C2    C     C_R   0.581402 0.322786 0.213632 -0.058572
C3    C     C_R   0.573734 0.311258 0.263901 -0.095192
C4    C     C_R   0.662162 0.312092 0.290565 0.022726
C5    C     C_R   0.677562 0.335116 0.189668 0.020343
C6    C     C_1   0.689508 0.358810 0.138662 0.000476
C7    C     C_1   0.649027 0.291405 0.341781 -0.043911
C8    C     C_1   0.699940 0.387519 0.096926 0.057227
C9    C     C_1   0.227116 0.860758 0.383817 0.028667
C10   C     C_R   0.169558 0.932702 0.265978 0.040865
C11   C     C_R   0.148969 0.922384 0.215122 0.156775
C12   C     C_R   0.599718 0.218624 0.431330 0.547914
C13   C     C_R   0.130655 0.733541 0.216941 0.170839
C14   C     C_R   0.144855 0.742706 0.267130 -0.124319
C15   C     C_R   0.165279 0.841034 0.291630 -0.064486
C16   C     C_R   0.135059 0.824227 0.190538 -0.023298
C17   C     C_1   0.118467 0.811815 0.138647 0.094839
C18   C     C_1   0.194573 0.850288 0.342440 0.006231
C19   C     C_1   0.094770 0.793538 0.096207 0.106099
C20   C     C_1   0.635876 0.865455 0.383999 0.004303
C21   C     C_R   0.582601 0.726389 0.268499 -0.096008
C22   C     C_R   0.586529 0.713920 0.218118 0.239078
C23   C     C_R   0.278929 0.878647 0.430759 0.548069
C24   C     C_R   0.735046 0.912220 0.213382 -0.148708
C25   C     C_R   0.730932 0.923467 0.263469 -0.114695
C26   C     C_R   0.654998 0.830696 0.291154 -0.001602
C27   C     C_R   0.663066 0.808222 0.190388 0.027360
C28   C     C_1   0.675954 0.798088 0.139106 0.040144
C29   C     C_1   0.645795 0.846041 0.342218 -0.036124
C30   C     C_1   0.693034 0.787484 0.097140 0.063407
C31   C     C_R   0.627580 0.251320 0.619675 0.010680
C32   C     C_R   0.734801 0.339244 0.633993 -0.129205
C33   C     C_R   0.768038 0.353262 0.682965 0.078087
C34   C     C_R   0.620758 0.900552 0.568847 0.540226
C35   C     C_R   0.691457 0.275920 0.717247 0.004482
C36   C     C_R   0.589400 0.182157 0.701445 -0.149202
C37   C     C_R   0.556418 0.171334 0.653363 -0.117779
C38   C     C_R   0.613393 0.336885 0.782438 -0.092997
C39   C     C_R   0.605045 0.363222 0.830378 0.257304
C40   C     C_R   0.764359 0.334446 0.850216 -0.165159
C41   C     C_R   0.765607 0.300569 0.802600 -0.083265
C42   C     C_R   0.694110 0.307839 0.768156 -0.011368
C43   C     C_R   0.687409 0.370115 0.864535 0.000765
C44   C     C_R   0.231473 0.864009 0.616603 -0.000115
C45   C     C_R   0.600889 0.220863 0.569094 0.537272
C46   C     C_R   0.171461 0.917420 0.631755 -0.122143
C47   C     C_R   0.137897 0.909104 0.679898 -0.100698
C48   C     C_R   0.168559 0.851625 0.713408 0.048076
C49   C     C_R   0.231721 0.799941 0.698427 0.085666
C50   C     C_R   0.259400 0.804186 0.649874 -0.107380
C51   C     C_R   0.056087 0.726151 0.778077 -0.127531
C52   C     C_R   0.036706 0.701005 0.826471 -0.134624
C53   C     C_R   0.149110 0.902513 0.846981 0.026570
C54   C     C_R   0.170541 0.927946 0.797125 0.051977
C55   C     C_R   0.127729 0.837345 0.763269 -0.004347
C56   C     C_R   0.280729 0.881638 0.568458 0.538347
C57   C     C_R   0.084670 0.787569 0.861273 -0.003898
C58   C     C_R   0.642090 0.859231 0.614258 0.016731
C59   C     C_R   0.554556 0.760317 0.635365 -0.117992
C60   C     C_R   0.565413 0.733249 0.682791 -0.100118
C61   C     C_R   0.663998 0.804260 0.709406 0.027769
C62   C     C_R   0.754407 0.898843 0.687357 -0.115083
C63   C     C_R   0.743642 0.926078 0.640015 -0.118958
C64   C     C_R   0.772478 0.794528 0.779150 -0.110349
C65   C     C_R   0.786009 0.788825 0.828444 -0.093734
C66   C     C_R   0.595368 0.756266 0.842219 -0.073817
C67   C     C_1   0.630961 0.265000 0.383746 0.002636
C68   C     C_R   0.582116 0.763335 0.792411 -0.088768
C69   C     C_R   0.671536 0.784159 0.760858 0.026726
C70   C     C_R   0.698550 0.771588 0.860184 0.060978
C71   C     C_R   0.049475 0.761208 0.048156 0.565511
C72   C     C_R   0.714153 0.435396 0.049626 0.555017
C73   C     C_R   0.723562 0.770773 0.049483 0.547257
C74   C     C_R   0.043220 0.755757 0.910480 0.557887
C75   C     C_R   0.707983 0.430198 0.911471 0.549676
C76   C     C_R   0.718940 0.764414 0.911231 0.532609
C77   C     C_R   0.757973 0.323201 0.266631 -0.096417
C78   C     C_R   0.765833 0.335090 0.216248 -0.101141
Cr1   Cr    Cr6+3 0.417720 0.831920 0.499820 1.038809
Cr2   Cr    Cr6+3 0.668190 0.085770 0.500360 1.042898
Cr3   Cr    Cr6+3 0.414060 0.082260 0.499840 1.045107
Cr4   Cr    Cr6+3 0.908000 0.821090 0.979770 1.100392
Cr5   Cr    Cr6+3 0.912420 0.571130 0.979880 1.080819
Cr6   Cr    Cr6+3 0.657970 0.566940 0.980940 1.147252
H1    H     H_    0.826081 0.322144 0.286825 0.142815
H2    H     H_    0.795186 0.984661 0.192554 0.153636
H3    H     H_    0.786416 0.004886 0.280578 0.142818
H4    H     H_    0.793035 0.394868 0.606791 0.142946
H5    H     H_    0.555690 0.337872 0.755463 0.167373
H6    H     H_    0.823800 0.271477 0.792536 0.182125
H7    H     H_    0.825840 0.335449 0.875681 0.150980
H8    H     H_    0.531805 0.121089 0.727240 0.183960
H9    H     H_    0.840901 0.345229 0.198145 0.186717
H10   H     H_    0.476443 0.098339 0.642148 0.142651
H11   H     H_    0.150877 0.965248 0.606469 0.128402
H12   H     H_    0.019428 0.657857 0.751852 0.169481
H13   H     H_    0.981078 0.613360 0.836629 0.151446
H14   H     H_    0.088735 0.947893 0.691189 0.121606
H15   H     H_    0.309817 0.766679 0.638562 0.162155
H16   H     H_    0.475414 0.706832 0.616175 0.144656
H17   H     H_    0.512912 0.323317 0.193526 0.206179
H18   H     H_    0.841484 0.808639 0.755337 0.116381
H19   H     H_    0.865129 0.797458 0.841924 0.127670
H20   H     H_    0.496008 0.658698 0.699093 0.143646
H21   H     H_    0.503962 0.756213 0.778686 0.149167
H22   H     H_    0.526906 0.741055 0.866525 0.141544
H23   H     H_    0.831221 0.954929 0.707521 0.122654
H24   H     H_    0.812341 0.002628 0.624595 0.142056
H25   H     H_    0.498681 0.301185 0.281989 0.165747
H26   H     H_    0.143443 0.673929 0.287336 0.175100
H27   H     H_    0.522971 0.655496 0.290128 0.145513
O1    O     O_R   0.302900 0.805360 0.446400 -0.503292
O2    O     O_R   0.657980 0.180990 0.549630 -0.494564
O3    O     O_R   0.503420 0.197810 0.553190 -0.506386
O4    O     O_R   0.320350 0.978840 0.548910 -0.502465
O5    O     O_3   0.499990 0.999990 0.500010 -0.258144
O6    O     O_R   0.819150 0.845650 0.033320 -0.489177
O7    O     O_R   0.006060 0.815720 0.028680 -0.475766
O8    O     O_R   0.028100 0.664460 0.032550 -0.466488
O9    O     O_R   0.811290 0.477490 0.029660 -0.485937
O10   O     O_R   0.638120 0.455970 0.034270 -0.473291
O11   O     O_R   0.667540 0.672320 0.030160 -0.477269
O12   O     O_R   0.522090 0.841370 0.450730 -0.492142
O13   O     O_R   0.814460 0.840990 0.926980 -0.509677
O14   O     O_R   0.001710 0.811400 0.930110 -0.494381
O15   O     O_R   0.023410 0.659800 0.926210 -0.501434
O16   O     O_R   0.806940 0.473170 0.931090 -0.524969
O17   O     O_R   0.633420 0.451310 0.927930 -0.417785
O18   O     O_R   0.663190 0.668000 0.931580 -0.461354
O19   O     O_3   0.826130 0.653050 0.980200 -0.295546
O20   O     O_R   0.693280 0.995650 0.447220 -0.500778
O21   O     O_R   0.657260 0.178740 0.451050 -0.494000
O22   O     O_R   0.502640 0.195380 0.446850 -0.498597
O23   O     O_R   0.319630 0.976590 0.450330 -0.485494
O24   O     O_R   0.303680 0.807790 0.552740 -0.511598
O25   O     O_R   0.522820 0.843620 0.549310 -0.508455
O26   O     O_R   0.694060 0.998080 0.553560 -0.511469
S1    S     S_3+6 0.496055 0.580421 0.190613 0.053138
O27   O     O_2   0.418799 0.592546 0.155005 -0.157823
O28   O     O_2   0.566487 0.541199 0.163830 -0.314649
O29   O     O_3   0.416353 0.483039 0.232044 -0.451033
H28   H     H_    0.470109 0.466792 0.249822 0.324530
S2    S     S_3+6 0.490194 0.385882 0.844101 0.039542
O30   O     O_2   0.425747 0.314405 0.886597 -0.227132
O31   O     O_2   0.535389 0.508845 0.856036 -0.287483
O32   O     O_3   0.400716 0.350847 0.796492 -0.522676
H29   H     H_    0.342054 0.369303 0.806885 0.388251
C79   C     C_2   0.883525 0.445819 0.696449 0.564946
O33   O     O_2   0.928391 0.533596 0.673112 -0.534665
O34   O     O_R   0.944289 0.430054 0.733647 -0.713494
H30   H     H_    0.025716 0.494514 0.736576 0.352332
C80   C     C_2   0.238889 0.046701 0.780313 0.604367
O35   O     O_2   0.211512 0.116678 0.791517 -0.437881
O36   O     O_R   0.331591 0.077411 0.750007 -0.710230
H31   H     H_    0.368042 0.159344 0.739365 0.348986
C81   C     C_2   0.199073 0.993480 0.884391 0.619206
O37   O     O_2   0.264928 0.992974 0.914639 -0.481239
O38   O     O_R   0.167282 0.076512 0.886311 -0.623363
H32   H     H_    0.205467 0.132291 0.914036 0.369407
C82   C     C_2   0.272876 0.743365 0.732389 0.551941
O39   O     O_2   0.299967 0.778131 0.774003 -0.505630
O40   O     O_R   0.282923 0.651214 0.716225 -0.721642
H33   H     H_    0.310166 0.618723 0.742636 0.335847
C83   C     C_2   0.199791 0.039547 0.292478 0.624876
O41   O     O_2   0.274045 0.130600 0.276991 -0.453433
O42   O     O_R   0.144768 0.035657 0.335681 -0.696958
H34   H     H_    0.173376 0.113683 0.350537 0.347191
S3    S     S_3+6 0.136400 0.029616 0.183023 0.066410
O43   O     O_2   0.252669 0.118393 0.166800 -0.182723
O44   O     O_2   0.060129 0.981807 0.139288 -0.288823
O45   O     O_3   0.082629 0.091534 0.218754 -0.435488
H35   H     H_    0.006645 0.029160 0.228168 0.325725
S4    S     S_3+6 0.106444 0.606616 0.187866 0.045042
O46   O     O_2   0.206638 0.633198 0.156454 -0.168898
O47   O     O_2   0.091796 0.518560 0.224258 -0.252066
O48   O     O_3   0.989249 0.554578 0.152633 -0.510647
H36   H     H_    0.932702 0.562321 0.172332 0.319111

loop_
_geom_bond_atom_site_label_1
_geom_bond_atom_site_label_2
_ccdc_geom_bond_type
Cr6   O17   S    
S2    O32   S    
C66   C68   A    
O45   H35   S    
C40   C41   A    
Cr2   O21   S    
C72   O10   A    
C48   C55   S    
C41   C42   A    
Cr6   O18   S    
C15   C18   S    
C19   C71   S    
C35   C36   A    
C24   C27   A    
C21   C26   A    
Cr3   O23   S    
C66   C70   A    
C77   C78   A    
C64   H18   S    
C23   O1    A    
C38   H5    S    
C50   H15   S    
C47   H14   S    
Cr1   O1    S    
C21   C22   A    
C83   O41   D    
C79   O34   S    
C38   C42   A    
C10   C15   A    
C5    C6    S    
C74   O14   A    
C78   H9    S    
Cr6   O11   S    
S2    O30   D    
C32   H4    S    
C52   H13   S    
C25   H3    S    
S2    O31   D    
C75   O17   A    
C11   C16   A    
Cr5   O8    S    
C35   C42   S    
C17   C19   T    
C54   C55   A    
C45   O3    A    
C40   C43   A    
C46   H11   S    
Cr2   O5    S    
C16   C17   S    
Cr3   O3    S    
O38   H32   S    
C49   C82   S    
Cr4   O19   S    
C75   O16   A    
C23   O23   A    
C51   H12   S    
C83   O42   S    
C36   H8    S    
S3    O44   D    
C41   H6    S    
C77   H1    S    
C59   C60   A    
Cr2   O20   S    
S4    O46   D    
C13   C14   A    
C59   H16   S    
Cr5   O9    S    
C72   O9    A    
C66   H22   S    
C4    C7    S    
Cr4   O13   S    
C21   H27   S    
C44   C46   A    
C20   C29   T    
S4    O47   D    
C43   C75   S    
C38   C39   A    
C12   C67   S    
C8    C72   S    
C73   O6    A    
O32   H29   S    
C51   C52   A    
C76   O13   A    
C24   C25   A    
Cr5   O19   S    
C10   C11   A    
Cr5   O16   S    
C30   C73   S    
C53   C57   A    
C9    C23   S    
C54   C80   S    
C62   H23   S    
C2    H17   S    
Cr6   O10   S    
C53   C54   A    
Cr1   O12   S    
C31   C37   A    
C60   C61   A    
C82   O40   S    
C57   C74   S    
C65   C70   A    
C13   S4    S    
C1    O12   A    
Cr4   O14   S    
C62   C63   A    
Cr1   O25   S    
C33   C79   S    
C76   O18   A    
C44   C56   S    
C47   C48   A    
Cr2   O2    S    
C34   O25   A    
Cr3   O4    S    
C64   C69   A    
C79   O33   D    
O36   H31   S    
S1    O28   D    
C26   C29   S    
O48   H36   S    
C39   S2    S    
C49   C50   A    
C22   C27   A    
C63   H24   S    
C70   C76   S    
O42   H34   S    
C58   C59   A    
C2    C5    A    
C68   H21   S    
C65   H19   S    
Cr5   O15   S    
C3    C4    A    
C56   O24   A    
C52   C57   A    
O40   H33   S    
S4    O48   S    
C44   C50   A    
C58   C63   A    
C14   H26   S    
C46   C47   A    
S3    O43   D    
C1    C20   S    
C10   C83   S    
C12   O21   A    
C71   O7    A    
C11   S3    S    
O34   H30   S    
C68   C69   A    
C31   C32   A    
C80   O36   S    
C1    O20   A    
S1    O29   S    
C6    C8    T    
Cr3   O22   S    
Cr1   O24   S    
C22   S1    S    
C34   O26   A    
C71   O8    A    
C12   O22   A    
C61   C69   S    
C64   C65   A    
C81   O38   S    
C2    C3    A    
C25   C26   A    
C4    C77   A    
C60   H20   S    
O29   H28   S    
C32   C33   A    
C74   O15   A    
C3    H25   S    
C48   C49   A    
Cr3   O5    S    
Cr6   O19   S    
C33   C35   A    
C56   O4    A    
C28   C30   T    
C37   H10   S    
C51   C55   A    
C40   H7    S    
C61   C62   A    
C82   O39   D    
S1    O27   D    
C7    C67   T    
C45   O2    A    
C9    C18   T    
C81   O37   D    
C80   O35   D    
C39   C43   A    
C53   C81   S    
C36   C37   A    
C73   O11   A    
C31   C45   S    
C13   C16   A    
C27   C28   S    
C34   C58   S    
Cr4   O7    S    
C14   C15   A    
S3    O45   S    
Cr4   O6    S    
C5    C78   A    
Cr1   O5    S    
C24   H2    S    
Cr2   O26   S    
