data_mof_unit_45797.cif
_audit_creation_date              2013-03-05T16:42:34-0500
_audit_creation_method            fapswitch 2.2
_symmetry_space_group_name_H-M    P1
_symmetry_Int_Tables_number       1
_space_group_crystal_system       triclinic
_cell_length_a                    11.523793
_cell_length_b                    10.802047
_cell_length_c                    9.966
_cell_angle_alpha                 88.534003
_cell_angle_beta                  89.268363
_cell_angle_gamma                 90.463213
_cell_volume                      1240.02212587

loop_
_atom_site_label
_atom_site_type_symbol
_atom_site_description
_atom_site_fract_x
_atom_site_fract_y
_atom_site_fract_z
_atom_type_partial_charge
O1    O     O_R   0.500010 0.316790 0.614690 -0.579881
O2    O     O_R   0.500000 0.316760 0.385350 -0.641572
C1    C     C_R   0.497529 0.260235 0.501443 0.905784
O3    O     O_R   0.334450 0.500030 0.614670 -0.590755
O4    O     O_R   0.334440 0.500000 0.385330 -0.563449
C2    C     C_R   0.282220 0.500350 0.500594 0.915404
Zn1   Zn    Zn3+2 0.500010 0.500020 0.653130 1.046612
Zn2   Zn    Zn3+2 0.499990 0.499980 0.346870 1.078000
O5    O     O_R   0.500000 0.683240 0.614650 -0.601194
O6    O     O_R   0.499990 0.683210 0.385310 -0.554784
O7    O     O_R   0.665560 0.500000 0.614670 -0.618139
O8    O     O_R   0.665550 0.499970 0.385330 -0.577004
C3    C     C_R   0.496267 0.739082 0.498570 0.934667
C4    C     C_R   0.717802 0.500049 0.499287 0.902283
C5    C     C_1   0.161682 0.501184 0.501208 -0.089672
C6    C     C_1   0.059418 0.501324 0.500130 0.028452
C7    C     C_1   0.940687 0.500934 0.498520 0.040171
C8    C     C_1   0.838395 0.500479 0.498015 -0.096152
C9    C     C_R   0.541971 0.058621 0.606956 -0.013770
C10   C     C_R   0.493681 0.127692 0.502393 -0.067861
C11   C     C_R   0.443943 0.067302 0.394220 -0.257732
H1    H     H_    0.398554 0.119598 0.318455 0.229084
C12   C     C_R   0.441280 0.938763 0.390487 0.308883
C13   C     C_R   0.493001 0.870710 0.496161 -0.114580
C14   C     C_R   0.543603 0.931780 0.602204 -0.154279
C15   C     C_3   0.525430 0.913477 0.750810 0.055846
C16   C     C_3   0.516552 0.054478 0.756243 0.431134
H2    H     H_    0.603360 0.872839 0.799152 0.155798
C17   C     C_R   0.399921 0.484323 0.072452 0.087009
N1    N     N_R   0.499240 0.499140 0.142800 -0.193188
C18   C     C_R   0.596949 0.532943 0.068118 0.309373
C19   C     C_R   0.597355 0.528520 0.925096 -0.115928
H3    H     H_    0.675851 0.551716 0.869061 0.194577
N2    N     N_R   0.499240 0.499180 0.857150 -0.149371
C20   C     C_R   0.398504 0.489134 0.931075 0.132753
C21   C     C_3   0.308824 0.388837 0.925158 0.157411
C22   C     C_3   0.316821 0.377335 0.079429 0.795506
H4    H     H_    0.341121 0.310043 0.867274 0.135691
O9    O     O_3   0.213561 0.413962 0.146573 -0.563137
C23   C     C_3   0.145558 0.311192 0.190737 -0.063554
H5    H     H_    0.182122 0.269795 0.284132 0.162296
H6    H     H_    0.138066 0.239634 0.113130 0.168537
H7    H     H_    0.056799 0.343675 0.214766 0.175592
O10   O     O_3   0.363352 0.263136 0.131317 -0.666376
C24   C     C_3   0.478090 0.235559 0.088614 -0.203734
H8    H     H_    0.543557 0.276838 0.154149 0.185045
H9    H     H_    0.497595 0.263891 0.983599 0.152005
H10   H     H_    0.490611 0.134413 0.098721 0.274618
N3    N     N_R   0.375498 0.880031 0.288012 0.229540
O11   O     O_R   0.297408 0.796569 0.320862 -0.338131
O12   O     O_R   0.379055 0.924319 0.165476 -0.283398
N4    N     N_R   0.417786 0.847201 0.790027 0.278094
O13   O     O_R   0.323376 0.858506 0.720384 -0.295438
O14   O     O_R   0.415399 0.779540 0.899815 -0.299924
N5    N     N_R   0.399887 0.096591 0.795471 0.187534
O15   O     O_R   0.359706 0.068166 0.914854 -0.315550
O16   O     O_R   0.326731 0.135815 0.705826 -0.431080
N6    N     N_R   0.609570 0.111147 0.833552 0.152394
O17   O     O_R   0.650379 0.054638 0.939594 -0.385857
O18   O     O_R   0.654328 0.217459 0.795366 -0.398145
N7    N     N_R   0.698029 0.579353 0.131749 0.229440
O19   O     O_R   0.691390 0.682101 0.196559 -0.325147
O20   O     O_R   0.799729 0.537829 0.098149 -0.375270
O21   O     O_3   0.202242 0.439483 0.882159 -0.537751
C25   C     C_3   0.135506 0.347911 0.819811 -0.099854
H11   H     H_    0.124904 0.263047 0.884279 0.169165
H12   H     H_    0.175092 0.323745 0.721855 0.167373
H13   H     H_    0.047834 0.385395 0.800228 0.185585

loop_
_geom_bond_atom_site_label_1
_geom_bond_atom_site_label_2
_geom_bond_distance
_ccdc_geom_bond_type
C9    C10   1.390689 A    
O4    Zn2   1.941084 S    
N5    O15   1.299675 A    
C23   H7    1.109282 S    
C17   N1    1.360287 A    
N2    C20   1.369006 A    
C15   N4    1.470710 S    
C9    C16   1.512139 S    
C18   N7    1.426881 S    
C15   H2    1.112610 S    
C18   C19   1.427325 A    
O8    C4    1.292240 A    
N1    C18   1.383167 A    
Zn2   O8    1.950794 S    
C25   H13   1.109217 S    
Zn2   N1    2.034142 S    
O21   C25   1.409728 S    
C10   C11   1.400708 A    
C22   O10   1.435895 S    
N5    O16   1.301557 A    
C7    C8    1.178834 T    
C2    C5    1.389093 S    
C1    C10   1.431851 S    
C22   O9    1.421658 S    
C14   C15   1.500923 S    
O1    Zn1   2.025592 S    
C11   H1    1.075119 S    
O10   C24   1.420066 S    
Zn1   O7    1.941084 S    
C15   C16   1.529655 S    
O4    C2    1.290078 A    
O3    Zn1   1.950793 S    
C21   H4    1.104755 S    
C21   C22   1.543288 S    
Zn1   N2    2.032957 S    
N4    O14   1.300035 A    
C25   H11   1.110901 S    
O2    C1    1.294204 A    
C11   C12   1.390037 A    
N7    O19   1.300640 A    
C9    C14   1.372440 A    
O7    C4    1.291121 A    
C16   N5    1.474057 S    
C12   N3    1.437099 S    
O3    C2    1.293096 A    
C6    C7    1.368509 S    
C12   C13   1.410056 A    
N6    O18   1.301035 A    
C5    C6    1.178663 T    
C24   H8    1.103005 S    
C13   C14   1.391862 A    
C3    C13   1.422250 S    
Zn2   O6    2.025592 S    
N3    O11   1.301557 A    
C24   H9    1.102732 S    
C17   C22   1.494589 S    
O9    C23   1.411497 S    
Zn1   O5    2.006310 S    
N3    O12   1.300149 A    
C17   C20   1.408894 A    
C23   H5    1.111587 S    
O5    C3    1.292284 A    
C24   H10   1.105434 S    
C25   H12   1.110348 S    
N6    O17   1.301902 A    
C21   O21   1.415556 S    
C4    C8    1.389562 S    
C16   N6    1.466946 S    
N7    O20   1.301151 A    
O2    Zn2   2.006308 S    
C20   C21   1.494001 S    
C19   H3    1.081284 S    
N4    O13   1.302834 A    
C23   H6    1.111015 S    
O1    C1    1.297547 A    
O6    C3    1.293915 A    
C19   N2    1.364587 A    
