data_mof_unit_34657.cif
_audit_creation_date              2012-12-11T15:24:01-0500
_audit_creation_method            fapswitch 2.2
_symmetry_space_group_name_H-M    P1
_symmetry_Int_Tables_number       1
_space_group_crystal_system       triclinic
_cell_length_a                    17.383512
_cell_length_b                    24.349583
_cell_length_c                    15.096867
_cell_angle_alpha                 90.574703
_cell_angle_beta                  125.738863
_cell_angle_gamma                 89.260999
_cell_volume                      5186.40674174

loop_
_atom_site_label
_atom_site_type_symbol
_atom_type_description
_atom_site_fract_x
_atom_site_fract_y
_atom_site_fract_z
_atom_type_partial_charge
C1    C     C_R   0.351809 0.348552 0.907686 -0.148526
C2    C     C_R   0.430142 0.501810 0.632482 0.005195
C3    C     C_3   0.489477 0.119899 0.196076 -0.868359
C4    C     C_3   0.535821 0.402507 0.334790 -0.408439
C5    C     C_3   0.604957 0.412823 0.457578 -0.887751
C6    C     C_3   0.388994 0.401439 0.645349 -0.406952
C7    C     C_3   0.280742 0.408297 0.567443 -0.905226
C8    C     C_3   0.094633 0.899569 0.353471 -0.411633
C9    C     C_3   0.202940 0.901379 0.431484 -0.899381
C10   C     C_3   0.917269 0.898035 0.649375 -0.409329
C11   C     C_3   0.822836 0.902545 0.536820 -0.895470
C12   C     C_R   0.060421 0.001808 0.362603 0.011078
C13   C     C_R   0.953380 0.999129 0.645066 0.036931
C14   C     C_R   0.176962 0.500099 0.731359 0.133817
C15   C     C_R   0.813901 0.498880 0.351625 0.132384
C16   C     C_R   0.691946 0.999197 0.642718 0.135053
C17   C     C_R   0.325138 0.998716 0.285847 0.132203
C18   C     C_2   0.926492 0.459553 0.532546 -0.119967
C19   C     C_2   0.022709 0.456548 0.633509 -0.111034
C20   C     C_2   0.478401 0.954383 0.370798 -0.095299
C21   C     C_R   0.653306 0.349412 0.091685 -0.124870
C22   C     C_2   0.576837 0.957233 0.466097 -0.128650
C23   C     C_2   0.901691 0.499948 0.460372 -0.196638
C24   C     C_2   0.075128 0.501806 0.678251 -0.193421
C25   C     C_2   0.424805 0.999802 0.331707 -0.194387
C26   C     C_2   0.607324 0.000839 0.533080 -0.195762
C27   C     C_R   0.313843 0.776309 0.910869 0.237740
C28   C     C_R   0.794612 0.716481 0.052052 0.217712
C29   C     C_R   0.647038 0.177872 0.907881 0.232346
C30   C     C_R   0.345668 0.181036 0.082936 0.237538
C31   C     C_R   0.609252 0.229010 0.907729 -0.207095
C32   C     C_R   0.812912 0.873179 0.908116 -0.123304
C33   C     C_R   0.391543 0.227847 0.083069 -0.212971
C34   C     C_R   0.249891 0.812564 0.909019 -0.208984
C35   C     C_R   0.832178 0.765967 0.052394 -0.254313
C36   C     C_R   0.653913 0.260501 0.003893 0.099493
C37   C     C_R   0.346961 0.261501 0.990610 0.099933
C38   C     C_R   0.255078 0.821731 0.004342 0.101608
C39   C     C_R   0.773200 0.812028 0.002613 0.117588
C40   C     C_R   0.725937 0.236672 0.102817 -0.174786
C41   C     C_R   0.263117 0.244801 0.893833 -0.175058
C42   C     C_R   0.334129 0.802602 0.104113 -0.169809
C43   C     C_R   0.178626 0.863332 0.089972 -0.131190
C44   C     C_R   0.676055 0.809802 0.950486 -0.182063
C45   C     C_R   0.393252 0.764133 0.105036 -0.190056
C46   C     C_R   0.637430 0.760791 0.950503 -0.220394
C47   C     C_R   0.765438 0.187332 0.102784 -0.191200
C48   C     C_R   0.214886 0.201219 0.894786 -0.192780
C49   C     C_R   0.448217 0.652558 0.090411 -0.116637
C50   C     C_R   0.578335 0.641385 0.909036 -0.152637
C51   C     C_R   0.898946 0.120857 0.089864 -0.108174
C52   C     C_R   0.096659 0.124176 0.908595 -0.110612
C53   C     C_R   0.373449 0.744610 0.006038 0.045019
C54   C     C_R   0.391643 0.685943 0.000949 0.049642
C55   C     C_R   0.696538 0.714798 0.001308 0.084851
C56   C     C_R   0.735691 0.162350 0.003379 0.054305
C57   C     C_R   0.250730 0.172712 0.992055 0.056375
C58   C     C_R   0.446510 0.553666 0.507096 -0.175071
C59   C     C_R   0.458649 0.553686 0.425366 -0.179171
C60   C     C_R   0.929444 0.032798 0.480261 -0.196743
C61   C     C_R   0.959932 0.035381 0.414508 -0.177469
C62   C     C_R   0.433536 0.507438 0.358942 0.168243
C63   C     C_R   0.411000 0.506883 0.525029 0.154368
C64   C     C_R   0.039421 0.004337 0.440917 0.147762
C65   C     C_R   0.654210 0.665663 0.001307 0.070389
C66   C     C_R   0.977733 0.998599 0.570545 0.165597
C67   C     C_R   0.383549 0.464799 0.363788 -0.179308
C68   C     C_R   0.373585 0.463999 0.448064 -0.206114
C69   C     C_R   0.089421 0.971669 0.533811 -0.193990
C70   C     C_R   0.058084 0.968503 0.598551 -0.178876
C71   C     C_R   0.500340 0.455087 0.270191 0.217919
C72   C     C_R   0.440545 0.455128 0.691923 0.227722
C73   C     C_R   0.051375 0.955059 0.304395 0.227859
C74   C     C_R   0.956845 0.953603 0.700043 0.196322
C75   C     C_R   0.232461 0.545725 0.754426 -0.145183
C76   C     C_R   0.808625 0.133728 0.999011 0.039301
C77   C     C_R   0.762025 0.545044 0.294293 -0.146336
C78   C     C_R   0.741386 0.045041 0.701480 -0.159834
C79   C     C_R   0.269445 0.044579 0.260522 -0.150821
C80   C     C_R   0.485770 0.547057 0.252602 -0.193275
C81   C     C_R   0.451101 0.546171 0.699758 -0.191632
C82   C     C_R   0.046816 0.046175 0.300268 -0.216602
C83   C     C_R   0.961047 0.044939 0.702830 -0.204229
C84   C     C_R   0.233591 0.453905 0.756539 -0.117401
C85   C     C_R   0.760758 0.453100 0.294329 -0.117471
C86   C     C_R   0.742495 0.953371 0.702288 -0.125996
C87   C     C_R   0.182587 0.141899 0.998321 0.044348
C88   C     C_R   0.268932 0.953355 0.258465 -0.104836
C89   C     C_R   0.355085 0.652716 0.909633 -0.153207
C90   C     C_R   0.669779 0.642029 0.093184 -0.138416
C91   C     C_R   0.808822 0.123801 0.907739 -0.142456
C92   C     C_R   0.183422 0.132109 0.089674 -0.154035
C93   C     C_R   0.441184 0.347273 0.088657 -0.150713
C94   C     C_R   0.565206 0.349028 0.910213 -0.143777
C95   C     C_R   0.900991 0.877287 0.090296 -0.165830
C96   C     C_R   0.094787 0.869601 0.909059 -0.158388
C97   C     C_R   0.378618 0.316964 0.996220 0.078295
C98   C     C_R   0.467720 0.502393 0.292662 0.016937
C99   C     C_R   0.628669 0.318181 0.001934 0.069163
C100  C     C_R   0.815680 0.860364 0.998779 0.062559
C101  C     C_R   0.179018 0.850218 0.000851 0.073745
C102  C     C_3   0.317738 0.772794 0.813312 -0.418505
C103  C     C_3   0.337353 0.828663 0.785230 -0.894181
C104  C     C_3   0.859542 0.666596 0.101827 -0.396783
C105  C     C_3   0.844541 0.627070 0.013919 -0.857872
C106  C     C_3   0.592313 0.141494 0.807528 -0.423298
C107  C     C_3   0.493929 0.128108 0.777206 -0.869429
C108  C     C_3   0.398820 0.141897 0.178824 -0.433458
H1    H     H_    0.316067 0.334988 0.824096 0.087295
H2    H     H_    0.460169 0.238622 0.155852 0.120221
H3    H     H_    0.196020 0.832525 0.833302 0.116264
H4    H     H_    0.907343 0.768417 0.088497 0.128624
H5    H     H_    0.758386 0.257884 0.179879 0.111590
H6    H     H_    0.227926 0.268870 0.819928 0.112530
H7    H     H_    0.346419 0.813048 0.181098 0.107833
H8    H     H_    0.631097 0.845537 0.910489 0.128156
H9    H     H_    0.445898 0.745224 0.182437 0.116392
H10   H     H_    0.561787 0.758599 0.911588 0.138487
H11   H     H_    0.826747 0.173365 0.180348 0.115132
H12   H     H_    0.690952 0.336011 0.175320 0.081001
H13   H     H_    0.144752 0.194710 0.821249 0.118885
H14   H     H_    0.475539 0.588142 0.562803 0.113383
H15   H     H_    0.496100 0.587789 0.421872 0.112037
H16   H     H_    0.868482 0.056811 0.460784 0.121610
H17   H     H_    0.919789 0.060256 0.341407 0.120711
H18   H     H_    0.358541 0.430427 0.307703 0.118121
H19   H     H_    0.341287 0.428388 0.453488 0.157198
H20   H     H_    0.151524 0.948401 0.556200 0.143844
H21   H     H_    0.097633 0.943627 0.671734 0.109790
H22   H     H_    0.498012 0.665478 0.174092 0.081118
H23   H     H_    0.759394 0.861612 0.824442 0.098412
H24   H     H_    0.541972 0.654253 0.825130 0.099627
H25   H     H_    0.925229 0.123797 0.174132 0.088148
H26   H     H_    0.070553 0.126496 0.824446 0.093013
H27   H     H_    0.210463 0.588226 0.744941 0.098246
H28   H     H_    0.777558 0.587101 0.322849 0.091690
H29   H     H_    0.727890 0.086726 0.671394 0.092633
H30   H     H_    0.294503 0.085913 0.284028 0.087879
H31   H     H_    0.472449 0.589960 0.258082 0.113719
H32   H     H_    0.435546 0.588887 0.676332 0.105201
H33   H     H_    0.057182 0.088798 0.325322 0.114416
H34   H     H_    0.225283 0.847503 0.171373 0.081797
H35   H     H_    0.951327 0.087081 0.676152 0.108093
H36   H     H_    0.213137 0.411585 0.749170 0.087336
H37   H     H_    0.775413 0.410865 0.321340 0.086049
H38   H     H_    0.730082 0.911195 0.674623 0.092359
H39   H     H_    0.293297 0.911747 0.279391 0.073964
H40   H     H_    0.313111 0.665168 0.825343 0.086321
H41   H     H_    0.716094 0.656051 0.176803 0.087824
H42   H     H_    0.752916 0.132125 0.823501 0.094048
H43   H     H_    0.232877 0.148809 0.170079 0.091719
H44   H     H_    0.485013 0.331086 0.169920 0.081209
H45   H     H_    0.947630 0.534547 0.479047 0.132339
H46   H     H_    0.527408 0.334713 0.827522 0.080084
H47   H     H_    0.925058 0.870800 0.173238 0.101279
H48   H     H_    0.071423 0.864979 0.826254 0.088543
H49   H     H_    0.880652 0.424537 0.511257 0.120270
H50   H     H_    0.054417 0.415916 0.658462 0.116887
H51   H     H_    0.447114 0.913869 0.348473 0.112714
H52   H     H_    0.618342 0.919606 0.490428 0.119424
H53   H     H_    0.277516 0.857701 0.756957 0.253628
H54   H     H_    0.403484 0.846271 0.857568 0.263716
H55   H     H_    0.346273 0.823596 0.718504 0.246084
H56   H     H_    0.041687 0.542142 0.658016 0.130421
H57   H     H_    0.376351 0.745176 0.830775 0.191430
H58   H     H_    0.249572 0.756717 0.741570 0.186251
H59   H     H_    0.771917 0.609994 0.965809 0.260958
H60   H     H_    0.856126 0.648552 0.958096 0.254198
H61   H     H_    0.895939 0.592421 0.052962 0.248610
H62   H     H_    0.935073 0.679266 0.152118 0.186591
H63   H     H_    0.848910 0.644968 0.158125 0.188803
H64   H     H_    0.499833 0.109275 0.847708 0.263693
H65   H     H_    0.448884 0.165627 0.751512 0.251084
H66   H     H_    0.458682 0.098494 0.708097 0.248203
H67   H     H_    0.455841 0.040089 0.345597 0.130564
H68   H     H_    0.585117 0.162198 0.737744 0.184539
H69   H     H_    0.629230 0.101508 0.822113 0.204333
H70   H     H_    0.472692 0.100017 0.120173 0.265897
H71   H     H_    0.541018 0.153367 0.220104 0.250265
H72   H     H_    0.523409 0.088909 0.262331 0.246384
H73   H     H_    0.416846 0.163266 0.254021 0.182536
H74   H     H_    0.355649 0.105478 0.165336 0.207250
H75   H     H_    0.662466 0.440636 0.474867 0.260097
H76   H     H_    0.568597 0.430975 0.491607 0.268682
H77   H     H_    0.637394 0.373220 0.499859 0.243694
H78   H     H_    0.566357 0.038399 0.512761 0.130269
H79   H     H_    0.475795 0.376951 0.316641 0.182803
H80   H     H_    0.577293 0.379453 0.312071 0.188203
H81   H     H_    0.248348 0.402495 0.611579 0.253642
H82   H     H_    0.258685 0.449305 0.528156 0.263312
H83   H     H_    0.251092 0.376262 0.502847 0.243389
H84   H     H_    0.417621 0.378887 0.606078 0.174049
H85   H     H_    0.401245 0.375519 0.711857 0.191898
H86   H     H_    0.229324 0.866902 0.490320 0.247002
H87   H     H_    0.233650 0.896357 0.385101 0.253257
H88   H     H_    0.229010 0.940561 0.477689 0.256776
H89   H     H_    0.546663 0.244205 0.832319 0.119244
H90   H     H_    0.064901 0.884212 0.396563 0.187445
H91   H     H_    0.077402 0.869434 0.288994 0.190078
H92   H     H_    0.789016 0.861588 0.510284 0.245327
H93   H     H_    0.774452 0.931560 0.539189 0.261827
H94   H     H_    0.834186 0.917291 0.475943 0.263880
H95   H     H_    0.968423 0.875391 0.640737 0.182963
H96   H     H_    0.905687 0.874162 0.702931 0.193974
N1    N     N_R   0.395440 0.396300 0.944370 -0.037194
N2    N     N_R   0.474910 0.470990 0.794360 -0.064216
N3    N     N_R   0.025090 0.970990 0.205640 -0.060504
N4    N     N_R   0.974910 0.970990 0.794360 -0.064956
N5    N     N_R   0.320240 0.527820 0.794510 -0.038408
N6    N     N_R   0.679760 0.527820 0.205490 -0.039415
N7    N     N_R   0.820240 0.027820 0.794510 -0.036646
N8    N     N_R   0.179760 0.027820 0.205490 -0.035061
N9    N     N_R   0.524580 0.527810 0.205160 -0.048508
N10   N     N_R   0.475420 0.527810 0.794840 -0.047350
N11   N     N_R   0.024580 0.027810 0.205160 -0.047806
N12   N     N_R   0.604560 0.396300 0.055630 -0.038179
N13   N     N_R   0.975420 0.027810 0.794840 -0.046602
N14   N     N_R   0.320750 0.470990 0.794990 -0.037375
N15   N     N_R   0.679250 0.470990 0.205010 -0.045272
N16   N     N_R   0.820750 0.970990 0.794990 -0.041155
N17   N     N_R   0.179250 0.970990 0.205010 -0.038164
N18   N     N_R   0.393580 0.602500 0.942610 -0.035816
N19   N     N_R   0.606420 0.602500 0.057390 -0.035819
N20   N     N_R   0.893580 0.102500 0.942610 -0.039168
N21   N     N_R   0.106420 0.102500 0.057390 -0.035791
N22   N     N_R   0.451750 0.396300 0.057540 -0.042468
N23   N     N_R   0.895440 0.896300 0.944370 -0.042533
N24   N     N_R   0.548250 0.396300 0.942460 -0.042498
N25   N     N_R   0.951750 0.896300 0.057540 -0.045008
N26   N     N_R   0.048250 0.896300 0.942460 -0.043475
N27   N     N_R   0.104560 0.896300 0.055630 -0.038546
N28   N     N_R   0.449890 0.602500 0.055780 -0.037653
N29   N     N_R   0.550110 0.602500 0.944220 -0.035468
N30   N     N_R   0.949890 0.102500 0.055780 -0.041436
N31   N     N_R   0.050110 0.102500 0.944220 -0.040322
N32   N     N_R   0.525090 0.470990 0.205640 -0.067460
Ni1   Ni    Ni4+2 0.435420 0.434250 0.870220 0.205754
Ni2   Ni    Ni4+2 0.564580 0.434250 0.129780 0.198484
Ni3   Ni    Ni4+2 0.935420 0.934250 0.870220 0.205226
Ni4   Ni    Ni4+2 0.064580 0.934250 0.129780 0.210313
Ni5   Ni    Ni4+2 0.563400 0.564580 0.128670 0.207453
Ni6   Ni    Ni4+2 0.436600 0.564580 0.871330 0.206476
Ni7   Ni    Ni4+2 0.063400 0.064580 0.128670 0.215569
Ni8   Ni    Ni4+2 0.936600 0.064580 0.871330 0.210802

loop_
_geom_bond_atom_site_label_1
_geom_bond_atom_site_label_2
_ccdc_geom_bond_type
C27   C53   A    
C40   C47   A    
N22   Ni2   S    
C50   N29   A    
C17   C88   A    
C52   H26   S    
C8    H90   S    
C5    H77   S    
C41   H6    S    
C65   C90   A    
C37   C97   S    
N18   Ni6   S    
C9    H88   S    
C48   C57   A    
C74   N4    A    
C53   C54   S    
C6    C72   S    
N7    N16   A    
C21   H12   S    
N19   Ni5   S    
N12   N24   A    
C105  H61   S    
C62   C67   A    
C51   N30   A    
C56   C76   S    
N5    N14   A    
C4    H79   S    
C3    H70   S    
C85   H37   S    
C38   C42   A    
C38   C101  S    
C42   H7    S    
C90   H41   S    
C12   C64   S    
C43   N27   A    
C28   C104  S    
C8    H91   S    
C106  C107  S    
C84   H36   S    
C49   C54   A    
C30   C57   A    
C17   C79   A    
C46   H10   S    
C18   C19   S    
C11   H93   S    
C14   C24   S    
C60   H16   S    
N20   N30   A    
C11   H92   S    
C3    H71   S    
N19   N29   A    
C1    H1    S    
C62   C98   S    
C5    H75   S    
C93   N22   A    
C88   H39   S    
C40   H5    S    
C28   C35   A    
C8    C9    S    
C59   C62   A    
C20   H51   S    
C46   C55   A    
C60   C66   A    
N16   Ni3   S    
C10   C74   S    
C77   H28   S    
C96   N26   A    
C36   C99   S    
N9    N32   A    
C1    N1    A    
C10   H95   S    
C5    H76   S    
C16   C78   A    
C94   N24   A    
N30   Ni7   S    
C15   C85   A    
C80   C98   A    
N2    N10   A    
C47   H11   S    
C73   N3    A    
C45   C53   A    
N8    Ni7   S    
C102  H58   S    
C34   C38   A    
C87   C92   A    
C16   C86   A    
C34   H3    S    
C7    H83   S    
N26   Ni3   S    
C102  C103  S    
C82   H33   S    
C2    C72   A    
C86   H38   S    
N4    Ni3   S    
C104  C105  S    
C55   C65   S    
C28   C55   A    
C44   C46   A    
C93   H44   S    
C77   N6    A    
N8    N17   A    
C27   C34   A    
C59   H15   S    
C79   N8    A    
C51   H25   S    
C71   C98   A    
C58   H14   S    
C103  H53   S    
N17   Ni4   S    
C67   C68   A    
N21   N31   A    
C95   N25   A    
C36   C40   A    
C96   C101  A    
C51   C76   A    
C69   H20   S    
C54   C89   A    
C105  H59   S    
C67   H18   S    
C1    C97   A    
C89   N18   A    
C21   C99   A    
C95   C100  A    
N20   Ni8   S    
C72   N2    A    
C107  H65   S    
C70   H21   S    
C58   C59   A    
C71   N32   A    
N26   N27   A    
C33   C37   A    
N6    N15   A    
C32   C100  A    
N27   Ni4   S    
C11   H94   S    
C61   C64   A    
C35   C39   A    
C3    H72   S    
C43   C101  A    
C24   H56   S    
C25   H67   S    
C13   C66   S    
C81   N10   A    
C32   N23   A    
C14   C84   A    
C94   H46   S    
N23   Ni3   S    
C92   H43   S    
N3    N11   A    
C21   N12   A    
C12   C82   A    
C107  H64   S    
C7    H82   S    
C86   N16   A    
C64   C69   A    
C13   C74   A    
N25   Ni4   S    
N1    Ni1   S    
C68   H19   S    
C39   C44   A    
C22   C26   D    
C50   H24   S    
N3    Ni4   S    
C104  H63   S    
C108  H73   S    
N23   N25   A    
C27   C102  S    
C20   C22   S    
C92   N21   A    
C102  H57   S    
C23   H45   S    
N1    N22   A    
C29   C106  S    
C78   H29   S    
C93   C97   A    
C48   H13   S    
C2    C63   S    
N15   Ni2   S    
C104  H62   S    
C45   H9    S    
N4    N13   A    
C63   C68   A    
C75   N5    A    
C103  H54   S    
C106  H69   S    
C30   C33   A    
C30   C108  S    
C15   C77   A    
C9    H86   S    
C19   H50   S    
C103  H55   S    
N7    Ni8   S    
C52   C87   A    
C7    H81   S    
C58   C63   A    
N6    Ni5   S    
C4    C5    S    
C43   H34   S    
C16   C26   S    
N5    Ni6   S    
C91   H42   S    
C9    H87   S    
C6    C7    S    
C84   N14   A    
C29   C56   A    
C3    C108  S    
N21   Ni7   S    
C80   H31   S    
C49   H22   S    
C13   C83   A    
C80   N9    A    
N11   Ni7   S    
N14   Ni1   S    
C105  H60   S    
C108  H74   S    
N10   Ni6   S    
C17   C25   S    
C14   C75   A    
C4    H80   S    
C31   H89   S    
N9    Ni5   S    
C19   C24   D    
C85   N15   A    
N13   Ni8   S    
N12   Ni2   S    
N28   Ni5   S    
C29   C31   A    
C18   H49   S    
C4    C71   S    
C83   H35   S    
C26   H78   S    
N24   Ni1   S    
C39   C100  S    
C96   H48   S    
C75   H27   S    
C22   H52   S    
C94   C99   A    
C49   N28   A    
C18   C23   D    
C83   N13   A    
C15   C23   S    
C8    C73   S    
C41   C48   A    
N32   Ni2   S    
N2    Ni1   S    
C95   H47   S    
C32   H23   S    
C37   C41   A    
C69   C70   A    
C50   C65   A    
N31   Ni8   S    
C10   C11   S    
C76   C91   A    
N18   N28   A    
C82   N11   A    
C107  H66   S    
C57   C87   S    
N29   Ni6   S    
C90   N19   A    
C79   H30   S    
C66   C70   A    
C44   H8    S    
C20   C25   D    
C6    H84   S    
C88   N17   A    
C106  H68   S    
C31   C36   A    
C60   C61   A    
C2    C81   A    
C61   H17   S    
C33   H2    S    
C81   H32   S    
C91   N20   A    
C12   C73   A    
C10   H96   S    
C78   N7    A    
C42   C45   A    
C6    H85   S    
C35   H4    S    
C52   N31   A    
C47   C56   A    
C89   H40   S    
