data_mof_unit_40094.cif
_audit_creation_date              2012-12-10T20:53:01-0500
_audit_creation_method            fapswitch 2.2
_symmetry_space_group_name_H-M    P1
_symmetry_Int_Tables_number       1
_space_group_crystal_system       triclinic
_cell_length_a                    18.281171
_cell_length_b                    18.282449
_cell_length_c                    18.281803
_cell_angle_alpha                 60.283748
_cell_angle_beta                  60.283019
_cell_angle_gamma                 60.281977
_cell_volume                      4348.24757111

loop_
_atom_site_label
_atom_site_type_symbol
_atom_type_description
_atom_site_fract_x
_atom_site_fract_y
_atom_site_fract_z
_atom_type_partial_charge
C1    C     C_R   0.390009 0.102053 0.117492 0.847557
C2    C     C_R   0.380772 0.807626 0.783426 -0.111411
C3    C     C_R   0.961755 0.592026 0.988788 0.040589
C4    C     C_R   0.407991 0.011074 0.038399 0.040513
C5    C     C_R   0.592009 0.988926 0.961601 0.040513
C6    C     C_R   0.966571 0.927986 0.553409 -0.184462
C7    C     C_R   0.033429 0.072014 0.446591 -0.184462
C8    C     C_R   0.927976 0.553456 0.966579 -0.184483
C9    C     C_R   0.072024 0.446544 0.033421 -0.184483
C10   C     C_R   0.553410 0.966574 0.927981 -0.184472
C11   C     C_R   0.446590 0.033426 0.072019 -0.184472
C12   C     C_R   0.192483 0.216797 0.619100 -0.111431
C13   C     C_R   0.807517 0.783203 0.380900 -0.111430
C14   C     C_R   0.176419 0.575556 0.281931 -0.110628
C15   C     C_R   0.823581 0.424443 0.718069 -0.110629
C16   C     C_R   0.575249 0.281986 0.176619 -0.110236
C17   C     C_R   0.424751 0.718014 0.823381 -0.110236
C18   C     C_R   0.282084 0.176771 0.575145 -0.110370
C19   C     C_R   0.717916 0.823229 0.424855 -0.110369
C20   C     C_R   0.085400 0.586398 0.314643 0.145561
C21   C     C_R   0.609990 0.897946 0.882508 0.847557
C22   C     C_R   0.914600 0.413602 0.685357 0.145560
C23   C     C_R   0.586397 0.314678 0.085529 0.145613
C24   C     C_R   0.413603 0.685322 0.914471 0.145613
C25   C     C_R   0.314703 0.085680 0.586336 0.145668
C26   C     C_R   0.685297 0.914320 0.413664 0.145668
C27   C     C_R   0.034793 0.641868 0.257150 -0.137444
C28   C     C_R   0.965208 0.358133 0.742850 -0.137444
C29   C     C_R   0.642202 0.257196 0.034931 -0.137672
C30   C     C_R   0.357798 0.742804 0.965069 -0.137673
C31   C     C_R   0.257154 0.035155 0.642143 -0.137628
C32   C     C_R   0.102056 0.117489 0.390009 0.847595
C33   C     C_R   0.742846 0.964844 0.357857 -0.137628
C34   C     C_R   0.074427 0.687059 0.168151 -0.141002
C35   C     C_R   0.925574 0.312941 0.831849 -0.141002
C36   C     C_R   0.687389 0.168231 0.074644 -0.141213
C37   C     C_R   0.312611 0.831769 0.925356 -0.141213
C38   C     C_R   0.168199 0.074941 0.687306 -0.141237
C39   C     C_R   0.831801 0.925059 0.312694 -0.141237
C40   C     C_R   0.165254 0.675390 0.135456 -0.134368
C41   C     C_R   0.834747 0.324610 0.864544 -0.134369
C42   C     C_R   0.675396 0.135555 0.165536 -0.134402
C43   C     C_R   0.897944 0.882510 0.609991 0.847593
C44   C     C_R   0.324604 0.864445 0.834464 -0.134402
C45   C     C_R   0.135599 0.165831 0.675281 -0.134280
C46   C     C_R   0.864401 0.834169 0.324719 -0.134280
C47   C     C_R   0.986596 0.591346 0.464679 -0.270331
C48   C     C_R   0.013404 0.408654 0.535320 -0.270331
C49   C     C_R   0.591351 0.464687 0.986599 -0.270167
C50   C     C_R   0.408648 0.535313 0.013401 -0.270167
C51   C     C_R   0.464695 0.986672 0.591332 -0.270261
C52   C     C_R   0.535305 0.013328 0.408668 -0.270261
C53   C     C_R   0.944129 0.552466 0.555113 -0.046048
C54   C     C_R   0.117492 0.389998 0.102055 0.847456
C55   C     C_R   0.055871 0.447533 0.444887 -0.046048
C56   C     C_R   0.552466 0.555112 0.944106 -0.046062
C57   C     C_R   0.447534 0.444888 0.055894 -0.046061
C58   C     C_R   0.555106 0.944102 0.552473 -0.046086
C59   C     C_R   0.444894 0.055898 0.447526 -0.046086
C60   C     C_R   0.957487 0.459873 0.590896 -0.008776
C61   C     C_R   0.042513 0.540127 0.409104 -0.008776
C62   C     C_R   0.459869 0.590886 0.957446 -0.008746
C63   C     C_R   0.540131 0.409113 0.042553 -0.008745
C64   C     C_R   0.590873 0.957371 0.459898 -0.008717
C65   C     C_R   0.882508 0.610002 0.897945 0.847458
C66   C     C_R   0.409127 0.042629 0.540102 -0.008717
C67   C     C_R   0.111008 0.390401 0.389715 0.786577
C68   C     C_R   0.888992 0.609599 0.610284 0.786576
C69   C     C_R   0.390403 0.389714 0.111018 0.786534
C70   C     C_R   0.609597 0.610286 0.888982 0.786534
C71   C     C_R   0.389718 0.111020 0.390399 0.786567
C72   C     C_R   0.610282 0.888980 0.609601 0.786567
C73   C     C_R   0.005801 0.082296 0.320457 0.229679
C74   C     C_R   0.994199 0.917704 0.679543 0.229679
C75   C     C_R   0.081998 0.320398 0.006050 0.229874
C76   C     C_R   0.216300 0.619529 0.192289 -0.111491
C77   C     C_R   0.918001 0.679602 0.993950 0.229874
C78   C     C_R   0.320448 0.005795 0.082309 0.229681
C79   C     C_R   0.679552 0.994205 0.917690 0.229681
C80   C     C_R   0.008200 0.035038 0.277820 -0.158190
C81   C     C_R   0.991800 0.964962 0.722180 -0.158189
C82   C     C_R   0.034581 0.277835 0.008587 -0.158433
C83   C     C_R   0.965419 0.722165 0.991413 -0.158433
C84   C     C_R   0.277812 0.008181 0.035054 -0.158135
C85   C     C_R   0.722188 0.991819 0.964946 -0.158134
C86   C     C_R   0.009843 0.946946 0.323151 -0.184650
C87   C     C_R   0.783701 0.380469 0.807712 -0.111491
C88   C     C_R   0.990157 0.053054 0.676848 -0.184651
C89   C     C_R   0.946474 0.323271 0.010265 -0.184671
C90   C     C_R   0.053525 0.676729 0.989735 -0.184671
C91   C     C_R   0.323143 0.009828 0.946958 -0.184547
C92   C     C_R   0.676857 0.990172 0.053042 -0.184549
C93   C     C_R   0.997555 0.909780 0.414177 -0.093464
C94   C     C_R   0.002445 0.090220 0.585822 -0.093464
C95   C     C_R   0.909455 0.414319 0.997853 -0.093436
C96   C     C_R   0.090545 0.585681 0.002147 -0.093436
C97   C     C_R   0.414171 0.997551 0.909784 -0.093465
C98   C     C_R   0.619228 0.192374 0.216574 -0.111410
C99   C     C_R   0.585829 0.002449 0.090216 -0.093465
C100  C     C_R   0.991121 0.958103 0.459265 0.050216
C101  C     C_R   0.008879 0.041897 0.540735 0.050216
C102  C     C_R   0.957945 0.459318 0.991269 0.050125
C103  C     C_R   0.042055 0.540682 0.008731 0.050125
C104  C     C_R   0.459261 0.991119 0.958106 0.050158
C105  C     C_R   0.540739 0.008881 0.041894 0.050158
C106  C     C_R   0.011078 0.038390 0.407996 0.040529
C107  C     C_R   0.988922 0.961609 0.592004 0.040529
C108  C     C_R   0.038245 0.407974 0.011212 0.040589
H1    H     H_    0.984477 0.090949 0.710897 0.140063
H2    H     H_    0.337986 0.562980 0.022273 0.170464
H3    H     H_    0.437036 0.977854 0.661978 0.170447
H4    H     H_    0.562963 0.022146 0.338022 0.170447
H5    H     H_    0.006658 0.067262 0.210203 0.146532
H6    H     H_    0.993342 0.932738 0.789797 0.146531
H7    H     H_    0.066691 0.210195 0.007125 0.146520
H8    H     H_    0.933309 0.789805 0.992875 0.146520
H9    H     H_    0.210193 0.006635 0.067282 0.146569
H10   H     H_    0.789807 0.993365 0.932718 0.146569
H11   H     H_    0.995822 0.842234 0.448226 0.158033
H12   H     H_    0.015523 0.909051 0.289104 0.140063
H13   H     H_    0.004178 0.157766 0.551774 0.158033
H14   H     H_    0.841908 0.448471 0.996114 0.157893
H15   H     H_    0.158091 0.551529 0.003887 0.157894
H16   H     H_    0.448220 0.995819 0.842234 0.158034
H17   H     H_    0.551779 0.004180 0.157765 0.158034
H18   H     H_    0.195751 0.709681 0.066154 0.126148
H19   H     H_    0.804251 0.290318 0.933846 0.126148
H20   H     H_    0.709679 0.066276 0.196083 0.126185
H21   H     H_    0.290321 0.933724 0.803916 0.126185
H22   H     H_    0.066329 0.196436 0.709549 0.126284
H23   H     H_    0.091539 0.710713 0.983956 0.140113
H24   H     H_    0.933671 0.803565 0.290451 0.126283
H25   H     H_    0.286671 0.610234 0.167152 0.123396
H26   H     H_    0.713331 0.389764 0.832849 0.123395
H27   H     H_    0.609703 0.167246 0.286994 0.123481
H28   H     H_    0.390297 0.832754 0.713006 0.123482
H29   H     H_    0.167413 0.287216 0.609546 0.123495
H30   H     H_    0.832587 0.712784 0.390453 0.123495
H31   H     H_    0.216292 0.532699 0.325603 0.105769
H32   H     H_    0.783709 0.467300 0.674398 0.105770
H33   H     H_    0.532145 0.325647 0.216485 0.105570
H34   H     H_    0.908460 0.289287 0.016044 0.140113
H35   H     H_    0.467855 0.674353 0.783514 0.105570
H36   H     H_    0.325797 0.216582 0.532031 0.105575
H37   H     H_    0.674203 0.783418 0.467969 0.105575
H38   H     H_    0.964771 0.650097 0.281266 0.123248
H39   H     H_    0.035229 0.349904 0.718734 0.123248
H40   H     H_    0.650676 0.281282 0.964859 0.123166
H41   H     H_    0.349323 0.718718 0.035141 0.123167
H42   H     H_    0.281191 0.965080 0.650652 0.123208
H43   H     H_    0.718809 0.034920 0.349347 0.123208
H44   H     H_    0.034492 0.731225 0.124765 0.128326
H45   H     H_    0.710906 0.984497 0.090935 0.140096
H46   H     H_    0.965509 0.268776 0.875235 0.128327
H47   H     H_    0.731794 0.124849 0.034727 0.128113
H48   H     H_    0.268205 0.875151 0.965273 0.128113
H49   H     H_    0.124768 0.035078 0.731722 0.128057
H50   H     H_    0.875232 0.964922 0.268278 0.128057
H51   H     H_    0.289093 0.015503 0.909065 0.140095
H52   H     H_    0.977713 0.662006 0.437001 0.170487
H53   H     H_    0.022287 0.337994 0.562999 0.170487
H54   H     H_    0.662014 0.437020 0.977727 0.170464
I1    I     I_    0.962600 0.223894 0.261888 -0.374192
I2    I     I_    0.037399 0.776106 0.738112 -0.374192
I3    I     I_    0.223579 0.261634 0.962823 -0.374156
I4    I     I_    0.776420 0.738366 0.037177 -0.374156
I5    I     I_    0.261845 0.962637 0.223910 -0.374161
I6    I     I_    0.738155 0.037363 0.776090 -0.374161
O1    O     O_3   0.250000 0.250000 0.250000 -0.489410
O2    O     O_R   0.865800 0.694910 0.573470 -0.651005
O3    O     O_R   0.305090 0.426530 0.134200 -0.650976
O4    O     O_R   0.694910 0.573470 0.865800 -0.650975
O5    O     O_R   0.426530 0.134200 0.305090 -0.651023
O6    O     O_R   0.573470 0.865800 0.694910 -0.651023
O7    O     O_R   0.134190 0.426530 0.134200 -0.648478
O8    O     O_R   0.865810 0.573470 0.865800 -0.648478
O9    O     O_R   0.426530 0.134200 0.134190 -0.648576
O10   O     O_R   0.573470 0.865800 0.865810 -0.648577
O11   O     O_R   0.134200 0.134190 0.426530 -0.648575
O12   O     O_3   0.750000 0.750000 0.750000 -0.489410
O13   O     O_R   0.865800 0.865810 0.573470 -0.648574
O14   O     O_R   0.426530 0.305080 0.134210 -0.629590
O15   O     O_R   0.573470 0.694920 0.865790 -0.629590
O16   O     O_R   0.305080 0.134210 0.426530 -0.629550
O17   O     O_R   0.694920 0.865790 0.573470 -0.629549
O18   O     O_R   0.134210 0.426530 0.305080 -0.629546
O19   O     O_R   0.865790 0.573470 0.694920 -0.629546
O20   O     O_R   0.305080 0.134200 0.134200 -0.596582
O21   O     O_R   0.694920 0.865800 0.865800 -0.596583
O22   O     O_R   0.134200 0.134200 0.305080 -0.596583
O23   O     O_R   0.865800 0.865800 0.694920 -0.596583
O24   O     O_R   0.134200 0.305080 0.134200 -0.596620
O25   O     O_R   0.865800 0.694920 0.865800 -0.596621
O26   O     O_R   0.134200 0.305090 0.426530 -0.651005
Zn1   Zn    Zn3+2 0.206620 0.206630 0.380140 0.975873
Zn2   Zn    Zn3+2 0.793380 0.793370 0.619860 0.975873
Zn3   Zn    Zn3+2 0.206630 0.380140 0.206620 0.975882
Zn4   Zn    Zn3+2 0.793370 0.619860 0.793380 0.975881
Zn5   Zn    Zn3+2 0.380140 0.206620 0.206630 0.975846
Zn6   Zn    Zn3+2 0.619860 0.793380 0.793370 0.975846
Zn7   Zn    Zn3+2 0.206620 0.206620 0.206620 1.038073
Zn8   Zn    Zn3+2 0.793380 0.793380 0.793380 1.038073

loop_
_geom_bond_atom_site_label_1
_geom_bond_atom_site_label_2
_ccdc_geom_bond_type
C25   C31   A    
C48   C55   A    
O2    Zn2   S    
C101  C107  A    
C75   I3    S    
C49   C63   A    
O5    Zn5   S    
C41   H19   S    
C36   C42   A    
C1    C11   S    
C35   H46   S    
C58   C72   S    
C29   H40   S    
O1    Zn1   S    
O11   Zn1   S    
C9    C108  A    
O4    Zn4   S    
C29   C36   A    
C78   I5    S    
C33   C39   A    
C82   C89   A    
C54   O24   A    
C34   C40   A    
C23   C29   A    
O1    Zn3   S    
C86   C93   A    
C82   H7    S    
C97   H16   S    
O12   Zn8   S    
C42   C98   A    
C59   C66   A    
C22   C60   S    
C13   C46   A    
C52   H4    S    
C89   H34   S    
C4    C104  A    
O20   Zn7   S    
C50   H2    S    
C69   O3    A    
C20   C61   S    
C19   C26   A    
C53   C68   S    
C70   O4    A    
O7    Zn3   S    
C38   C45   A    
C80   C86   A    
C74   C107  A    
C25   C66   S    
C68   O2    A    
C85   C92   A    
C15   C22   A    
C75   C82   A    
C94   C101  A    
C2    C44   A    
C84   H9    S    
C81   H6    S    
C11   C105  A    
C51   H3    S    
O24   Zn7   S    
O18   Zn3   S    
C57   C63   A    
C92   H45   S    
O23   Zn8   S    
C72   O6    A    
C79   I6    S    
C5    C79   A    
C67   O26   A    
C91   H51   S    
O12   Zn2   S    
C95   C102  A    
C42   H20   S    
C69   O14   A    
O1    Zn5   S    
C23   C63   S    
O26   Zn1   S    
C43   O23   A    
C8    C65   S    
C27   C34   A    
C22   C28   A    
C71   O5    A    
C2    C17   A    
C87   H26   S    
C18   C25   A    
C1    O9    A    
C41   C87   A    
C71   O16   A    
C53   C60   A    
C48   C60   A    
C65   O25   A    
C47   H52   S    
C10   C21   S    
C58   C64   A    
C99   C105  A    
C88   C94   A    
C17   C24   A    
C13   C19   A    
O19   Zn4   S    
C97   C104  A    
C14   C20   A    
C28   C35   A    
C99   H17   S    
C3    C8    A    
C52   C64   A    
C31   H42   S    
C34   H44   S    
C30   H41   S    
C5    C105  A    
C48   H53   S    
C77   I4    S    
C98   H27   S    
C43   O13   A    
C2    H28   S    
O25   Zn8   S    
C40   C76   A    
C30   C37   A    
C51   C66   A    
C14   C76   A    
C54   O7    A    
C89   C95   A    
C4    C78   A    
O12   Zn6   S    
C52   C59   A    
C26   C33   A    
C21   O21   A    
C80   H5    S    
C6    C107  A    
C40   H18   S    
C7    C106  A    
C32   O22   A    
C32   O11   A    
C51   C58   A    
C19   H37   S    
C91   C97   A    
C4    C11   A    
C102  C108  A    
C93   C100  A    
C49   H54   S    
C39   C46   A    
C90   H23   S    
C46   H24   S    
C95   H14   S    
C21   O10   A    
C84   C91   A    
C37   H48   S    
C16   C23   A    
C56   C70   S    
C6    C43   S    
C39   H50   S    
C33   H43   S    
C50   C62   A    
C56   C62   A    
C88   H1    S    
C74   C81   A    
C3    C77   A    
C79   C85   A    
C15   C87   A    
C15   H32   S    
C75   C108  A    
C1    O20   A    
C3    C103  A    
C83   C90   A    
O10   Zn6   S    
C28   H39   S    
C24   C62   S    
C7    C32   S    
C96   H15   S    
C50   C57   A    
C100  C106  A    
C83   H8    S    
O14   Zn5   S    
C38   H49   S    
O8    Zn4   S    
C12   C45   A    
C47   C61   A    
C55   C67   S    
C76   H25   S    
C67   O18   A    
O22   Zn7   S    
C90   C96   A    
C20   C27   A    
C26   C64   S    
O21   Zn8   S    
O13   Zn2   S    
O16   Zn1   S    
C93   H11   S    
O6    Zn6   S    
O15   Zn6   S    
C31   C38   A    
C47   C53   A    
C17   H35   S    
C13   H30   S    
C37   C44   A    
C18   H36   S    
C16   H33   S    
C44   H21   S    
C5    C10   A    
C65   O8    A    
C49   C56   A    
C74   I2    S    
C16   C98   A    
C73   C106  A    
O3    Zn3   S    
C27   H38   S    
C55   C61   A    
C10   C104  A    
C9    C103  A    
C73   C80   A    
C6    C100  A    
C85   H10   S    
C35   C41   A    
C24   C30   A    
C72   O17   A    
C81   C88   A    
O12   Zn4   S    
O9    Zn5   S    
O1    Zn7   S    
C68   O19   A    
C94   H13   S    
C78   C84   A    
C70   O15   A    
C45   H22   S    
C14   H31   S    
C36   H47   S    
C73   I1    S    
C7    C101  A    
C96   C103  A    
C12   C18   A    
C77   C83   A    
C12   H29   S    
C86   H12   S    
C9    C54   S    
O17   Zn2   S    
C57   C69   S    
C8    C102  A    
C92   C99   A    
C59   C71   S    
