data_mof_unit_16768.cif
_audit_creation_date              2012-12-11T15:35:26-0500
_audit_creation_method            fapswitch 2.2
_symmetry_space_group_name_H-M    P1
_symmetry_Int_Tables_number       1
_space_group_crystal_system       triclinic
_cell_length_a                    17.506145
_cell_length_b                    24.614554
_cell_length_c                    14.852544
_cell_angle_alpha                 90.001242
_cell_angle_beta                  124.826274
_cell_angle_gamma                 90.000288
_cell_volume                      5253.7201529

loop_
_atom_site_label
_atom_site_type_symbol
_atom_type_description
_atom_site_fract_x
_atom_site_fract_y
_atom_site_fract_z
_atom_type_partial_charge
C1    C     C_R   0.313817 0.128228 0.911247 -0.129174
C2    C     C_R   0.568982 0.147596 0.908974 -0.224863
C3    C     C_R   0.254703 0.545309 0.303350 -0.076800
C4    C     C_R   0.068981 0.352415 0.908949 -0.224824
C5    C     C_R   0.068963 0.647607 0.908980 -0.224806
C6    C     C_R   0.548795 0.999999 0.723990 0.036198
C7    C     C_R   0.048785 0.500002 0.723978 0.036210
C8    C     C_R   0.801113 0.999986 0.364665 -0.082571
C9    C     C_R   0.301111 0.499942 0.364662 -0.082575
C10   C     C_R   0.638866 0.173727 0.000788 -0.012955
C11   C     C_R   0.638768 0.826227 0.000787 -0.013043
C12   C     C_R   0.138826 0.673747 0.000799 -0.012983
C13   C     C_R   0.313814 0.871773 0.911259 -0.129161
C14   C     C_R   0.138887 0.326294 0.000742 -0.012868
C15   C     C_3   0.030728 0.948831 0.617149 -0.396223
C16   C     C_3   0.030619 0.050860 0.617759 -0.395940
C17   C     C_3   0.530997 0.448180 0.615767 -0.396740
C18   C     C_3   0.530397 0.550189 0.619006 -0.395419
C19   C     C_3   0.925849 0.948821 0.528565 -0.393429
C20   C     C_3   0.925717 0.050870 0.529176 -0.393453
C21   C     C_3   0.426160 0.448180 0.527234 -0.393472
C22   C     C_3   0.425446 0.550206 0.530425 -0.393433
C23   C     C_3   0.058404 0.000206 0.490189 -0.405982
C24   C     C_R   0.813792 0.628202 0.911239 -0.129091
C25   C     C_3   0.558388 0.501116 0.490128 -0.406010
C26   C     C_3   0.076092 0.999968 0.604427 0.372519
C27   C     C_3   0.576103 0.499840 0.604357 0.372501
C28   C     C_3   0.899248 0.999973 0.455202 0.360855
C29   C     C_3   0.399252 0.499868 0.455173 0.360824
C30   C     C_R   0.406625 0.874347 0.095934 -0.104590
C31   C     C_R   0.406634 0.125681 0.095926 -0.104600
C32   C     C_R   0.906630 0.374345 0.095940 -0.104724
C33   C     C_R   0.906609 0.625650 0.095920 -0.104612
C34   C     C_3   0.954133 0.000215 0.402058 -0.338768
C35   C     C_R   0.813820 0.371765 0.911268 -0.129261
C36   C     C_3   0.454112 0.501143 0.402018 -0.338678
C37   C     C_R   0.175938 0.814256 0.949965 -0.160894
C38   C     C_R   0.176001 0.185732 0.950208 -0.160840
C39   C     C_R   0.675959 0.314245 0.949991 -0.160828
C40   C     C_R   0.675895 0.685722 0.949915 -0.160936
C41   C     C_R   0.630937 0.267452 0.946223 -0.185873
C42   C     C_R   0.630860 0.732505 0.946179 -0.185848
C43   C     C_R   0.130909 0.767468 0.946211 -0.185870
C44   C     C_R   0.130973 0.232525 0.946427 -0.185823
C45   C     C_R   0.683979 0.221609 0.003056 0.027652
C46   C     C_R   0.657843 0.146848 0.091989 0.531979
C47   C     C_R   0.683890 0.778345 0.003058 0.027688
C48   C     C_R   0.183945 0.721629 0.003073 0.027675
C49   C     C_R   0.183996 0.278424 0.002964 0.027636
C50   C     C_R   0.781219 0.221372 0.063228 0.515105
C51   C     C_R   0.781133 0.778589 0.063241 0.515032
C52   C     C_R   0.281188 0.721391 0.063260 0.515051
C53   C     C_R   0.281215 0.278722 0.062838 0.515027
C54   C     C_R   0.325255 0.768203 0.068600 -0.256778
C55   C     C_R   0.325291 0.231911 0.068185 -0.256892
C56   C     C_R   0.825280 0.268190 0.068584 -0.256862
C57   C     C_R   0.657775 0.853125 0.091983 0.532090
C58   C     C_R   0.825204 0.731782 0.068566 -0.256795
C59   C     C_R   0.272765 0.814143 0.012018 0.067857
C60   C     C_R   0.272815 0.185907 0.011956 0.067832
C61   C     C_R   0.772784 0.314134 0.012030 0.067864
C62   C     C_R   0.772723 0.685840 0.011975 0.067874
C63   C     C_R   0.605988 0.950836 0.628147 -0.148558
C64   C     C_R   0.605995 0.049163 0.628157 -0.148561
C65   C     C_R   0.105993 0.450840 0.628149 -0.148481
C66   C     C_R   0.105985 0.549168 0.628146 -0.148534
C67   C     C_R   0.608278 0.950810 0.536588 -0.167105
C68   C     C_R   0.157812 0.646860 0.091995 0.531932
C69   C     C_R   0.608285 0.049190 0.536597 -0.167124
C70   C     C_R   0.108291 0.450813 0.536595 -0.167104
C71   C     C_R   0.108285 0.549194 0.536594 -0.167127
C72   C     C_R   0.598991 0.000001 0.483613 0.128982
C73   C     C_R   0.099000 0.500003 0.483617 0.128963
C74   C     C_R   0.548000 0.045035 0.303824 -0.126619
C75   C     C_R   0.548005 0.954967 0.303826 -0.126715
C76   C     C_R   0.048008 0.545035 0.303827 -0.126471
C77   C     C_R   0.048009 0.454968 0.303828 -0.126902
C78   C     C_R   0.593365 0.999999 0.665641 0.141295
C79   C     C_R   0.157891 0.353167 0.091963 0.532020
C80   C     C_R   0.093357 0.500004 0.665632 0.141304
C81   C     C_R   0.231827 0.954149 0.722262 -0.137427
C82   C     C_R   0.231799 0.045828 0.722244 -0.137494
C83   C     C_R   0.731896 0.454103 0.722262 -0.137251
C84   C     C_R   0.731748 0.545783 0.722160 -0.137710
C85   C     C_R   0.321300 0.141756 0.006354 0.063598
C86   C     C_R   0.321293 0.858262 0.006373 0.063662
C87   C     C_R   0.821268 0.641723 0.006348 0.063645
C88   C     C_R   0.821302 0.358257 0.006383 0.063777
C89   C     C_R   0.564492 0.000001 0.367959 0.041723
C90   C     C_R   0.568932 0.852380 0.908975 -0.224827
C91   C     C_R   0.064501 0.500002 0.367963 0.041761
C92   C     C_R   0.176326 0.999979 0.685117 0.002380
C93   C     C_R   0.676338 0.499897 0.685036 0.002410
C94   C     C_R   0.517599 0.045326 0.749592 -0.099297
C95   C     C_R   0.517607 0.954672 0.749602 -0.099317
C96   C     C_R   0.017598 0.545328 0.749592 -0.099303
C97   C     C_R   0.017592 0.454675 0.749582 -0.099237
C98   C     C_R   0.754577 0.954656 0.303343 -0.076097
C99   C     C_R   0.754615 0.045330 0.303355 -0.076308
C100  C     C_R   0.254474 0.454637 0.303361 -0.075618
Cl1   Cl    Cl    0.849932 0.162632 0.125858 -0.640908
Cl2   Cl    Cl    0.849842 0.837329 0.125912 -0.640845
Cl3   Cl    Cl    0.349900 0.662653 0.125921 -0.640971
Cl4   Cl    Cl    0.349848 0.337521 0.125152 -0.640590
Cl5   Cl    Cl    0.705678 0.177312 0.220560 -0.685867
Cl6   Cl    Cl    0.705553 0.822667 0.220544 -0.685870
Cl7   Cl    Cl    0.205592 0.677318 0.220560 -0.685782
Cl8   Cl    Cl    0.205923 0.322709 0.220574 -0.686094
H1    H     H_    0.260686 0.141785 0.829493 0.102162
H2    H     H_    0.886769 0.051170 0.567731 0.165467
H3    H     H_    0.387196 0.446716 0.565727 0.165325
H4    H     H_    0.386539 0.549717 0.569027 0.165579
H5    H     H_    0.909027 0.910892 0.480180 0.178781
H6    H     H_    0.908747 0.088968 0.481243 0.178405
H7    H     H_    0.409621 0.410626 0.477882 0.179626
H8    H     H_    0.408157 0.588654 0.483449 0.177599
H9    H     H_    0.090503 0.963778 0.479926 0.175867
H10   H     H_    0.090433 0.036805 0.480352 0.175775
H11   H     H_    0.590661 0.465074 0.478950 0.176040
H12   H     H_    0.260676 0.858210 0.829512 0.102134
H13   H     H_    0.590227 0.538085 0.481192 0.175613
H14   H     H_    0.935914 0.963846 0.348763 0.194720
H15   H     H_    0.935855 0.036775 0.349220 0.194756
H16   H     H_    0.436028 0.465181 0.347786 0.194665
H17   H     H_    0.435677 0.538093 0.350129 0.194805
H18   H     H_    0.136222 0.849865 0.904133 0.130161
H19   H     H_    0.136293 0.150067 0.904648 0.130246
H20   H     H_    0.636238 0.349857 0.904178 0.130126
H21   H     H_    0.636184 0.650113 0.904069 0.130242
H22   H     H_    0.555638 0.266734 0.899374 0.146283
H23   H     H_    0.760634 0.641726 0.829469 0.102116
H24   H     H_    0.555560 0.733217 0.899313 0.146298
H25   H     H_    0.055609 0.766751 0.899346 0.146281
H26   H     H_    0.055685 0.233196 0.899819 0.146332
H27   H     H_    0.400372 0.767849 0.112069 0.175821
H28   H     H_    0.400386 0.232295 0.111414 0.175850
H29   H     H_    0.900397 0.267840 0.112041 0.175752
H30   H     H_    0.900322 0.732143 0.112034 0.175815
H31   H     H_    0.603855 0.912099 0.660886 0.117349
H32   H     H_    0.603868 0.087900 0.660903 0.117344
H33   H     H_    0.103866 0.412103 0.660893 0.117360
H34   H     H_    0.760689 0.358188 0.829532 0.102137
H35   H     H_    0.103849 0.587905 0.660884 0.117353
H36   H     H_    0.436599 0.865950 0.181392 0.116617
H37   H     H_    0.436620 0.134107 0.181378 0.116694
H38   H     H_    0.936608 0.365948 0.181399 0.116608
H39   H     H_    0.936576 0.634050 0.181376 0.116616
H40   H     H_    0.607625 0.912024 0.502117 0.119889
H41   H     H_    0.607638 0.087977 0.502133 0.119886
H42   H     H_    0.107646 0.412027 0.502130 0.119855
H43   H     H_    0.107636 0.587980 0.502127 0.119915
H44   H     H_    0.566252 0.086606 0.331169 0.106314
H45   H     H_    0.043963 0.948213 0.699901 0.161970
H46   H     H_    0.566268 0.913398 0.331173 0.106339
H47   H     H_    0.066265 0.586606 0.331172 0.106359
H48   H     H_    0.066271 0.413399 0.331176 0.106237
H49   H     H_    0.212137 0.912944 0.693816 0.093347
H50   H     H_    0.212039 0.087025 0.693765 0.093343
H51   H     H_    0.712366 0.412882 0.693897 0.093333
H52   H     H_    0.711841 0.586967 0.693617 0.093364
H53   H     H_    0.525960 0.087283 0.736747 0.097929
H54   H     H_    0.525985 0.912713 0.736781 0.097947
H55   H     H_    0.025966 0.587286 0.736760 0.097935
H56   H     H_    0.043862 0.051127 0.700521 0.162010
H57   H     H_    0.025949 0.412718 0.736728 0.097929
H58   H     H_    0.768412 0.913225 0.330494 0.169262
H59   H     H_    0.768578 0.086761 0.330500 0.169342
H60   H     H_    0.267966 0.413227 0.330637 0.169011
H61   H     H_    0.268983 0.586751 0.330416 0.169547
H62   H     H_    0.529712 0.837608 0.825482 0.128992
H63   H     H_    0.529764 0.162374 0.825487 0.128980
H64   H     H_    0.029752 0.337636 0.825460 0.128993
H65   H     H_    0.029747 0.662383 0.825491 0.128980
H66   H     H_    0.059964 0.910829 0.608093 0.158814
H67   H     H_    0.544263 0.446785 0.698506 0.161896
H68   H     H_    0.059795 0.089020 0.609185 0.158665
H69   H     H_    0.560345 0.410537 0.605626 0.159156
H70   H     H_    0.559444 0.588686 0.611490 0.158331
H71   H     H_    0.543656 0.549686 0.701772 0.162104
H72   H     H_    0.886884 0.948147 0.567091 0.165420
N1    N     N_R   0.392140 0.102630 0.941800 -0.044962
N2    N     N_R   0.525160 0.972040 0.206160 -0.044187
N3    N     N_R   0.025160 0.527960 0.206160 -0.044161
N4    N     N_R   0.025160 0.472040 0.206160 -0.044206
N5    N     N_R   0.317870 0.971120 0.792790 -0.035750
N6    N     N_R   0.317870 0.028880 0.792790 -0.035735
N7    N     N_R   0.817870 0.471120 0.792790 -0.035774
N8    N     N_R   0.817870 0.528880 0.792790 -0.035705
N9    N     N_R   0.473480 0.027920 0.793480 -0.043164
N10   N     N_R   0.473480 0.972080 0.793480 -0.043168
N11   N     N_R   0.973480 0.527920 0.793480 -0.043162
N12   N     N_R   0.392140 0.897370 0.941800 -0.044963
N13   N     N_R   0.973480 0.472080 0.793480 -0.043171
N14   N     N_R   0.681610 0.971120 0.207570 -0.040184
N15   N     N_R   0.681610 0.028880 0.207570 -0.040160
N16   N     N_R   0.181610 0.471120 0.207570 -0.040240
N17   N     N_R   0.181610 0.528880 0.207570 -0.040076
N18   N     N_R   0.605410 0.102620 0.056870 -0.089997
N19   N     N_R   0.605410 0.897380 0.056870 -0.089991
N20   N     N_R   0.105410 0.602620 0.056870 -0.089968
N21   N     N_R   0.105410 0.397380 0.056870 -0.090017
N22   N     N_R   0.549680 0.896430 0.944180 -0.062486
N23   N     N_R   0.892140 0.602630 0.941800 -0.044963
N24   N     N_R   0.549680 0.103570 0.944180 -0.062482
N25   N     N_R   0.049680 0.396430 0.944180 -0.062475
N26   N     N_R   0.049680 0.603570 0.944180 -0.062485
N27   N     N_R   0.892140 0.397370 0.941800 -0.044958
N28   N     N_R   0.450890 0.896450 0.057150 -0.044875
N29   N     N_R   0.450890 0.103550 0.057150 -0.044899
N30   N     N_R   0.950890 0.396450 0.057150 -0.044916
N31   N     N_R   0.950890 0.603550 0.057150 -0.044867
N32   N     N_R   0.525160 0.027960 0.206160 -0.044183
Ni1   Ni    Ni4+2 0.433410 0.064680 0.868830 0.218980
Ni2   Ni    Ni4+2 0.433410 0.935320 0.868830 0.218983
Ni3   Ni    Ni4+2 0.933410 0.564680 0.868830 0.219034
Ni4   Ni    Ni4+2 0.933410 0.435320 0.868830 0.218953
Ni5   Ni    Ni4+2 0.565650 0.934380 0.131170 0.259202
Ni6   Ni    Ni4+2 0.565650 0.065620 0.131170 0.259196
Ni7   Ni    Ni4+2 0.065650 0.434380 0.131170 0.259006
Ni8   Ni    Ni4+2 0.065650 0.565620 0.131170 0.259339

loop_
_geom_bond_atom_site_label_1
_geom_bond_atom_site_label_2
_ccdc_geom_bond_type
C44   C49   A    
C58   C62   A    
C40   H21   S    
C46   Cl5   S    
C24   N23   A    
N3    Ni8   S    
C31   C85   A    
C22   C29   S    
C53   C55   A    
C11   C47   S    
C36   H17   S    
C70   H42   S    
C12   C48   S    
N23   N31   A    
C13   H12   S    
C23   H10   S    
C38   H19   S    
C84   H52   S    
C30   H36   S    
C4    N25   A    
C52   Cl3   S    
N26   Ni3   S    
C16   H56   S    
C51   Cl2   S    
C15   C19   S    
C7    C96   A    
C12   C68   A    
C29   C36   S    
C34   H15   S    
C13   N12   A    
C82   N6    A    
N29   Ni6   S    
C96   N11   A    
N23   Ni3   S    
C36   H16   S    
C8    C99   A    
C77   H48   S    
C41   H22   S    
C82   H50   S    
C97   H57   S    
C46   N18   A    
C14   C49   S    
C32   H38   S    
C19   H5    S    
C53   Cl4   S    
C26   C92   S    
C65   C70   A    
C83   C93   A    
N6    Ni1   S    
C99   N15   A    
C77   N4    A    
C82   C92   A    
N5    Ni2   S    
C98   N14   A    
N20   Ni8   S    
N1    N29   A    
C67   C72   A    
C23   C26   S    
N12   Ni2   S    
N21   N25   A    
C43   H25   S    
C8    C98   A    
C15   H45   S    
C33   H39   S    
C95   N10   A    
C1    H1    S    
C5    N26   A    
C81   C92   A    
N4    Ni7   S    
C71   H43   S    
N25   Ni4   S    
C79   N21   A    
N19   Ni5   S    
C13   C86   A    
C10   C46   A    
N19   N22   A    
C75   H46   S    
C68   Cl7   S    
C56   H29   S    
C30   C86   A    
C76   N3    A    
C7    C97   A    
C43   C48   A    
C21   H7    S    
C2    H63   S    
C84   C93   A    
N11   Ni3   S    
C16   H68   S    
C40   C42   A    
C57   Cl6   S    
N17   Ni8   S    
C40   C62   A    
C28   C34   S    
C34   H14   S    
C65   C80   A    
C55   C60   A    
C57   N19   A    
C44   H26   S    
N12   N28   A    
C83   N7    A    
N18   Ni6   S    
C5    H65   S    
C10   C45   S    
C25   H11   S    
C81   N5    A    
C21   H3    S    
N8    Ni3   S    
C52   C54   A    
N14   Ni5   S    
C99   H59   S    
C54   C59   A    
C100  N16   A    
C16   C26   S    
C39   C61   A    
C63   C67   A    
C81   H49   S    
C17   C27   S    
C2    N24   A    
N21   Ni7   S    
C5    C12   A    
C39   C41   A    
C65   H33   S    
C95   H54   S    
C71   C73   A    
C1    N1    A    
C3    H61   S    
C15   C26   S    
C47   C51   A    
C66   H35   S    
C20   C28   S    
C6    C94   A    
C74   H44   S    
C64   C69   A    
C21   C29   S    
N24   Ni1   S    
C17   C21   S    
N30   Ni7   S    
C74   N32   A    
C76   C91   A    
C37   C43   A    
C69   C72   A    
N3    N4    A    
N11   N13   A    
C38   C44   A    
C3    C9    A    
C61   C88   S    
N27   N30   A    
C32   N30   A    
C35   C88   A    
C66   C71   A    
C31   N29   A    
N31   Ni8   S    
C16   C20   S    
C23   C34   S    
C30   N28   A    
C90   H62   S    
C70   C73   A    
N2    N32   A    
C51   C58   A    
C98   H58   S    
C14   C79   A    
N22   Ni2   S    
C19   C28   S    
N10   Ni2   S    
C94   H53   S    
C73   C91   S    
C37   C59   A    
N9    Ni1   S    
C50   Cl1   S    
C20   H2    S    
C35   N27   A    
C18   H71   S    
C9    C100  A    
C22   H4    S    
N18   N24   A    
C8    C28   S    
C38   C60   A    
C27   C93   S    
C1    C85   A    
C2    C10   A    
N16   Ni7   S    
C74   C89   A    
N13   Ni4   S    
C37   H18   S    
C64   H32   S    
C17   H69   S    
N28   Ni5   S    
C72   C89   S    
N7    Ni4   S    
C77   C91   A    
N20   N26   A    
C39   H20   S    
C4    H64   S    
C15   H66   S    
C25   C36   S    
C18   C22   S    
C64   C78   A    
C18   C27   S    
N16   N17   A    
C23   H9    S    
C42   H24   S    
C60   C85   S    
C63   H31   S    
C25   C27   S    
C66   C80   A    
C62   C87   S    
C6    C78   S    
C76   H47   S    
C96   H55   S    
C68   N20   A    
C100  H60   S    
C69   H41   S    
C33   C87   A    
C94   N9    A    
N7    N8    A    
C11   C90   A    
C20   H6    S    
C9    C29   S    
C33   N31   A    
C24   H23   S    
C58   H30   S    
N5    N6    A    
N32   Ni6   S    
C45   C50   A    
C49   C53   A    
C54   H27   S    
C22   H8    S    
N27   Ni4   S    
C3    N17   A    
C79   Cl8   S    
N14   N15   A    
C42   C47   A    
C4    C14   A    
N9    N10   A    
C24   C87   A    
C50   C56   A    
C59   C86   S    
C84   N8    A    
C75   C89   A    
C35   H34   S    
C31   H37   S    
C17   H67   S    
C48   C52   A    
C83   H51   S    
C18   H70   S    
N2    Ni5   S    
C6    C95   A    
C97   N13   A    
C67   H40   S    
C41   C45   A    
C56   C61   A    
N1    Ni1   S    
C11   C57   A    
C75   N2    A    
C25   H13   S    
C19   H72   S    
N15   Ni6   S    
C55   H28   S    
C7    C80   S    
C90   N22   A    
C63   C78   A    
C32   C88   A    
