data_mof_unit_43655.cif
_audit_creation_date              2013-03-05T16:04:11-0500
_audit_creation_method            fapswitch 2.2
_symmetry_space_group_name_H-M    P1
_symmetry_Int_Tables_number       1
_space_group_crystal_system       triclinic
_cell_length_a                    19.485491
_cell_length_b                    6.966434
_cell_length_c                    17.741401
_cell_angle_alpha                 89.92901
_cell_angle_beta                  108.921474
_cell_angle_gamma                 89.843854
_cell_volume                      2278.14648317

loop_
_atom_site_label
_atom_site_type_symbol
_atom_site_description
_atom_site_fract_x
_atom_site_fract_y
_atom_site_fract_z
_atom_type_partial_charge
O1    O     O_R   0.561710 0.369960 0.440200 -0.593496
O2    O     O_R   0.061710 0.630040 0.940200 -0.595800
O3    O     O_R   0.412630 0.033330 0.406330 -0.559165
O4    O     O_R   0.912630 0.966670 0.906330 -0.574793
O5    O     O_R   0.438290 0.869790 0.559800 -0.579789
O6    O     O_R   0.938290 0.130210 0.059800 -0.587064
C1    C     C_R   0.383961 0.203206 0.384485 0.968038
C2    C     C_R   0.884619 0.797004 0.883370 0.953019
O7    O     O_R   0.559570 0.039810 0.430640 -0.601057
O8    O     O_R   0.059570 0.960190 0.930640 -0.604488
O9    O     O_R   0.586280 0.876320 0.584290 -0.584728
O10   O     O_R   0.086280 0.123680 0.084290 -0.608258
C3    C     C_R   0.581196 0.208871 0.415848 0.965708
C4    C     C_R   0.081119 0.790958 0.915757 0.943161
O11   O     O_R   0.413720 0.363440 0.415710 -0.605192
O12   O     O_R   0.913720 0.636560 0.915710 -0.567013
O13   O     O_3   0.508590 0.205630 0.550380 -0.280108
O14   O     O_3   0.008590 0.794370 0.050380 -0.282967
V1    V     V_3+5 0.498410 0.928130 0.490650 1.211197
V2    V     V_3+5 0.998410 0.071870 0.990650 1.201571
O15   O     O_R   0.587370 0.546990 0.593670 -0.588874
O16   O     O_R   0.087370 0.453010 0.093670 -0.580955
C5    C     C_R   0.615054 0.716560 0.616812 0.943125
C6    C     C_R   0.115624 0.282753 0.116065 0.956303
O17   O     O_R   0.440430 0.540520 0.569360 -0.607668
O18   O     O_R   0.940430 0.459480 0.069360 -0.593723
C7    C     C_R   0.419559 0.709381 0.585099 0.999701
C8    C     C_R   0.920154 0.290611 0.085804 1.021959
V3    V     V_3+5 0.501590 0.428960 0.509350 1.196039
V4    V     V_3+5 0.001590 0.571040 0.009350 1.212379
O19   O     O_3   0.491410 0.701330 0.449620 -0.274538
O20   O     O_3   0.991410 0.298670 0.949620 -0.264019
C9    C     C_R   0.313902 0.906189 0.714707 -0.132514
C10   C     C_R   0.814813 0.093504 0.215557 -0.127185
H1    H     H_    0.309101 0.042244 0.741995 0.101790
H2    H     H_    0.810052 0.957137 0.242712 0.103404
C11   C     C_R   0.360416 0.894839 0.669029 -0.129489
C12   C     C_R   0.861309 0.104986 0.169870 -0.141196
H3    H     H_    0.388999 0.022954 0.661656 0.126138
H4    H     H_    0.889926 0.976664 0.162364 0.129867
C13   C     C_R   0.370663 0.720272 0.634287 -0.126667
C14   C     C_R   0.871441 0.279859 0.135213 -0.145531
C15   C     C_R   0.332782 0.557520 0.645983 -0.105392
C16   C     C_R   0.833572 0.442893 0.147150 -0.096603
H5    H     H_    0.338777 0.421181 0.619443 0.129992
H6    H     H_    0.839512 0.579517 0.120733 0.131421
C17   C     C_R   0.285403 0.569434 0.690697 -0.131636
C18   C     C_R   0.786214 0.430870 0.191882 -0.139797
H7    H     H_    0.255837 0.441898 0.696355 0.102905
H8    H     H_    0.756611 0.558639 0.197672 0.102062
C19   C     C_R   0.275329 0.743902 0.726035 0.109808
C20   C     C_R   0.776159 0.255999 0.227014 0.109404
C21   C     C_R   0.215473 0.598137 0.819481 -0.143746
C22   C     C_R   0.716050 0.401030 0.320425 -0.141462
H9    H     H_    0.245090 0.465706 0.821115 0.107923
H10   H     H_    0.745676 0.533089 0.322295 0.109061
C23   C     C_R   0.168433 0.609248 0.864518 -0.102487
C24   C     C_R   0.668826 0.389891 0.365225 -0.099494
H11   H     H_    0.162752 0.484436 0.898465 0.138716
H12   H     H_    0.663041 0.514341 0.399242 0.136964
C25   C     C_R   0.130338 0.779740 0.866906 -0.131896
C26   C     C_R   0.630658 0.219872 0.367274 -0.129505
C27   C     C_R   0.140263 0.938672 0.822660 -0.145780
C28   C     C_R   0.640780 0.061352 0.323001 -0.141926
H13   H     H_    0.111563 0.071987 0.822767 0.132085
H14   H     H_    0.612062 0.928391 0.322887 0.130402
C29   C     C_R   0.186568 0.926778 0.776652 -0.129033
C30   C     C_R   0.687288 0.073292 0.277225 -0.131133
H15   H     H_    0.191199 0.050937 0.741913 0.106614
H16   H     H_    0.692053 0.949529 0.242424 0.104371
C31   C     C_R   0.225159 0.756427 0.774515 0.108722
C32   C     C_R   0.725883 0.243255 0.275363 0.108606
C33   C     C_R   0.803269 0.618671 0.764107 0.004196
C34   C     C_R   0.266692 0.377197 0.311331 0.090114
C35   C     C_R   0.817268 0.781748 0.813161 -0.166084
C36   C     C_R   0.312854 0.216958 0.319507 -0.221600
C37   C     C_R   0.763132 0.923610 0.795324 -0.094627
C38   C     C_R   0.289005 0.070565 0.262476 -0.061498
H17   H     H_    0.769121 0.045389 0.833538 0.169479
H18   H     H_    0.322243 0.944534 0.265917 0.154301
C39   C     C_R   0.697628 0.901202 0.732047 -0.059061
C40   C     C_R   0.224412 0.091564 0.197340 -0.123840
H19   H     H_    0.656318 0.011112 0.722586 0.129800
H20   H     H_    0.208392 0.979640 0.153396 0.181578
C41   C     C_R   0.683951 0.735227 0.683990 -0.203791
C42   C     C_R   0.182993 0.261540 0.185320 -0.167800
C43   C     C_R   0.739520 0.598769 0.699021 0.143399
C44   C     C_R   0.206251 0.402623 0.243144 0.092731
C45   C     C_3   0.734411 0.389440 0.712473 -0.009664
C46   C     C_3   0.224523 0.605987 0.233152 -0.029451
C47   C     C_3   0.799965 0.413319 0.787216 0.082157
C48   C     C_3   0.283806 0.586282 0.313617 0.074655
H21   H     H_    0.683191 0.348000 0.722905 0.145301
H22   H     H_    0.179855 0.707298 0.231354 0.154678
H23   H     H_    0.848789 0.328732 0.788317 0.130891
H24   H     H_    0.339612 0.619375 0.313626 0.130403
Br1   Br    Br    0.755521 0.246261 0.628630 -0.566522
Br2   Br    Br    0.265167 0.626807 0.145906 -0.610415
N1    N     N_R   0.781078 0.397399 0.860634 0.228514
O21   O     O_R   0.722994 0.479261 0.866914 -0.418567
O22   O     O_R   0.824867 0.309427 0.922093 -0.410956
N2    N     N_R   0.264162 0.682124 0.377293 0.238110
O23   O     O_R   0.201921 0.650060 0.387487 -0.397615
O24   O     O_R   0.309228 0.799844 0.424907 -0.405102

loop_
_geom_bond_atom_site_label_1
_geom_bond_atom_site_label_2
_geom_bond_distance
_ccdc_geom_bond_type
C24   C26   1.406959 A    
V4    O20   2.152512 S    
C27   H13   1.083124 S    
O11   V3    2.015251 S    
O13   V3    1.703140 S    
O4    C2    1.312021 A    
V1    O19   1.727563 S    
C17   H7    1.082328 S    
O9    V1    1.993034 S    
C19   C31   1.499366 S    
C28   C30   1.401893 A    
C36   C38   1.407119 A    
C12   C14   1.406885 A    
O3    C1    1.310585 A    
V2    O20   1.725233 S    
C38   H18   1.079427 S    
C23   H11   1.083265 S    
O12   V4    2.012203 S    
C48   H24   1.112152 S    
C42   C44   1.388242 A    
O9    C5    1.292729 A    
C25   C27   1.406042 A    
C7    C13   1.487973 S    
C33   C43   1.402382 A    
O7    C3    1.306598 A    
O13   V1    2.184112 S    
O5    C7    1.300255 A    
O7    V1    1.996222 S    
O6    C8    1.300465 A    
C3    C26   1.488734 S    
O8    V2    1.994718 S    
C26   C28   1.405994 A    
O3    V1    1.984373 S    
O14   V4    1.705467 S    
C45   C47   1.523448 S    
C13   C15   1.405945 A    
C29   C31   1.410309 A    
C48   N2    1.466101 S    
C37   H17   1.069410 S    
C34   C48   1.492815 S    
C2    O12   1.297692 A    
C11   C13   1.406779 A    
C33   C35   1.404503 A    
C14   C16   1.405939 A    
C39   H19   1.082166 S    
C16   H6    1.083339 S    
C46   H22   1.111435 S    
C24   H12   1.083266 S    
C27   C29   1.401650 A    
C21   H9    1.082223 S    
O17   V3    1.994391 S    
C22   H10   1.082244 S    
C41   C43   1.397756 A    
C33   C47   1.494971 S    
O8    C4    1.306106 A    
C21   C23   1.399758 A    
C17   C19   1.410411 A    
C1    O11   1.298421 A    
C40   C42   1.407675 A    
C4    C25   1.488576 S    
O15   V3    2.024022 S    
C2    C35   1.491995 S    
C9    C11   1.400204 A    
C9    C19   1.409084 A    
C45   Br1   1.942924 S    
C29   H15   1.082261 S    
C28   H14   1.083138 S    
C20   C32   1.499544 S    
C15   H5    1.083350 S    
C38   C40   1.412892 A    
C46   C48   1.523262 S    
N1    O21   1.302693 A    
C37   C39   1.409261 A    
C30   C32   1.410487 A    
O10   V2    1.995467 S    
O1    V3    1.994257 S    
N2    O24   1.296841 A    
C35   C37   1.402365 A    
C34   C36   1.409172 A    
C30   H16   1.082251 S    
N1    O22   1.297932 A    
C44   C46   1.486059 S    
O18   V4    1.995896 S    
C40   H20   1.076192 S    
O15   C5    1.309989 A    
O16   C6    1.311928 A    
O1    C3    1.302094 A    
C21   C31   1.408769 A    
C22   C24   1.399671 A    
O16   V4    2.018808 S    
C10   C12   1.400265 A    
C10   C20   1.408998 A    
C23   C25   1.406843 A    
C1    C36   1.490288 S    
O5    V1    1.993998 S    
O17   C7    1.303471 A    
O6    V2    1.993318 S    
O10   C6    1.291791 A    
O18   C8    1.304444 A    
O2    V4    1.994944 S    
C47   N1    1.468029 S    
C43   C45   1.486199 S    
C11   H3    1.083298 S    
C12   H4    1.083298 S    
C15   C17   1.401139 A    
C18   H8    1.082313 S    
C9    H1    1.082368 S    
C10   H2    1.082367 S    
O14   V2    2.180828 S    
C45   H21   1.111283 S    
N2    O23   1.302728 A    
O2    C4    1.302023 A    
C47   H23   1.112459 S    
O4    V2    1.989103 S    
C18   C20   1.410524 A    
C22   C32   1.408649 A    
V3    O19   2.149243 S    
C5    C41   1.484344 S    
C34   C44   1.398630 A    
C6    C42   1.485657 S    
C46   Br2   1.959401 S    
C39   C41   1.411251 A    
C16   C18   1.401298 A    
C8    C14   1.488232 S    
