data_mof_unit_12186.cif
_audit_creation_date              2012-12-10T18:47:46-0500
_audit_creation_method            fapswitch 2.2
_symmetry_space_group_name_H-M    P1
_symmetry_Int_Tables_number       1
_space_group_crystal_system       triclinic
_cell_length_a                    9.86473
_cell_length_b                    10.68781
_cell_length_c                    15.364024
_cell_angle_alpha                 90.004024
_cell_angle_beta                  68.025002
_cell_angle_gamma                 89.968424
_cell_volume                      1502.17731572

loop_
_atom_site_label
_atom_site_type_symbol
_atom_type_description
_atom_site_fract_x
_atom_site_fract_y
_atom_site_fract_z
_atom_type_partial_charge
C1    C     C_R   0.500103 0.740015 0.499794 0.875135
C2    C     C_R   0.499760 0.259996 0.500490 0.853830
C3    C     C_R   0.320138 0.427547 0.112415 0.373843
C4    C     C_R   0.641258 0.336282 0.906954 0.421441
C5    C     C_R   0.222558 0.475920 0.074355 -0.074084
C6    C     C_R   0.741902 0.312790 0.950492 -0.113665
C7    C     C_R   0.633354 0.935903 0.468425 -0.205316
C8    C     C_R   0.366426 0.064173 0.532458 -0.200019
C9    C     C_R   0.633216 0.064074 0.469468 -0.192645
C10   C     C_R   0.366516 0.935965 0.531707 -0.195685
C11   C     C_R   0.499783 0.127575 0.500951 -0.012137
C12   C     C_R   0.499989 0.872473 0.499711 -0.024026
C13   C     C_R   0.894400 0.421947 0.558025 -0.058598
C14   C     C_R   0.104856 0.579484 0.443144 -0.112881
C15   C     C_R   0.037882 0.422478 0.558430 -0.074674
C16   C     C_R   0.961328 0.579119 0.442862 -0.085853
C17   C     C_R   0.408473 0.501262 0.676729 0.869375
C18   C     C_R   0.591066 0.490783 0.323953 0.862459
C19   C     C_R   0.351360 0.495613 0.779860 -0.143377
C20   C     C_R   0.645384 0.450800 0.225121 -0.112581
C21   C     C_R   0.163988 0.519487 0.935303 -0.208259
C22   C     C_R   0.802493 0.326929 0.092597 -0.215944
C23   C     C_R   0.205551 0.523629 0.837825 -0.001897
C24   C     C_R   0.763440 0.366717 0.185858 0.013594
C25   C     C_R   0.450007 0.459955 0.820833 -0.212702
C26   C     C_R   0.557241 0.477144 0.175029 -0.234814
C27   C     C_R   0.406825 0.443103 0.917266 0.075355
C28   C     C_R   0.577571 0.415307 0.091296 0.113361
C29   C     C_R   0.263661 0.481215 0.976124 0.050348
C30   C     C_R   0.710364 0.352897 0.043413 0.014547
C31   C     C_R   0.507281 0.400880 0.957096 -0.116282
C32   C     C_R   0.469003 0.420416 0.053449 -0.070616
H1    H     H_    0.468539 0.543565 0.203040 0.126875
H2    H     H_    0.563546 0.450543 0.776495 0.223065
H3    H     H_    0.052584 0.544192 0.978990 0.158191
H4    H     H_    0.898497 0.268584 0.061511 0.156426
H5    H     H_    0.736999 0.886725 0.443134 0.157811
H6    H     H_    0.262822 0.113432 0.557817 0.157565
H7    H     H_    0.736777 0.113114 0.445123 0.168454
H8    H     H_    0.262945 0.886794 0.556879 0.163322
H9    H     H_    0.813264 0.359175 0.604256 0.149120
H10   H     H_    0.185815 0.642596 0.397176 0.131320
H11   H     H_    0.065214 0.359975 0.604817 0.141323
H12   H     H_    0.933816 0.642012 0.396793 0.138241
N1    N     N_R   0.142780 0.500030 0.500020 -0.080101
N2    N     N_R   0.857220 0.499970 0.499980 -0.078272
O1    O     O_R   0.385370 0.683250 0.500010 -0.617155
O2    O     O_R   0.614630 0.316750 0.499990 -0.626108
O3    O     O_R   0.614700 0.683220 0.500000 -0.618429
O4    O     O_R   0.385300 0.316780 0.500000 -0.627750
O5    O     O_R   0.319830 0.500020 0.632250 -0.595671
O6    O     O_R   0.680170 0.499980 0.367750 -0.591665
O7    O     O_R   0.549160 0.499990 0.632240 -0.615004
O8    O     O_R   0.450840 0.500010 0.367760 -0.631010
Zn1   Zn    Zn3+2 0.346870 0.500020 0.500000 0.941078
Zn2   Zn    Zn3+2 0.653130 0.499980 0.500000 0.954768
C33   C     C_1   0.086692 0.529239 0.137346 0.113985
N3    N     N_1   0.979462 0.574532 0.187704 -0.218421
C34   C     C_1   0.877897 0.249667 0.897710 0.215575
N4    N     N_1   0.986678 0.199452 0.855392 -0.218880
C35   C     C_1   0.833756 0.308011 0.242297 0.201347
N5    N     N_1   0.888251 0.259250 0.287999 -0.236500
C36   C     C_1   0.097571 0.560969 0.800268 0.192056
N6    N     N_1   0.010732 0.590739 0.770394 -0.194747
O9    O     O_3   0.270732 0.327734 0.173711 -0.607600
C37   C     C_3   0.211659 0.365234 0.268281 0.123263
H13   H     H_    0.100378 0.403886 0.285854 0.134347
H14   H     H_    0.277994 0.436936 0.285409 0.136825
C38   C     C_3   0.201862 0.249935 0.329579 -0.313816
H15   H     H_    0.155425 0.276837 0.404567 0.179992
H16   H     H_    0.127504 0.179915 0.317621 0.222686
C39   C     C_3   0.351092 0.188911 0.308125 -0.746282
H17   H     H_    0.397919 0.155961 0.234249 0.276320
H18   H     H_    0.338789 0.106910 0.354730 0.227293
H19   H     H_    0.427945 0.256022 0.320050 0.253601
O10   O     O_3   0.671108 0.286544 0.818441 -0.668547
C40   C     C_3   0.593449 0.173125 0.827679 0.074103
H20   H     H_    0.473563 0.188089 0.864367 0.157431
H21   H     H_    0.631462 0.103510 0.867641 0.148755
C41   C     C_3   0.620998 0.120516 0.730057 -0.330372
H22   H     H_    0.584624 0.189624 0.689168 0.227234
H23   H     H_    0.740033 0.103712 0.692569 0.224242
C42   C     C_3   0.538590 0.997969 0.736171 -0.929917
H24   H     H_    0.571194 0.928047 0.778200 0.263798
H25   H     H_    0.564771 0.959478 0.664749 0.280374
H26   H     H_    0.418811 0.014170 0.768868 0.268229

loop_
_geom_bond_atom_site_label_1
_geom_bond_atom_site_label_2
_ccdc_geom_bond_type
C37   H14   S    
C24   C35   S    
C27   C29   A    
O2    Zn2   S    
C17   O5    A    
C13   H9    S    
C18   O6    A    
C40   H20   S    
C38   H15   S    
C39   H19   S    
C13   N2    A    
O7    Zn2   S    
C37   C38   S    
C9    H7    S    
C10   H8    S    
C38   H16   S    
C2    O4    A    
C31   C32   A    
C14   C16   A    
C16   H12   S    
O5    Zn1   S    
C25   H2    S    
C14   H10   S    
C23   C36   S    
C37   H13   S    
C34   N4    T    
C3    O9    S    
C1    C12   S    
C8    H6    S    
C41   C42   S    
C2    C11   S    
C14   N1    A    
C5    C29   A    
C40   H21   S    
C21   C23   A    
C7    C12   A    
C27   C31   A    
C20   C24   A    
C28   C32   A    
O10   C40   S    
C39   H17   S    
C39   H18   S    
C16   N2    A    
C1    O1    A    
C2    O2    A    
C21   C29   A    
C38   C39   S    
C19   C23   A    
C26   H1    S    
C42   H24   S    
C7    H5    S    
C3    C32   A    
C9    C11   A    
C10   C12   A    
C41   H23   S    
C42   H25   S    
C13   C15   A    
C22   C24   A    
C4    C6    A    
C15   N1    A    
C17   O7    A    
O1    Zn1   S    
C40   C41   S    
C7    C9    A    
O8    Zn1   S    
C22   C30   A    
C6    C30   A    
C6    C34   S    
C41   H22   S    
C3    C5    A    
C21   H3    S    
C25   C27   A    
O3    Zn2   S    
C22   H4    S    
C26   C28   A    
O4    Zn1   S    
C5    C33   S    
C28   C30   A    
C15   H11   S    
C33   N3    T    
C20   C26   A    
C8    C11   A    
C17   C19   S    
C18   C20   S    
C35   N5    T    
C19   C25   A    
C4    O10   S    
C4    C31   A    
C18   O8    A    
C36   N6    T    
C42   H26   S    
N1    Zn1   S    
C8    C10   A    
O9    C37   S    
N2    Zn2   S    
C1    O3    A    
O6    Zn2   S    
