data_mof_unit_12751.cif
_audit_creation_date              2012-12-10T19:09:01-0500
_audit_creation_method            fapswitch 2.2
_symmetry_space_group_name_H-M    P1
_symmetry_Int_Tables_number       1
_space_group_crystal_system       triclinic
_cell_length_a                    17.719286
_cell_length_b                    10.82729
_cell_length_c                    9.607822
_cell_angle_alpha                 90.45775
_cell_angle_beta                  90.689568
_cell_angle_gamma                 92.377183
_cell_volume                      1841.49228248

loop_
_atom_site_label
_atom_site_type_symbol
_atom_type_description
_atom_site_fract_x
_atom_site_fract_y
_atom_site_fract_z
_atom_type_partial_charge
C1    C     C_R   0.497048 0.262541 0.499419 0.782736
C2    C     C_R   0.885284 0.470824 0.505240 0.081333
C3    C     C_1   0.966486 0.478801 0.507829 -0.018872
C4    C     C_1   0.034206 0.484880 0.507117 -0.075446
C5    C     C_R   0.155440 0.456222 0.623005 -0.160116
C6    C     C_R   0.234056 0.459641 0.620900 -0.190421
C7    C     C_R   0.272761 0.497430 0.500535 -0.027528
C8    C     C_R   0.231475 0.533282 0.382978 -0.203005
C9    C     C_R   0.152681 0.529699 0.385316 -0.154150
C10   C     C_R   0.114829 0.490852 0.505216 0.148490
C11   C     C_R   0.492000 0.065883 0.624162 0.134004
C12   C     C_R   0.355711 0.499639 0.499630 0.778048
C13   C     C_R   0.486564 0.129305 0.499536 -0.097563
C14   C     C_R   0.466263 0.061875 0.378241 -0.216386
C15   C     C_R   0.464321 0.932485 0.380610 -0.228159
C16   C     C_R   0.485431 0.870322 0.502459 -0.104981
C17   C     C_R   0.491086 0.938968 0.626294 0.138854
C18   C     C_3   0.546841 0.940122 0.744087 -0.505533
C19   C     C_3   0.548595 0.080041 0.739448 -0.454809
C20   C     C_R   0.561407 0.544955 0.074292 0.161181
C21   C     C_R   0.443498 0.439525 0.070039 0.239749
C22   C     C_R   0.443229 0.443182 0.921992 -0.081989
C23   C     C_R   0.496769 0.737587 0.500621 0.797507
C24   C     C_R   0.563276 0.538920 0.927854 0.199869
C25   C     C_3   0.604648 0.661765 0.920100 -0.078584
C26   C     C_3   0.602088 0.669905 0.078430 -0.080897
C27   C     C_R   0.643883 0.488967 0.499737 0.812935
C28   C     C_R   0.844760 0.468913 0.630589 0.180727
C29   C     C_R   0.766101 0.468197 0.624979 -0.274859
C30   C     C_R   0.726510 0.468940 0.498151 -0.143006
C31   C     C_R   0.766788 0.449346 0.373040 0.171146
C32   C     C_R   0.846701 0.461824 0.375724 0.159189
Cu1   Cu    Cu3+1 0.500000 0.499980 0.640670 0.937188
Cu2   Cu    Cu3+1 0.500000 0.500020 0.359330 0.934348
H1    H     H_    0.449379 0.882233 0.286218 0.166166
H2    H     H_    0.524769 0.123136 0.833800 0.201217
H3    H     H_    0.603609 0.121598 0.704787 0.198505
H4    H     H_    0.396826 0.399799 0.862942 0.144797
H5    H     H_    0.658320 0.667308 0.130807 0.176216
H6    H     H_    0.121321 0.557155 0.293915 0.129709
N1    N     N_R   0.500470 0.500930 0.147930 -0.179353
N2    N     N_R   0.500480 0.500890 0.852020 -0.212267
O1    O     O_R   0.500000 0.319640 0.618810 -0.576570
O2    O     O_R   0.500010 0.319680 0.381230 -0.595774
O3    O     O_R   0.391250 0.499990 0.618840 -0.587156
O4    O     O_R   0.391260 0.500020 0.381250 -0.580497
O5    O     O_R   0.499990 0.680320 0.618770 -0.575345
O6    O     O_R   0.500000 0.680360 0.381190 -0.573018
O7    O     O_R   0.608740 0.499980 0.618750 -0.576779
O8    O     O_R   0.608750 0.500010 0.381160 -0.567892
C33   C     C_3   0.882400 0.470584 0.772533 -0.877830
H7    H     H_    0.944845 0.469828 0.768287 0.236863
H8    H     H_    0.867028 0.554879 0.830500 0.234091
H9    H     H_    0.862408 0.388099 0.831740 0.230247
H10   H     H_    0.519916 0.905667 0.840701 0.194232
H11   H     H_    0.601399 0.899949 0.715748 0.203550
C34   C     C_3   0.378396 0.368441 0.134512 -0.803264
H12   H     H_    0.395735 0.316765 0.226887 0.261835
H13   H     H_    0.333029 0.431970 0.159237 0.227226
H14   H     H_    0.353733 0.297740 0.060795 0.176368
C35   C     C_3   0.685598 0.661003 0.867874 -0.894380
H15   H     H_    0.685646 0.659095 0.752758 0.260328
H16   H     H_    0.716299 0.747959 0.901209 0.239816
H17   H     H_    0.715822 0.582014 0.911689 0.227858
H18   H     H_    0.570156 0.727414 0.863628 0.196993
H19   H     H_    0.735498 0.465066 0.721236 0.184675
C36   C     C_3   0.557867 0.780608 0.124582 -0.818189
H20   H     H_    0.496086 0.761350 0.112379 0.238161
H21   H     H_    0.574301 0.805736 0.232796 0.255522
H22   H     H_    0.574287 0.863129 0.062308 0.216255
C37   C     C_3   0.726788 0.400198 0.242353 -0.829755
H23   H     H_    0.762524 0.335719 0.184901 0.224208
H24   H     H_    0.675427 0.342948 0.267231 0.241876
H25   H     H_    0.712588 0.477381 0.173232 0.221860
C38   C     C_3   0.891598 0.466429 0.242019 -0.878681
H26   H     H_    0.856108 0.479606 0.147947 0.238295
H27   H     H_    0.932863 0.546488 0.245335 0.231333
H28   H     H_    0.922600 0.380039 0.229943 0.236105
H29   H     H_    0.126347 0.426022 0.716112 0.128654
H30   H     H_    0.264471 0.431456 0.713019 0.141789
H31   H     H_    0.259918 0.565544 0.290277 0.141261
H32   H     H_    0.455005 0.108234 0.281193 0.159739

loop_
_geom_bond_atom_site_label_1
_geom_bond_atom_site_label_2
_ccdc_geom_bond_type
C24   N2    A    
C32   C38   S    
C20   N1    A    
C7    C8    A    
C11   C19   S    
C5    C6    A    
C26   C36   S    
C28   C29   A    
C19   H2    S    
C30   C31   A    
C28   C33   S    
C26   H5    S    
C34   H13   S    
Cu1   O7    S    
C15   C16   A    
C22   H4    S    
Cu1   O3    S    
C2    C32   A    
C18   C19   S    
C8    H31   S    
C35   H16   S    
C19   H3    S    
C1    O1    A    
C20   C24   A    
C16   C17   A    
Cu2   O4    S    
C5    H29   S    
C9    C10   A    
C27   O8    A    
C18   H11   S    
C31   C37   S    
C21   C22   A    
C27   C30   S    
Cu2   N1    S    
C15   H1    S    
C17   C18   S    
C7    C12   S    
Cu2   O8    S    
C23   O5    A    
C36   H20   S    
Cu1   O1    S    
C25   H18   S    
C24   C25   S    
C12   O4    A    
C37   H24   S    
C8    C9    A    
C34   H14   S    
C25   C26   S    
C9    H6    S    
C33   H7    S    
C36   H21   S    
C35   H17   S    
C38   H26   S    
C21   C34   S    
C29   C30   A    
C1    O2    A    
C6    H30   S    
C31   C32   A    
Cu1   Cu2   S    
Cu2   O2    S    
C25   C35   S    
C38   H27   S    
C18   H10   S    
C21   N1    A    
C16   C23   S    
Cu1   O5    S    
C1    C13   S    
Cu1   N2    S    
C4    C10   S    
C3    C4    T    
C11   C17   A    
C23   O6    A    
C12   O3    A    
C37   H25   S    
C6    C7    A    
C33   H9    S    
C36   H22   S    
C2    C3    S    
C37   H23   S    
C11   C13   A    
C34   H12   S    
C22   N2    A    
C20   C26   S    
C35   H15   S    
C38   H28   S    
C29   H19   S    
C5    C10   A    
Cu2   O6    S    
C14   H32   S    
C14   C15   A    
C2    C28   A    
C33   H8    S    
C13   C14   A    
C27   O7    A    
