data_mof_unit_49010.cif
_audit_creation_date              2012-12-10T17:02:05-0500
_audit_creation_method            fapswitch 2.2
_symmetry_space_group_name_H-M    P1
_symmetry_Int_Tables_number       1
_space_group_crystal_system       triclinic
_cell_length_a                    10.772204
_cell_length_b                    11.03776
_cell_length_c                    9.833285
_cell_angle_alpha                 111.009209
_cell_angle_beta                  98.10613
_cell_angle_gamma                 91.063304
_cell_volume                      1077.53243943

loop_
_atom_site_label
_atom_site_type_symbol
_atom_type_description
_atom_site_fract_x
_atom_site_fract_y
_atom_site_fract_z
_atom_type_partial_charge
C1    C     C_R   0.490895 0.254197 0.440770 0.868334
C2    C     C_R   0.081178 0.621278 0.604857 0.094391
C3    C     C_R   0.129701 0.512018 0.505746 -0.096880
C4    C     C_R   0.049660 0.409667 0.402072 -0.200060
C5    C     C_R   0.921360 0.410807 0.399308 -0.200954
C6    C     C_R   0.871284 0.514337 0.500235 -0.098106
C7    C     C_2   0.485848 0.114939 0.407466 -0.360742
C8    C     C_2   0.502085 0.069539 0.516684 -0.152631
C9    C     C_2   0.513882 0.885031 0.592630 -0.362481
C10   C     C_2   0.497388 0.930450 0.483450 -0.145179
C11   C     C_2   0.510717 0.510513 0.081213 -0.070125
C12   C     C_R   0.262869 0.503818 0.502162 0.787590
C13   C     C_2   0.488887 0.489928 0.918923 -0.069526
C14   C     C_R   0.509032 0.745798 0.559248 0.840324
C15   C     C_R   0.737440 0.504773 0.499896 0.788248
C16   C     C_R   0.159567 0.730934 0.702712 -0.175683
C17   C     C_R   0.108581 0.838241 0.796907 -0.136502
C18   C     C_R   0.979164 0.839468 0.793983 -0.136397
C19   C     C_R   0.899911 0.733363 0.696887 -0.177368
C20   C     C_R   0.949588 0.622500 0.601900 0.096752
Cu1   Cu    Cu3+1 0.521920 0.521810 0.644910 0.934450
Cu2   Cu    Cu3+1 0.478080 0.478190 0.355090 0.939985
H1    H     H_    0.468828 0.049013 0.292800 0.148161
H2    H     H_    0.415106 0.418364 0.846378 0.161312
H3    H     H_    0.583996 0.582635 0.153906 0.160729
H4    H     H_    0.624982 0.621172 0.933840 0.193025
H5    H     H_    0.376079 0.377652 0.065841 0.191404
H6    H     H_    0.260243 0.736327 0.705947 0.150751
H7    H     H_    0.169673 0.921505 0.871174 0.132373
H8    H     H_    0.939840 0.923718 0.865915 0.132904
H9    H     H_    0.860961 0.328748 0.320663 0.149660
H10   H     H_    0.480320 0.864846 0.368580 0.181592
H11   H     H_    0.519065 0.135150 0.631552 0.180751
H12   H     H_    0.530981 0.950912 0.707310 0.147646
N1    N     N_2   0.445130 0.445430 0.137370 -0.285318
N2    N     N_2   0.554930 0.554500 0.862630 -0.285920
O1    O     O_R   0.511700 0.332330 0.577400 -0.574128
O2    O     O_R   0.474680 0.295500 0.332650 -0.577585
O3    O     O_R   0.338160 0.518420 0.622400 -0.583472
O4    O     O_R   0.301140 0.481590 0.377650 -0.568127
O5    O     O_R   0.525320 0.704500 0.667350 -0.590056
O6    O     O_R   0.488300 0.667670 0.422600 -0.574492
O7    O     O_R   0.698860 0.518410 0.622350 -0.572958
O8    O     O_R   0.661840 0.481580 0.377600 -0.576411
H13   H     H_    0.087081 0.327147 0.324524 0.147177
H14   H     H_    0.799806 0.740548 0.695235 0.143540

loop_
_geom_bond_atom_site_label_1
_geom_bond_atom_site_label_2
_ccdc_geom_bond_type
C12   O4    A    
C9    C14   S    
C16   H6    S    
C18   H8    S    
C2    C16   A    
C9    C10   D    
C19   C20   A    
Cu1   O3    S    
C1    O1    A    
C14   O6    A    
Cu2   O4    S    
C12   O3    A    
C11   N1    D    
C2    C3    A    
C19   H14   S    
C15   O7    A    
C7    C8    D    
Cu1   N2    S    
Cu1   O7    S    
Cu1   Cu2   S    
Cu2   N1    S    
C11   C13   S    
Cu2   O6    S    
C1    O2    A    
C13   N2    D    
C14   O5    A    
Cu1   O5    S    
C5    C6    A    
H4    N2    S    
C15   O8    A    
C17   C18   A    
C4    H13   S    
C17   H7    S    
C7    H1    S    
C16   C17   A    
C11   H3    S    
C2    C20   A    
C3    C4    A    
Cu2   O2    S    
C10   H10   S    
C6    C20   A    
Cu1   O1    S    
C8    C10   S    
C18   C19   A    
C4    C5    A    
C3    C12   S    
H5    N1    S    
C6    C15   S    
C1    C7    S    
Cu2   O8    S    
C13   H2    S    
C9    H12   S    
C8    H11   S    
C5    H9    S    
