data_mof_unit_10653.cif
_audit_creation_date              2013-03-05T16:00:58-0500
_audit_creation_method            fapswitch 2.2
_symmetry_space_group_name_H-M    P1
_symmetry_Int_Tables_number       1
_space_group_crystal_system       triclinic
_cell_length_a                    10.615573
_cell_length_b                    14.712385
_cell_length_c                    14.682139
_cell_angle_alpha                 65.005201
_cell_angle_beta                  103.489846
_cell_angle_gamma                 102.97662
_cell_volume                      2000.21494272

loop_
_atom_site_label
_atom_site_type_symbol
_atom_site_description
_atom_site_fract_x
_atom_site_fract_y
_atom_site_fract_z
_atom_type_partial_charge
O1    O     O_R   0.454850 0.022100 0.338110 -0.579596
O2    O     O_R   0.545150 0.977900 0.661890 -0.582746
O3    O     O_R   0.512700 0.160150 0.379180 -0.594240
O4    O     O_R   0.487300 0.839850 0.620820 -0.591882
C1    C     C_R   0.477852 0.119706 0.311972 0.822847
C2    C     C_R   0.521004 0.880385 0.687917 0.821284
O5    O     O_R   0.287930 0.931000 0.479440 -0.591698
O6    O     O_R   0.712070 0.069000 0.520560 -0.590650
O7    O     O_R   0.345780 0.069050 0.520520 -0.579073
O8    O     O_R   0.654220 0.930950 0.479480 -0.578953
C3    C     C_R   0.259404 0.000198 0.499946 0.789315
C4    C     C_R   0.740611 0.999778 0.500099 0.788598
Cu1   Cu    Cu3+1 0.465750 0.918270 0.475680 0.948306
Cu2   Cu    Cu3+1 0.534250 0.081730 0.524320 0.945485
C5    C     C_3   0.009596 0.924002 0.475295 -0.127817
C6    C     C_3   0.990458 0.075958 0.524814 -0.123183
C7    C     C_3   0.932203 0.013114 0.406869 -0.157792
C8    C     C_3   0.067858 0.986847 0.593240 -0.150157
H1    H     H_    0.873499 0.023770 0.330748 0.149974
H2    H     H_    0.126592 0.976187 0.669356 0.156932
H3    H     H_    0.019972 0.861719 0.454942 0.145771
H4    H     H_    0.980096 0.138242 0.545172 0.152258
C9    C     C_3   0.877604 0.999919 0.500145 0.010325
C10   C     C_3   0.122442 0.000040 0.499958 0.010769
C11   C     C_3   0.952768 0.910925 0.568613 -0.173744
C12   C     C_3   0.047286 0.089036 0.431496 -0.175667
H5    H     H_    0.910811 0.838109 0.624524 0.133322
H6    H     H_    0.089262 0.161848 0.375589 0.133970
C13   C     C_R   0.459778 0.186997 0.203554 -0.125606
C14   C     C_R   0.523118 0.813401 0.795767 -0.123164
C15   C     C_R   0.391258 0.213463 0.025501 0.347113
C16   C     C_R   0.511344 0.785366 0.968927 0.341187
C17   C     C_R   0.412015 0.148472 0.128115 -0.238758
C18   C     C_R   0.521895 0.850981 0.868204 -0.243570
C19   C     C_R   0.484992 0.291329 0.176423 -0.245510
C20   C     C_R   0.513801 0.709570 0.823916 -0.235501
C21   C     C_R   0.459008 0.359658 0.074988 0.022487
C22   C     C_R   0.495350 0.640270 0.922609 0.025992
C23   C     C_R   0.420633 0.320543 0.997171 0.011226
C24   C     C_R   0.504003 0.678802 0.998538 0.006047
C25   C     C_R   0.474197 0.465940 0.049869 0.062316
C26   C     C_R   0.470764 0.533828 0.947106 0.062419
C27   C     C_R   0.439186 0.493601 0.871178 -0.258186
C28   C     C_R   0.490015 0.505915 0.124786 -0.256819
C29   C     C_R   0.416097 0.389420 0.894499 0.160390
C30   C     C_R   0.507907 0.610032 0.101127 0.161793
H7    H     H_    0.524098 0.684749 0.767109 0.151632
H8    H     H_    0.529280 0.317761 0.236232 0.162600
H9    H     H_    0.523767 0.931489 0.845740 0.202329
H10   H     H_    0.387806 0.067362 0.148883 0.201559
H11   H     H_    0.427401 0.541739 0.791468 0.139702
H12   H     H_    0.484751 0.457498 0.203334 0.134502
N1    N     N_R   0.585750 0.204560 0.560800 -0.182536
N2    N     N_R   0.414250 0.795440 0.439200 -0.182037
C31   C     C_R   0.717442 0.284502 0.669210 -0.289872
C32   C     C_R   0.278793 0.713766 0.333510 -0.248696
C33   C     C_R   0.684270 0.203375 0.638836 0.094693
C34   C     C_R   0.315170 0.796420 0.361560 0.096931
C35   C     C_R   0.516942 0.284480 0.510035 0.013856
C36   C     C_R   0.480679 0.714330 0.491671 0.013678
C37   C     C_R   0.545847 0.369880 0.537181 -0.014716
C38   C     C_R   0.448169 0.627219 0.467144 -0.027103
C39   C     C_R   0.648587 0.367744 0.618986 0.154552
C40   C     C_R   0.344851 0.629116 0.385774 0.162707
C41   C     C_R   0.477249 0.456341 0.486940 0.075469
C42   C     C_R   0.514441 0.539602 0.519091 0.077113
C43   C     C_R   0.616337 0.532309 0.602103 -0.245747
C44   C     C_R   0.372889 0.462428 0.405771 -0.259642
C45   C     C_R   0.681731 0.448227 0.650652 -0.201353
C46   C     C_R   0.308243 0.546919 0.356676 -0.163141
H13   H     H_    0.759511 0.446275 0.713915 0.150243
H14   H     H_    0.229171 0.548245 0.294382 0.153770
H15   H     H_    0.559038 0.720332 0.551182 0.120503
H16   H     H_    0.439666 0.278902 0.449714 0.122219
H17   H     H_    0.264503 0.861898 0.321057 0.129554
H18   H     H_    0.736440 0.138641 0.678247 0.136788
H19   H     H_    0.796113 0.281944 0.732015 0.158725
H20   H     H_    0.199669 0.716145 0.271040 0.155476
H21   H     H_    0.648025 0.590466 0.632087 0.132130
H22   H     H_    0.338649 0.403024 0.377639 0.134630
N3    N     N_3   0.397077 0.354492 0.813615 -0.500995
H23   H     H_    0.382677 0.413568 0.742165 0.218512
H24   H     H_    0.483443 0.328752 0.818268 0.230187
N4    N     N_3   0.538644 0.645398 0.182531 -0.505905
H25   H     H_    0.534696 0.585158 0.253246 0.218506
H26   H     H_    0.635889 0.680596 0.183907 0.223233
N5    N     N_R   0.331004 0.168797 0.953028 0.132446
O9    O     O_R   0.374809 0.091590 0.956061 -0.311258
O10   O     O_R   0.217160 0.190399 0.899846 -0.334294
N6    N     N_R   0.495786 0.828172 0.036513 0.142475
O11   O     O_R   0.572445 0.909571 0.039951 -0.336531
O12   O     O_R   0.389585 0.799385 0.077247 -0.322714

loop_
_geom_bond_atom_site_label_1
_geom_bond_atom_site_label_2
_geom_bond_distance
_ccdc_geom_bond_type
C44   H22   1.076509 S    
N5    O9    1.301268 A    
C25   C26   1.411571 A    
C3    C10   1.453449 S    
N3    H23   1.045762 S    
N1    C35   1.364810 A    
N2    C36   1.364682 A    
O5    C3    1.287956 A    
C4    C9    1.453632 S    
C7    C9    1.531094 S    
C8    C10   1.531092 S    
C7    C12   1.547020 S    
C33   H18   1.081782 S    
C19   C21   1.404391 A    
C10   C12   1.531027 S    
C22   C26   1.426239 A    
C31   H19   1.083819 S    
C5    C11   1.545591 S    
C13   C17   1.394481 A    
C36   H15   1.075314 S    
C32   H20   1.083808 S    
C20   H7    1.076465 S    
C36   C38   1.422932 A    
O4    Cu1   1.933361 S    
C45   H13   1.084250 S    
C38   C40   1.416057 A    
C16   N6    1.435225 S    
C39   C45   1.394217 A    
C32   C34   1.391243 A    
C31   C39   1.401893 A    
O6    Cu2   1.953848 S    
C32   C40   1.401843 A    
C40   C46   1.394292 A    
C23   C29   1.413755 A    
C28   H12   1.076335 S    
C16   C24   1.427595 A    
C42   C43   1.411934 A    
Cu1   Cu2   2.691827 S    
O2    C2    1.298953 A    
C8    C11   1.547061 S    
C19   H8    1.075740 S    
N3    H24   1.045698 S    
C28   C30   1.397721 A    
C34   H17   1.081805 S    
C1    C13   1.470318 S    
C6    C12   1.545597 S    
C35   C37   1.422899 A    
C15   N5    1.434496 S    
C14   C18   1.394098 A    
C43   H21   1.076577 S    
N4    H25   1.044614 S    
O4    C2    1.300131 A    
C38   C42   1.436799 A    
C17   H10   1.083692 S    
C43   C45   1.389214 A    
C16   C18   1.397750 A    
C24   C30   1.412793 A    
O7    Cu2   1.957007 S    
O7    C3    1.292421 A    
N6    O12   1.301588 A    
O5    Cu1   1.953847 S    
O6    C4    1.287947 A    
C41   C44   1.412085 A    
C15   C17   1.398208 A    
C27   C29   1.397700 A    
C35   H16   1.075297 S    
O3    Cu2   1.933362 S    
O8    C4    1.292506 A    
C30   N4    1.439785 S    
C44   C46   1.389564 A    
C5    C10   1.534839 S    
C2    C14   1.467551 S    
C6    C9    1.534930 S    
C31   C33   1.391143 A    
C25   C28   1.414254 A    
O1    C1    1.299843 A    
O1    Cu1   1.946666 S    
C26   C27   1.414034 A    
Cu1   N2    2.022149 S    
N2    C34   1.356264 A    
C5    C7    1.545538 S    
C18   H9    1.083738 S    
C6    H4    1.110493 S    
C37   C39   1.416127 A    
C29   N3    1.439566 S    
N4    H26   1.045594 S    
O3    C1    1.300618 A    
O8    Cu1   1.957008 S    
N1    C33   1.356122 A    
C11   H5    1.110418 S    
C13   C19   1.391035 A    
C12   H6    1.110435 S    
C14   C20   1.389915 A    
N5    O10   1.301439 A    
C21   C23   1.426776 A    
C22   C24   1.426711 A    
C27   H11   1.076068 S    
N6    O11   1.301233 A    
C20   C22   1.404202 A    
C7    H1    1.110352 S    
C15   C23   1.427681 A    
C8    H2    1.110396 S    
C9    C11   1.531084 S    
C21   C25   1.426274 A    
O2    Cu2   1.946666 S    
C37   C41   1.436998 A    
C5    H3    1.110489 S    
Cu2   N1    2.022149 S    
C6    C8    1.545582 S    
C41   C42   1.436572 A    
C46   H14   1.084246 S    
