data_mof_unit_12354.cif
_audit_creation_date              2012-12-11T15:20:42-0500
_audit_creation_method            fapswitch 2.2
_symmetry_space_group_name_H-M    P1
_symmetry_Int_Tables_number       1
_space_group_crystal_system       triclinic
_cell_length_a                    12.949111
_cell_length_b                    13.063786
_cell_length_c                    15.329973
_cell_angle_alpha                 116.146878
_cell_angle_beta                  63.269326
_cell_angle_gamma                 96.804469
_cell_volume                      2068.81903561

loop_
_atom_site_label
_atom_site_type_symbol
_atom_type_description
_atom_site_fract_x
_atom_site_fract_y
_atom_site_fract_z
_atom_type_partial_charge
C1    C     C_R   0.021585 0.833909 0.031050 -0.104705
C2    C     C_R   0.322515 0.524746 0.778249 -0.119255
C3    C     C_R   0.242891 0.478244 0.107145 -0.149336
C4    C     C_R   0.705720 0.397283 0.205378 -0.140971
C5    C     C_R   0.986882 0.301916 0.696642 -0.194401
C6    C     C_R   0.335406 0.539025 0.076518 0.129933
C7    C     C_R   0.925613 0.210402 0.698779 -0.142159
C8    C     C_R   0.330779 0.452504 0.675224 0.022560
C9    C     C_R   0.085096 0.146211 0.975190 -0.104083
C10   C     C_R   0.024374 0.925422 0.469246 -0.216324
C11   C     C_R   0.017469 0.019461 0.560074 0.545044
C12   C     C_R   0.711647 0.416486 0.299000 0.011019
C13   C     C_R   0.937452 0.113614 0.603352 -0.158509
C14   C     C_R   0.870856 0.116052 0.553825 -0.221072
C15   C     C_R   0.880235 0.022212 0.460477 0.552077
C16   C     C_R   0.737309 0.580276 0.951890 0.519594
C17   C     C_R   0.957275 0.926901 0.420058 -0.163397
C18   C     C_R   0.645931 0.392720 0.471569 -0.038603
C19   C     C_R   0.546728 0.412684 0.569037 -0.264512
C20   C     C_R   0.436371 0.406095 0.572177 0.163587
C21   C     C_R   0.427233 0.362919 0.474842 -0.154190
C22   C     C_R   0.523466 0.349358 0.380161 -0.171584
C23   C     C_R   0.634132 0.567252 0.030720 -0.041457
C24   C     C_R   0.631095 0.377511 0.380547 0.143753
C25   C     C_2   0.427587 0.557926 0.108519 -0.156151
C26   C     C_2   0.517159 0.611075 0.066369 -0.160939
C27   C     C_2   0.889795 0.964996 0.030301 -0.257030
C28   C     C_R   0.953565 0.720063 0.316062 0.499487
C29   C     C_2   0.876007 0.055930 0.122618 -0.006623
C30   C     C_R   0.661087 0.487114 0.054697 -0.164459
C31   C     C_R   0.045508 0.818617 0.220136 0.466012
C32   C     C_R   0.803458 0.481994 0.301374 -0.003413
C33   C     C_R   0.936513 0.748585 0.922930 -0.013224
C34   C     C_R   0.975077 0.828614 0.323448 -0.260360
C35   C     C_R   0.951570 0.854612 0.992718 -0.035866
C36   C     C_2   0.760882 0.383379 0.467549 0.491549
C37   C     C_2   0.936050 0.728981 0.820769 0.650596
C38   C     C_R   0.323408 0.577666 0.010929 -0.100311
C39   C     C_R   0.898665 0.206375 0.794390 0.659522
C40   C     C_R   0.218792 0.440726 0.685006 -0.078976
C41   C     C_R   0.096336 0.252339 0.047947 -0.153456
C42   C     C_R   0.000998 0.167501 0.950118 0.542906
H1    H     H_    0.060795 0.898399 0.076050 0.181195
H2    H     H_    0.555636 0.434407 0.641997 0.118393
H3    H     H_    0.344851 0.350317 0.471774 0.116549
H4    H     H_    0.508806 0.329626 0.310642 0.118147
H5    H     H_    0.432632 0.505000 0.144755 0.127484
H6    H     H_    0.506731 0.669748 0.037940 0.117139
H7    H     H_    0.844492 0.970115 0.987452 0.179686
H8    H     H_    0.913713 0.055690 0.173019 0.152977
H9    H     H_    0.603865 0.452431 0.109697 0.127106
H10   H     H_    0.841042 0.501208 0.356028 0.178520
H11   H     H_    0.371818 0.639217 0.982924 0.098894
H12   H     H_    0.191788 0.390851 0.622708 0.098445
H13   H     H_    0.782452 0.100022 0.788910 0.310280
H14   H     H_    0.013192 0.013145 0.844361 0.314567
H15   H     H_    0.102826 0.094822 0.645473 0.317935
H16   H     H_    0.824735 0.953456 0.349241 0.315320
H17   H     H_    0.770828 0.423039 0.541855 0.039452
H18   H     H_    0.670602 0.661204 0.906507 0.297467
H19   H     H_    0.870575 0.757185 0.468524 0.328537
H20   H     H_    0.102367 0.967934 0.258581 0.328957
H21   H     H_    0.908927 0.798791 0.813082 -0.010513
H22   H     H_    0.154998 0.268732 0.084066 0.140837
H23   H     H_    0.393072 0.553003 0.799890 0.102580
H24   H     H_    0.218525 0.448722 0.168949 0.114304
H25   H     H_    0.013190 0.334792 0.636939 0.168365
H26   H     H_    0.085029 0.851785 0.434706 0.187725
H27   H     H_    0.811614 0.190597 0.588044 0.175678
H28   H     H_    0.656394 0.335895 0.169005 0.114402
N1    N     N_R   0.037310 0.720000 0.995790 -0.060259
N2    N     N_R   0.824890 0.517960 0.936420 -0.074136
N3    N     N_R   0.003210 0.648190 0.211380 -0.104595
N4    N     N_R   0.774330 0.457010 0.995840 -0.078352
N5    N     N_R   0.053760 0.709140 0.151960 -0.101428
N6    N     N_R   0.853860 0.498840 0.211410 -0.054993
N7    N     N_R   0.974240 0.667310 0.936390 -0.055920
N8    N     N_R   0.225670 0.542990 0.004160 -0.051525
N9    N     N_R   0.946240 0.290860 0.848040 -0.091452
N10   N     N_R   0.146140 0.501160 0.788590 -0.033913
N11   N     N_R   0.025760 0.332690 0.063610 -0.073917
N12   N     N_R   0.962690 0.280000 0.004210 -0.078625
N13   N     N_R   0.209210 0.553840 0.847990 -0.046806
N14   N     N_R   0.175110 0.482040 0.063580 -0.049194
N15   N     N_R   0.996790 0.351810 0.788620 -0.084658
N16   N     N_R   0.790790 0.446160 0.152010 -0.052922
Ni1   Ni    Ni4+2 0.130310 0.630310 0.999970 0.233717
Ni2   Ni    Ni4+2 0.869690 0.369690 0.000030 0.259479
Ni3   Ni    Ni4+2 0.985640 0.509470 0.863740 0.278270
Ni4   Ni    Ni4+2 0.014360 0.490530 0.136260 0.235504
O1    O     O_3   0.811380 0.149850 0.842336 -0.717940
O2    O     O_3   0.965451 0.086378 0.877601 -0.733047
O3    O     O_3   0.090610 0.015999 0.602481 -0.739301
O4    O     O_3   0.813200 0.027178 0.412967 -0.741902
O5    O     O_2   0.843988 0.325857 0.382296 -0.581334
O6    O     O_3   0.746827 0.623957 0.882283 -0.768105
O7    O     O_3   0.905004 0.687326 0.398906 -0.780428
O8    O     O_3   0.121878 0.894352 0.192658 -0.771769
O9    O     O_2   0.969601 0.634962 0.742804 -0.563152

loop_
_geom_bond_atom_site_label_1
_geom_bond_atom_site_label_2
_ccdc_geom_bond_type
N8    Ni1   S    
C28   O7    S    
N13   Ni1   S    
C30   H9    S    
C27   C29   D    
C19   C20   A    
C16   N2    A    
C37   O9    D    
C5    H25   S    
C2    H23   S    
C15   O4    S    
C4    H28   S    
N11   N12   A    
N7    Ni3   S    
C9    C42   A    
C8    C20   S    
C18   C24   A    
N3    Ni4   S    
C30   N4    A    
N16   Ni2   S    
C23   C26   S    
C6    C25   S    
C4    N16   A    
C10   C17   A    
C18   C19   A    
C31   O8    S    
N10   Ni3   S    
C32   H10   S    
H13   O1    S    
H20   O8    S    
C1    H1    S    
C42   N12   A    
C40   N10   A    
C4    C12   A    
C25   H5    S    
C26   H6    S    
C5    N15   A    
C36   H17   S    
C28   C34   A    
H15   O3    S    
C13   C14   A    
C12   C32   A    
N3    N5    A    
C2    N13   A    
N14   Ni4   S    
N10   N13   A    
C28   N3    A    
C39   O1    S    
N9    Ni2   S    
C37   H21   S    
C21   H3    S    
C29   H8    S    
H19   O7    S    
C16   O6    S    
C23   C30   A    
N2    N4    A    
C5    C7    A    
N15   Ni3   S    
C38   N8    A    
C27   C35   S    
C25   C26   D    
C33   C37   S    
C39   N9    A    
C31   N5    A    
C7    C13   S    
C41   N11   A    
C6    C38   A    
C31   C34   A    
C1    N1    A    
N1    Ni1   S    
N11   Ni4   S    
H18   O6    S    
N5    Ni1   S    
C22   H4    S    
C16   C23   A    
C40   H12   S    
C14   H27   S    
C22   C24   A    
C3    H24   S    
C17   C34   S    
N6    N16   A    
N1    N7    A    
C19   H2    S    
C1    C35   A    
C15   C17   A    
C2    C8    A    
C32   N6    A    
C10   H26   S    
C12   C24   S    
C9    C41   A    
H16   O4    S    
N2    Ni3   S    
C11   C13   A    
C36   O5    D    
C33   N7    A    
C38   H11   S    
N12   Ni2   S    
C33   C35   A    
N9    N15   A    
C42   O2    S    
C10   C11   A    
N8    N14   A    
H14   O2    S    
C20   C21   A    
C3    C6    A    
C3    N14   A    
C7    C39   A    
C14   C15   A    
C11   O3    S    
C8    C40   A    
C41   H22   S    
N4    Ni2   S    
C21   C22   A    
C18   C36   S    
C27   H7    S    
N6    Ni4   S    
