data_mof_unit_8300.cif
_audit_creation_date              2012-12-10T19:03:41-0500
_audit_creation_method            fapswitch 2.2
_symmetry_space_group_name_H-M    P1
_symmetry_Int_Tables_number       1
_space_group_crystal_system       triclinic
_cell_length_a                    15.874451
_cell_length_b                    10.810365
_cell_length_c                    9.582171
_cell_angle_alpha                 90.300607
_cell_angle_beta                  90.622631
_cell_angle_gamma                 90.797633
_cell_volume                      1644.10265768

loop_
_atom_site_label
_atom_site_type_symbol
_atom_type_description
_atom_site_fract_x
_atom_site_fract_y
_atom_site_fract_z
_atom_type_partial_charge
C1    C     C_R   0.498439 0.262387 0.499715 0.789318
C2    C     C_R   0.490046 0.129041 0.499186 -0.096921
C3    C     C_R   0.479684 0.063308 0.373078 -0.228522
C4    C     C_R   0.340318 0.499657 0.499401 0.823297
C5    C     C_R   0.479505 0.934419 0.373377 -0.214616
C6    C     C_R   0.489889 0.870472 0.499764 -0.098563
C7    C     C_R   0.488223 0.936746 0.624959 0.129899
C8    C     C_3   0.545752 0.931896 0.749167 -0.474656
C9    C     C_3   0.545809 0.072405 0.748936 -0.462877
C10   C     C_R   0.552142 0.578481 0.074954 0.219130
C11   C     C_R   0.441625 0.431957 0.070246 0.244032
C12   C     C_3   0.952871 0.553686 0.639698 -0.385367
C13   C     C_R   0.443338 0.431562 0.922011 -0.077530
C14   C     C_R   0.551856 0.578842 0.927995 0.241544
C15   C     C_3   0.645696 0.584552 0.923558 -0.497332
C16   C     C_R   0.498459 0.737533 0.500131 0.795791
C17   C     C_3   0.646019 0.583671 0.081907 -0.494947
C18   C     C_R   0.659697 0.500331 0.500579 0.827891
C19   C     C_3   0.050308 0.549082 0.641019 -0.400146
C20   C     C_3   0.047498 0.366770 0.482381 -0.468045
C21   C     C_3   0.949642 0.368393 0.478654 -0.385856
C22   C     C_1   0.749363 0.501060 0.501693 -0.199173
C23   C     C_3   0.917054 0.502162 0.499793 0.274371
C24   C     C_3   0.083084 0.500816 0.498433 0.224542
C25   C     C_3   0.370505 0.359286 0.134901 -0.800516
C26   C     C_3   0.092398 0.777909 0.446147 0.079934
C27   C     C_3   0.107050 0.905714 0.382702 -0.320958
C28   C     C_3   0.114282 0.005945 0.495177 -0.959807
C29   C     C_3   0.949749 0.585439 0.380001 -0.439884
C30   C     C_3   0.047190 0.576108 0.371630 0.340852
C31   C     C_1   0.824920 0.501677 0.501340 -0.090526
C32   C     C_1   0.175172 0.499732 0.497876 -0.073170
C33   C     C_1   0.250697 0.499501 0.498085 -0.180029
C34   C     C_R   0.488281 0.064016 0.624671 0.123863
Cu1   Cu    Cu3+1 0.500000 0.499980 0.640670 0.936058
Cu2   Cu    Cu3+1 0.500000 0.500020 0.359330 0.937860
H1    H     H_    0.927916 0.498475 0.728266 0.170057
H2    H     H_    0.608210 0.114342 0.724104 0.196594
H3    H     H_    0.070981 0.485602 0.725478 0.175498
H4    H     H_    0.398581 0.375821 0.862213 0.147552
H5    H     H_    0.673504 0.499878 0.877845 0.218239
H6    H     H_    0.669259 0.673174 0.879242 0.188984
H7    H     H_    0.673834 0.498313 0.125938 0.218628
H8    H     H_    0.670026 0.671651 0.129050 0.194177
H9    H     H_    0.070957 0.323086 0.385056 0.159637
H10   H     H_    0.069362 0.308366 0.570646 0.189534
H11   H     H_    0.924756 0.306880 0.561854 0.173530
H12   H     H_    0.077426 0.640390 0.670767 0.145484
H13   H     H_    0.926383 0.330802 0.376752 0.164321
H14   H     H_    0.058425 0.516989 0.278256 0.110187
H15   H     H_    0.929503 0.682329 0.396132 0.167794
H16   H     H_    0.320168 0.422953 0.167425 0.240860
H17   H     H_    0.340728 0.294143 0.058393 0.171966
H18   H     H_    0.391291 0.301320 0.222071 0.254824
H19   H     H_    0.146877 0.757902 0.515771 0.152098
H20   H     H_    0.033441 0.780890 0.507235 0.132621
H21   H     H_    0.166049 0.905369 0.321214 0.227492
H22   H     H_    0.053778 0.927541 0.311115 0.216580
H23   H     H_    0.932414 0.650778 0.655397 0.156218
H24   H     H_    0.055018 0.010626 0.555461 0.253742
H25   H     H_    0.125839 0.097037 0.445421 0.255973
H26   H     H_    0.167651 0.986581 0.567399 0.259453
H27   H     H_    0.920929 0.554592 0.278958 0.141777
H28   H     H_    0.476010 0.110683 0.273967 0.162843
H29   H     H_    0.475535 0.885692 0.274413 0.166021
H30   H     H_    0.514173 0.891295 0.841600 0.197754
H31   H     H_    0.608097 0.892043 0.724416 0.191923
H32   H     H_    0.514224 0.112850 0.841223 0.198351
N1    N     N_R   0.500530 0.500930 0.147930 -0.185185
N2    N     N_R   0.500530 0.500890 0.852020 -0.203243
O1    O     O_R   0.500000 0.319640 0.618810 -0.579362
O2    O     O_R   0.500010 0.319680 0.381230 -0.591079
O3    O     O_R   0.379430 0.499990 0.618840 -0.581348
O4    O     O_R   0.379440 0.500030 0.381260 -0.573587
O5    O     O_R   0.499990 0.680320 0.618770 -0.575160
O6    O     O_R   0.500000 0.680360 0.381190 -0.582907
O7    O     O_R   0.620560 0.499970 0.618740 -0.578339
O8    O     O_R   0.620570 0.500010 0.381160 -0.575549
O9    O     O_3   0.088819 0.689426 0.337278 -0.613893

loop_
_geom_bond_atom_site_label_1
_geom_bond_atom_site_label_2
_ccdc_geom_bond_type
C29   H27   S    
C8    H30   S    
C16   O5    A    
Cu1   Cu2   S    
C26   H19   S    
C21   H13   S    
C7    C8    S    
C3    H28   S    
C12   C23   S    
Cu1   O5    S    
C26   C27   S    
C1    O1    A    
C23   C29   S    
C25   H17   S    
C5    C6    A    
C13   N2    A    
C11   C25   S    
C10   C17   S    
C1    C2    S    
C12   H1    S    
C13   H4    S    
Cu2   O6    S    
C17   H8    S    
C12   H23   S    
Cu1   O3    S    
C20   C24   S    
Cu1   N2    S    
C8    C9    S    
C4    O4    A    
C20   H9    S    
C28   H25   S    
C2    C34   A    
C30   H14   S    
Cu1   O1    S    
C16   O6    A    
C14   N2    A    
C28   H24   S    
C1    O2    A    
C22   C31   T    
C25   H18   S    
C15   H5    S    
C5    H29   S    
C27   H21   S    
C19   H12   S    
Cu1   O7    S    
C23   C31   S    
C24   C32   S    
C29   C30   S    
C18   O8    A    
C4    O3    A    
C19   H3    S    
C30   O9    S    
C21   C23   S    
C10   C14   A    
C9    C34   S    
C7    C34   A    
C27   C28   S    
Cu2   N1    S    
C29   H15   S    
C15   C17   S    
C4    C33   S    
Cu2   O4    S    
C18   C22   S    
C15   H6    S    
C3    C5    A    
C27   H22   S    
C26   H20   S    
C11   N1    A    
C6    C7    A    
C26   O9    S    
C32   C33   T    
C2    C3    A    
C25   H16   S    
Cu2   O8    S    
C11   C13   A    
C18   O7    A    
C12   C19   S    
C9    H2    S    
C19   C24   S    
C24   C30   S    
C9    H32   S    
C6    C16   S    
C10   N1    A    
C20   C21   S    
C8    H31   S    
C17   H7    S    
C14   C15   S    
C20   H10   S    
Cu2   O2    S    
C21   H11   S    
C28   H26   S    
