data_mof_unit_25393.cif
_audit_creation_date              2013-03-05T16:05:45-0500
_audit_creation_method            fapswitch 2.2
_symmetry_space_group_name_H-M    P1
_symmetry_Int_Tables_number       1
_space_group_crystal_system       triclinic
_cell_length_a                    9.492368
_cell_length_b                    10.822124
_cell_length_c                    17.295178
_cell_angle_alpha                 90.347499
_cell_angle_beta                  85.578457
_cell_angle_gamma                 90.004978
_cell_volume                      1771.37140722

loop_
_atom_site_label
_atom_site_type_symbol
_atom_site_description
_atom_site_fract_x
_atom_site_fract_y
_atom_site_fract_z
_atom_type_partial_charge
O1    O     O_R   0.381260 0.680340 0.500000 -0.586201
O2    O     O_R   0.618740 0.319660 0.500000 -0.586214
O3    O     O_R   0.618830 0.680370 0.500010 -0.592810
O4    O     O_R   0.381170 0.319630 0.499990 -0.592808
C1    C     C_R   0.500034 0.737987 0.500077 0.781817
C2    C     C_R   0.499966 0.262013 0.499920 0.781790
O5    O     O_R   0.367440 0.500000 0.613600 -0.594248
O6    O     O_R   0.632560 0.500000 0.386400 -0.594258
O7    O     O_R   0.605010 0.500030 0.613600 -0.566878
O8    O     O_R   0.394990 0.499970 0.386400 -0.566875
C3    C     C_R   0.481352 0.494630 0.650037 0.799614
C4    C     C_R   0.518648 0.505367 0.349963 0.799628
Cu1   Cu    Cu3+1 0.359340 0.499980 0.500000 0.943400
Cu2   Cu    Cu3+1 0.640660 0.500020 0.500000 0.943387
C5    C     C_R   0.470093 0.482748 0.734720 -0.122443
C6    C     C_R   0.529905 0.517236 0.265280 -0.122452
C7    C     C_R   0.580956 0.432001 0.774688 -0.015317
C8    C     C_R   0.419040 0.567973 0.225310 -0.015338
C9    C     C_R   0.568389 0.431345 0.855348 -0.177007
C10   C     C_R   0.431597 0.568614 0.144651 -0.176994
C11   C     C_R   0.447556 0.478360 0.897100 0.074845
C12   C     C_R   0.552429 0.521598 0.102900 0.074834
C13   C     C_R   0.333266 0.522872 0.857672 0.033503
C14   C     C_R   0.666724 0.477096 0.142327 0.033508
C15   C     C_R   0.346595 0.524886 0.776502 -0.204592
C16   C     C_R   0.653402 0.475094 0.223497 -0.204567
C17   C     C_2   0.444057 0.480361 0.981985 -0.230348
C18   C     C_2   0.555928 0.519592 0.018015 -0.230345
H1    H     H_    0.738081 0.436688 0.254438 0.181476
H2    H     H_    0.261919 0.563299 0.745562 0.181488
H3    H     H_    0.651440 0.549401 0.984675 0.156351
H4    H     H_    0.348544 0.450552 0.015324 0.156353
H5    H     H_    0.346763 0.607719 0.114006 0.144258
H6    H     H_    0.653218 0.392232 0.885994 0.144247
C19   C     C_R   0.627637 0.935983 0.486662 -0.189506
C20   C     C_R   0.372362 0.064017 0.513330 -0.189515
H7    H     H_    0.727233 0.887676 0.475809 0.141773
H8    H     H_    0.272766 0.112324 0.524183 0.141775
C21   C     C_R   0.627540 0.063799 0.486438 -0.197248
C22   C     C_R   0.372458 0.936201 0.513552 -0.197242
H9    H     H_    0.727011 0.111955 0.475256 0.141750
H10   H     H_    0.272986 0.888045 0.524732 0.141763
C23   C     C_R   0.499955 0.128219 0.499893 -0.014725
C24   C     C_R   0.500045 0.871781 0.500101 -0.014725
C25   C     C_R   0.918732 0.576633 0.548587 -0.005527
C26   C     C_R   0.081268 0.423365 0.451414 -0.005538
H11   H     H_    0.856970 0.637798 0.587558 0.123440
H12   H     H_    0.143030 0.362199 0.412444 0.123432
C27   C     C_R   0.067750 0.576595 0.548571 -0.029043
C28   C     C_R   0.932250 0.423402 0.451430 -0.029097
H13   H     H_    0.118687 0.637758 0.587502 0.118382
H14   H     H_    0.881312 0.362239 0.412500 0.118379
N1    N     N_R   0.147930 0.499970 0.499980 -0.157177
N2    N     N_R   0.852070 0.500030 0.500020 -0.157180
C29   C     C_R   0.709873 0.376608 0.734657 0.111653
C30   C     C_R   0.843260 0.427903 0.744772 -0.148448
C31   C     C_R   0.964680 0.376985 0.706107 -0.113539
C32   C     C_R   0.953956 0.274382 0.657475 -0.116330
C33   C     C_R   0.821879 0.221792 0.647962 -0.118111
C34   C     C_R   0.700106 0.272330 0.686507 -0.081027
H15   H     H_    0.852857 0.508066 0.781789 0.164310
H16   H     H_    0.067023 0.417440 0.713484 0.150367
H17   H     H_    0.048002 0.235545 0.627274 0.124511
H18   H     H_    0.813931 0.141818 0.610740 0.122093
H19   H     H_    0.598302 0.230960 0.678476 0.105022
C35   C     C_R   0.290131 0.623375 0.265342 0.111698
C36   C     C_R   0.299906 0.727702 0.313450 -0.081140
C37   C     C_R   0.178143 0.778247 0.352002 -0.118138
C38   C     C_R   0.046069 0.725607 0.342541 -0.116279
C39   C     C_R   0.035338 0.622948 0.293953 -0.113528
C40   C     C_R   0.156748 0.572027 0.255280 -0.148393
H20   H     H_    0.401709 0.769107 0.321443 0.105050
H21   H     H_    0.186096 0.858262 0.389190 0.122102
H22   H     H_    0.952031 0.764446 0.372748 0.124497
H23   H     H_    0.932998 0.582449 0.286619 0.150336
H24   H     H_    0.147148 0.491819 0.218299 0.164274
C41   C     C_2   0.202721 0.572562 0.899916 0.337092
H25   H     H_    0.195010 0.583001 0.962449 0.077706
O9    O     O_2   0.101227 0.603098 0.865095 -0.572783
C42   C     C_2   0.797269 0.427404 0.100084 0.337109
H26   H     H_    0.804973 0.416950 0.037552 0.077693
O10   O     O_2   0.898769 0.396883 0.134903 -0.572774

loop_
_geom_bond_atom_site_label_1
_geom_bond_atom_site_label_2
_geom_bond_distance
_ccdc_geom_bond_type
O5    Cu1   1.972149 S    
C29   C30   1.405267 A    
C31   H16   1.081709 S    
C21   H9    1.083296 S    
C41   H25   1.083567 S    
O5    C3    1.294304 A    
C33   H18   1.081620 S    
C28   N2    1.366098 A    
O1    C1    1.288584 A    
C9    C11   1.401366 A    
C14   C16   1.400095 A    
C40   H24   1.083086 S    
C5    C15   1.403537 A    
C15   H2    1.083653 S    
C30   C31   1.398582 A    
C36   H20   1.083284 S    
O4    Cu1   1.962755 S    
C3    C5    1.466687 S    
C14   C42   1.488048 S    
C4    C6    1.466684 S    
C37   C38   1.397655 A    
C27   H13   1.081670 S    
C28   H14   1.081671 S    
C39   C40   1.398582 A    
C7    C29   1.483472 S    
C25   H11   1.081606 S    
C35   C36   1.405744 A    
C11   C17   1.465943 S    
C33   C34   1.398774 A    
C12   C18   1.465942 S    
C29   C34   1.405735 A    
O2    C2    1.288585 A    
Cu1   N1    2.006809 S    
C41   O9    1.221466 D    
C6    C16   1.403535 A    
C26   H12   1.081607 S    
C36   C37   1.398773 A    
C20   C22   1.383273 A    
C42   O10   1.221465 D    
C21   C23   1.400586 A    
C37   H21   1.081634 S    
C9    H6    1.084929 S    
C19   C21   1.383274 A    
O7    Cu2   1.967783 S    
C35   C40   1.405285 A    
C25   C27   1.414516 A    
O6    C4    1.294301 A    
C38   H22   1.082558 S    
C13   C41   1.488048 S    
C19   C24   1.400737 A    
O7    C3    1.290252 A    
O3    Cu2   1.962755 S    
O8    C4    1.290254 A    
C10   H5    1.084928 S    
O4    C2    1.288526 A    
Cu2   N2    2.006808 S    
C1    C24   1.447933 S    
C10   C12   1.401367 A    
C25   N2    1.366246 A    
C2    C23   1.447935 S    
C11   C13   1.411431 A    
C12   C14   1.411434 A    
O1    Cu1   1.962919 S    
C17   C18   1.339768 D    
C32   H17   1.082558 S    
C5    C7    1.415542 A    
O6    Cu2   1.972151 S    
C19   H7    1.083448 S    
C17   H4    1.086341 S    
C18   H3    1.086341 S    
C42   H26   1.083567 S    
O3    C1    1.288529 A    
O8    Cu1   1.967785 S    
C34   H19   1.083266 S    
C8    C35   1.483450 S    
C26   C28   1.414516 A    
C20   H8    1.083447 S    
C32   C33   1.397626 A    
C31   C32   1.397361 A    
C27   N1    1.366095 A    
C26   N1    1.366248 A    
C22   H10   1.083298 S    
C7    C9    1.390983 A    
C8    C10   1.390975 A    
C13   C15   1.400093 A    
C38   C39   1.397380 A    
O2    Cu2   1.962919 S    
C22   C24   1.400588 A    
C16   H1    1.083651 S    
C6    C8    1.415530 A    
C39   H23   1.081734 S    
C30   H15   1.083071 S    
C20   C23   1.400737 A    
Cu1   Cu2   2.670392 S    
