data_mof_unit_24221.cif
_audit_creation_date              2012-12-10T16:48:46-0500
_audit_creation_method            fapswitch 2.2
_symmetry_space_group_name_H-M    P1
_symmetry_Int_Tables_number       1
_space_group_crystal_system       triclinic
_cell_length_a                    17.161368
_cell_length_b                    8.686242
_cell_length_c                    7.440198
_cell_angle_alpha                 102.974811
_cell_angle_beta                  90.185287
_cell_angle_gamma                 92.903248
_cell_volume                      1079.2687332

loop_
_atom_site_label
_atom_site_type_symbol
_atom_type_description
_atom_site_fract_x
_atom_site_fract_y
_atom_site_fract_z
_atom_type_partial_charge
C1    C     C_R   0.497652 0.199725 0.453608 0.887063
C2    C     C_R   0.502348 0.800275 0.546392 0.887063
C3    C     C_2   0.496512 0.031854 0.427455 -0.372620
C4    C     C_2   0.503488 0.968146 0.572545 -0.372619
C5    C     C_R   0.350829 0.497522 0.525540 0.783407
C6    C     C_R   0.649172 0.502476 0.474460 0.783414
C7    C     C_R   0.266068 0.481836 0.539641 -0.026546
C8    C     C_R   0.733933 0.518150 0.460359 -0.026550
C9    C     C_R   0.221828 0.405066 0.383201 -0.184481
C10   C     C_R   0.778176 0.594880 0.616811 -0.184481
C11   C     C_R   0.141164 0.392081 0.391412 -0.129194
C12   C     C_R   0.858840 0.607845 0.608602 -0.129200
C13   C     C_R   0.103640 0.458357 0.555014 0.111489
C14   C     C_R   0.896362 0.541588 0.444990 0.111491
C15   C     C_R   0.147441 0.530353 0.713599 -0.177533
C16   C     C_R   0.852559 0.469637 0.286394 -0.177521
C17   C     C_R   0.228672 0.541198 0.706374 -0.202011
C18   C     C_R   0.771327 0.458811 0.293617 -0.202023
C19   C     C_2   0.017746 0.460906 0.556562 0.331004
C20   C     C_2   0.982256 0.539024 0.443437 0.331009
Cu1   Cu    Cu3+1 0.508700 0.517250 0.683000 0.948123
Cu2   Cu    Cu3+1 0.491300 0.482750 0.317000 0.948123
H1    H     H_    0.249556 0.355279 0.254075 0.147336
H2    H     H_    0.750450 0.644649 0.745944 0.147344
H3    H     H_    0.738041 0.400506 0.171148 0.156320
H4    H     H_    0.261956 0.599535 0.828834 0.156312
H5    H     H_    0.118638 0.581442 0.840828 0.159337
H6    H     H_    0.881360 0.418567 0.159155 0.159357
H7    H     H_    0.892273 0.665946 0.731020 0.136612
H8    H     H_    0.107733 0.333951 0.269002 0.136591
H9    H     H_    0.439023 0.378919 0.958210 0.223843
H10   H     H_    0.560977 0.621081 0.041790 0.223842
N1    N     N_2   0.478180 0.456750 0.041980 -0.217968
N2    N     N_2   0.521820 0.543250 0.958020 -0.217968
O1    O     O_R   0.505650 0.286040 0.618880 -0.581440
O2    O     O_R   0.494350 0.713960 0.381120 -0.581440
O3    O     O_R   0.490960 0.256910 0.309800 -0.587418
O4    O     O_R   0.509040 0.743090 0.690200 -0.587417
O5    O     O_R   0.394600 0.516230 0.672450 -0.591125
O6    O     O_R   0.605400 0.483770 0.327550 -0.591127
O7    O     O_R   0.379910 0.487100 0.363380 -0.583515
O8    O     O_R   0.620090 0.512900 0.636620 -0.583518
O9    O     O_3   0.026462 0.599692 0.315422 -0.597773
C21   C     C_3   0.997088 0.741461 0.287387 -0.319968
H11   H     H_    0.985620 0.825482 0.420318 0.146934
H12   H     H_    0.943730 0.716905 0.198557 0.176149
H13   H     H_    0.041638 0.800048 0.213913 0.185041
O10   O     O_3   0.973538 0.400232 0.684573 -0.597778
C22   C     C_3   0.002939 0.258513 0.712695 -0.319950
H14   H     H_    0.056283 0.283143 0.801570 0.176160
H15   H     H_    0.014439 0.174473 0.579798 0.146933
H16   H     H_    0.958391 0.199909 0.786158 0.185037
H17   H     H_    0.489928 0.960337 0.287605 0.178922
H18   H     H_    0.510072 0.039663 0.712395 0.178922

loop_
_geom_bond_atom_site_label_1
_geom_bond_atom_site_label_2
_ccdc_geom_bond_type
C16   H6    S    
C2    C4    S    
O9    C21   S    
H9    N1    S    
C15   C17   A    
Cu1   O1    S    
C14   C20   S    
C12   H7    S    
C9    C11   A    
C2    O4    A    
C15   H5    S    
C19   C20   D    
Cu1   O5    S    
C21   H13   S    
C1    O3    A    
C22   H16   S    
Cu2   O6    S    
C13   C15   A    
N1    N2    D    
Cu1   Cu2   S    
C3    H17   S    
C18   H3    S    
C10   C12   A    
C17   H4    S    
C16   C18   A    
O10   C22   S    
C12   C14   A    
C14   C16   A    
C5    O5    A    
C6    O6    A    
Cu2   O7    S    
C13   C19   S    
Cu1   O8    S    
C7    C9    A    
C11   C13   A    
C20   O9    S    
Cu2   O2    S    
C21   H11   S    
C1    O1    A    
C8    C10   A    
C22   H14   S    
C6    O8    A    
C2    O2    A    
C5    C7    S    
Cu2   N1    S    
C5    O7    A    
C19   O10   S    
C9    H1    S    
C10   H2    S    
C6    C8    S    
Cu1   N2    S    
C1    C3    S    
H10   N2    S    
C4    H18   S    
Cu2   O3    S    
C8    C18   A    
Cu1   O4    S    
C3    C4    D    
C11   H8    S    
C21   H12   S    
C22   H15   S    
C7    C17   A    
