data_mof_unit_57987.cif
_audit_creation_date              2013-03-05T15:47:14-0500
_audit_creation_method            fapswitch 2.2
_symmetry_space_group_name_H-M    P1
_symmetry_Int_Tables_number       1
_space_group_crystal_system       triclinic
_cell_length_a                    27.708247
_cell_length_b                    11.046491
_cell_length_c                    9.885464
_cell_angle_alpha                 111.94529
_cell_angle_beta                  97.287252
_cell_angle_gamma                 92.220815
_cell_volume                      2771.58969673

loop_
_atom_site_label
_atom_site_type_symbol
_atom_site_description
_atom_site_fract_x
_atom_site_fract_y
_atom_site_fract_z
_atom_type_partial_charge
O1    O     O_R   0.504520 0.332330 0.577400 -0.574583
O2    O     O_R   0.495480 0.667670 0.422600 -0.559856
O3    O     O_R   0.490210 0.295500 0.332650 -0.518753
O4    O     O_R   0.509790 0.704500 0.667350 -0.527092
C1    C     C_R   0.495366 0.253680 0.439358 0.777490
C2    C     C_R   0.503761 0.746526 0.560790 0.784775
O5    O     O_R   0.437420 0.518430 0.622370 -0.542353
O6    O     O_R   0.562580 0.481570 0.377630 -0.505401
O7    O     O_R   0.423110 0.481600 0.377610 -0.535632
O8    O     O_R   0.576890 0.518400 0.622390 -0.595724
C3    C     C_R   0.407604 0.501903 0.501997 0.854081
C4    C     C_R   0.592376 0.496088 0.497135 0.848358
Cu1   Cu    Cu3+1 0.508480 0.521810 0.644910 1.093450
Cu2   Cu    Cu3+1 0.491520 0.478190 0.355090 1.150926
C5    C     C_R   0.174777 0.378679 0.489755 0.644485
C6    C     C_R   0.828612 0.610712 0.572568 0.636296
O9    O     O_2   0.194077 0.265312 0.421788 -0.429232
O10   O     O_2   0.807410 0.722711 0.591988 -0.431446
N1    N     N_R   0.202248 0.494712 0.525503 -0.439951
N2    N     N_R   0.800052 0.494092 0.517222 -0.439683
C7    C     C_R   0.183058 0.612052 0.583734 0.588650
C8    C     C_R   0.820444 0.377679 0.485763 0.581200
C9    C     C_R   0.272863 0.545543 0.415298 -0.081866
C10   C     C_R   0.716519 0.426262 0.367393 -0.080897
C11   C     C_R   0.324045 0.553502 0.416044 0.234159
C12   C     C_R   0.665066 0.419685 0.364238 0.247499
C13   C     C_R   0.333880 0.446168 0.591167 -0.168151
C14   C     C_R   0.677101 0.560730 0.625458 -0.214740
C15   C     C_R   0.284095 0.443526 0.595937 -0.084243
C16   C     C_R   0.727227 0.560671 0.630537 -0.091675
C17   C     C_R   0.253249 0.493243 0.509938 0.276296
C18   C     C_R   0.747583 0.495233 0.503331 0.279640
C19   C     C_R   0.104689 0.496865 0.565963 -0.071991
C20   C     C_R   0.901335 0.494242 0.559912 -0.075108
C21   C     C_R   0.126651 0.377550 0.522002 -0.124594
C22   C     C_R   0.879673 0.613904 0.608369 -0.121825
C23   C     C_R   0.100537 0.262077 0.515226 0.298479
C24   C     C_R   0.909297 0.731953 0.693952 0.290170
C25   C     C_R   0.132512 0.615776 0.590674 -0.063531
C26   C     C_R   0.871464 0.374136 0.489480 -0.065412
C27   C     C_R   0.354573 0.503203 0.504897 -0.137849
C28   C     C_R   0.645463 0.491352 0.493853 -0.126181
H1    H     H_    0.356130 0.400435 0.652574 0.242669
H2    H     H_    0.663015 0.615311 0.726089 0.203042
H3    H     H_    0.269213 0.402079 0.667052 0.193692
H4    H     H_    0.750654 0.612026 0.735023 0.187879
C29   C     C_R   0.974787 0.375723 0.530420 0.071966
C30   C     C_R   0.032500 0.615818 0.626732 0.077159
C31   C     C_R   0.982446 0.615434 0.645112 0.007278
C32   C     C_R   0.026618 0.377376 0.552129 0.004244
C33   C     C_R   0.952865 0.495057 0.579356 0.057397
C34   C     C_R   0.054680 0.496790 0.582619 0.058693
C35   C     C_R   0.944653 0.259243 0.447945 -0.092595
C36   C     C_R   0.059455 0.730211 0.637391 -0.095298
C37   C     C_R   0.893664 0.256174 0.426939 -0.026890
C38   C     C_R   0.108843 0.732772 0.621930 -0.042411
O11   O     O_2   0.791410 0.267117 0.455542 -0.537889
O12   O     O_2   0.213224 0.723603 0.637095 -0.528547
C39   C     C_R   0.051450 0.264134 0.539622 -0.150015
C40   C     C_R   0.960402 0.730883 0.721091 -0.155969
H5    H     H_    0.960858 0.170345 0.390616 0.170660
H6    H     H_    0.041308 0.817757 0.649095 0.163614
H7    H     H_    0.474994 0.862840 0.383964 0.236207
H8    H     H_    0.524066 0.135132 0.612624 0.212707
C41   C     C_2   0.489127 0.112651 0.402643 0.183066
C42   C     C_2   0.507315 0.888098 0.597851 0.156441
C43   C     C_2   0.503904 0.067730 0.508301 -0.174573
C44   C     C_2   0.493218 0.931563 0.490353 -0.124690
N3    N     N_2   0.478780 0.445430 0.137360 -0.291671
N4    N     N_2   0.521220 0.554570 0.862640 -0.304710
C45   C     C_2   0.504475 0.513205 0.082521 0.367409
C46   C     C_2   0.492397 0.500653 0.924141 0.364559
H9    H     H_    0.554299 0.601104 0.923564 0.239303
H10   H     H_    0.450765 0.378500 0.068269 0.252543
N5    N     N_R   0.526613 0.976162 0.746215 0.144790
O13   O     O_R   0.563572 0.946831 0.819608 -0.271754
O14   O     O_R   0.502856 0.074444 0.815383 -0.271880
N6    N     N_R   0.465117 0.027737 0.258172 0.149686
O15   O     O_R   0.425979 0.061349 0.198644 -0.278940
O16   O     O_R   0.487076 0.931370 0.176162 -0.249527
N7    N     N_R   0.445847 0.436028 0.845253 0.111116
O17   O     O_R   0.406931 0.486285 0.895341 -0.337010
O18   O     O_R   0.442570 0.312825 0.759109 -0.339099
N8    N     N_R   0.544338 0.605336 0.174611 0.120448
O19   O     O_R   0.588357 0.568957 0.172558 -0.311750
O20   O     O_R   0.539067 0.729732 0.215978 -0.324463
N9    N     N_R   0.125056 0.146459 0.499102 0.142512
O21   O     O_R   0.111685 0.038688 0.384224 -0.322651
O22   O     O_R   0.161203 0.149476 0.598517 -0.274681
N10   N     N_R   0.887552 0.850657 0.765601 0.140995
O23   O     O_R   0.863190 0.860979 0.873000 -0.297320
O24   O     O_R   0.894152 0.950584 0.728359 -0.285506
N11   N     N_R   0.633166 0.335333 0.233226 0.133438
O25   O     O_R   0.636082 0.342872 0.106224 -0.298423
O26   O     O_R   0.602742 0.245519 0.239521 -0.302567
N12   N     N_R   0.344953 0.612914 0.327448 0.117597
O27   O     O_R   0.333603 0.562209 0.184437 -0.296251
O28   O     O_R   0.377017 0.714426 0.389249 -0.337690
C47   C     C_2   0.737427 0.358625 0.230187 0.502647
H11   H     H_    0.718847 0.268916 0.145959 0.132520
O29   O     O_2   0.775325 0.403617 0.208594 -0.518216
C48   C     C_2   0.240753 0.593294 0.317018 0.504943
H12   H     H_    0.255246 0.666446 0.280360 0.133838
O30   O     O_2   0.198083 0.549342 0.272713 -0.515359
C49   C     C_2   0.865463 0.130785 0.325852 0.531711
H13   H     H_    0.830937 0.130597 0.260485 0.123369
O31   O     O_2   0.881239 0.025643 0.311511 -0.479812
C50   C     C_2   0.132644 0.857203 0.626409 0.540096
H14   H     H_    0.160154 0.856555 0.557416 0.147064
O32   O     O_2   0.120775 0.962615 0.705748 -0.476174
C51   C     C_2   0.029888 0.156337 0.576143 0.454003
H15   H     H_    0.041326 0.058247 0.531209 0.129848
O33   O     O_2   0.000421 0.177611 0.662471 -0.486543
C52   C     C_2   0.988715 0.843790 0.846137 0.446172
H16   H     H_    0.976755 0.941496 0.877188 0.141384
O34   O     O_2   0.024797 0.827542 0.920025 -0.476016

loop_
_geom_bond_atom_site_label_1
_geom_bond_atom_site_label_2
_geom_bond_distance
_ccdc_geom_bond_type
C42   C44   1.342741 D    
N9    O21   1.301059 A    
N11   O25   1.301176 A    
C13   C15   1.385795 A    
C10   C47   1.486257 S    
C40   C52   1.491590 S    
C51   H15   1.083698 S    
O7    Cu2   1.936566 S    
N1    C17   1.440830 S    
C8    O11   1.348412 S    
N7    O17   1.300952 A    
C19   C34   1.416017 A    
C30   C36   1.404678 A    
C49   O31   1.221532 D    
C20   C33   1.415539 A    
C19   C25   1.418921 A    
C31   C40   1.422826 A    
C37   C49   1.487002 S    
C20   C26   1.417152 A    
C32   C39   1.423449 A    
N1    C7    1.366605 A    
N8    O20   1.299043 A    
N6    O16   1.300360 A    
C9    C48   1.487904 S    
Cu1   N4    2.025685 S    
C50   H14   1.083927 S    
C14   C28   1.400629 A    
O4    Cu1   1.944443 S    
N3    C45   1.311957 D    
C38   C50   1.484269 S    
C4    C28   1.477915 S    
C5    N1    1.365562 A    
C35   H5    1.081607 S    
C47   H11   1.084124 S    
C41   C43   1.341442 D    
N12   O28   1.301164 A    
C32   C34   1.413974 A    
C46   N7    1.427869 S    
C6    N2    1.367278 A    
C29   C35   1.406201 A    
C12   N11   1.438965 S    
N11   O26   1.301330 A    
Cu1   Cu2   2.696353 S    
O2    C2    1.301211 A    
C5    C21   1.410482 A    
N7    O18   1.300074 A    
C23   N9    1.435510 S    
C52   H16   1.083908 S    
C29   C32   1.423307 A    
C35   C37   1.398907 A    
C36   C38   1.396468 A    
C43   C44   1.460948 S    
H8    C43   1.085208 S    
N8    O19   1.299104 A    
C1    C41   1.459176 S    
C11   C27   1.417208 A    
N6    O15   1.301077 A    
C29   C33   1.414442 A    
C36   H6    1.081793 S    
C31   C33   1.413101 A    
C14   H2    1.083462 S    
C15   H3    1.083216 S    
C9    C17   1.418816 A    
O5    C3    1.307043 A    
N5    O13   1.301148 A    
C10   C18   1.420432 A    
N5    O14   1.301621 A    
C13   C27   1.396650 A    
N10   O24   1.301020 A    
C25   C38   1.419319 A    
C7    C25   1.412315 A    
C30   C34   1.413762 A    
O6    C4    1.305244 A    
C26   C37   1.419519 A    
C8    C26   1.411934 A    
N12   O27   1.301141 A    
N4    H9    1.029121 S    
N3    H10   1.029208 S    
C51   O33   1.221431 D    
C48   O30   1.220906 D    
O7    C3    1.297013 A    
C23   C39   1.410700 A    
O3    Cu2   1.944442 S    
O8    C4    1.301116 A    
C24   C40   1.408739 A    
O4    C2    1.296128 A    
C30   C31   1.421461 A    
C47   O29   1.221043 D    
N2    C8    1.368069 A    
N9    O22   1.301269 A    
Cu2   N3    2.025684 S    
O1    C1    1.300109 A    
O1    Cu1   1.938555 S    
C12   C28   1.419580 A    
C45   N8    1.431720 S    
N2    C18   1.443849 S    
C5    O9    1.349020 S    
H7    C44   1.084513 S    
O6    Cu2   1.950535 S    
C41   N6    1.439230 S    
C21   C23   1.416844 A    
C16   H4    1.083251 S    
C10   C12   1.420485 A    
O3    C1    1.295240 A    
O8    Cu1   1.936571 S    
C52   O34   1.221425 D    
C49   H13   1.083855 S    
C24   N10   1.435051 S    
C14   C16   1.383460 A    
C7    O12   1.348247 S    
C15   C17   1.398518 A    
C6    C22   1.409968 A    
C16   C18   1.397875 A    
N10   O23   1.301224 A    
C42   N5    1.441408 S    
C22   C24   1.416426 A    
C19   C21   1.413311 A    
C50   O32   1.221342 D    
C3    C27   1.473813 S    
C20   C22   1.413557 A    
C9    C11   1.416374 A    
C48   H12   1.084519 S    
O2    Cu2   1.938555 S    
C13   H1    1.078054 S    
O5    Cu1   1.950535 S    
C45   C46   1.511208 S    
C11   N12   1.436063 S    
C6    O10   1.349084 S    
C39   C51   1.492022 S    
N4    C46   1.311145 D    
C2    C42   1.462972 S    
