data_mof_unit_38117.cif
_audit_creation_date              2012-12-10T20:34:56-0500
_audit_creation_method            fapswitch 2.2
_symmetry_space_group_name_H-M    P1
_symmetry_Int_Tables_number       1
_space_group_crystal_system       triclinic
_cell_length_a                    10.63238
_cell_length_b                    10.671584
_cell_length_c                    9.867033
_cell_angle_alpha                 90.099824
_cell_angle_beta                  90.27047
_cell_angle_gamma                 90.141705
_cell_volume                      1119.53873035

loop_
_atom_site_label
_atom_site_type_symbol
_atom_type_description
_atom_site_fract_x
_atom_site_fract_y
_atom_site_fract_z
_atom_type_partial_charge
C1    C     C_R   0.503330 0.260028 0.500044 0.873649
C2    C     C_R   0.509871 0.936393 0.623397 0.135508
C3    C     C_3   0.408878 0.929316 0.728143 -0.482003
C4    C     C_R   0.257640 0.499582 0.499595 0.828400
C5    C     C_3   0.409060 0.071353 0.728168 -0.496239
C6    C     C_R   0.432094 0.412583 0.070562 0.216626
C7    C     C_R   0.576351 0.578291 0.072884 -0.201208
C8    C     C_R   0.576652 0.578564 0.928463 0.147738
C9    C     C_R   0.432276 0.412442 0.928078 0.180005
C10   C     C_3   0.293563 0.393632 0.920986 -0.519097
C11   C     C_3   0.293116 0.394719 0.074704 -0.515006
C12   C     C_3   0.878744 0.499775 0.499292 0.186415
C13   C     C_R   0.503453 0.739980 0.500156 0.877140
C14   C     C_R   0.742352 0.499993 0.499975 0.824031
C15   C     C_3   0.072142 0.381830 0.574083 -0.409489
C16   C     C_3   0.927719 0.381696 0.573708 -0.402081
C17   C     C_3   0.072961 0.619190 0.570700 -0.409147
C18   C     C_3   0.070575 0.497112 0.351060 -0.403945
C19   C     C_3   0.121219 0.499456 0.498844 0.194500
C20   C     C_3   0.928570 0.618995 0.571670 -0.399130
C21   C     C_3   0.927886 0.498457 0.351161 -0.388307
C22   C     C_R   0.509855 0.064120 0.623280 0.136743
C23   C     C_R   0.521424 0.128593 0.501506 -0.106850
C24   C     C_R   0.555422 0.064738 0.382963 -0.237020
C25   C     C_R   0.555587 0.935103 0.383089 -0.237721
C26   C     C_R   0.521606 0.871502 0.501721 -0.106867
H1    H     H_    0.106777 0.380972 0.680650 0.175031
H2    H     H_    0.444042 0.112629 0.824816 0.203492
H3    H     H_    0.635997 0.642969 0.128353 0.142735
H4    H     H_    0.107223 0.295208 0.523989 0.151934
H5    H     H_    0.243561 0.475011 0.875895 0.213740
H6    H     H_    0.268043 0.301046 0.876896 0.194493
H7    H     H_    0.243894 0.477507 0.117166 0.211677
H8    H     H_    0.266324 0.303104 0.119695 0.195735
H9    H     H_    0.892208 0.295471 0.522456 0.155194
H10   H     H_    0.893363 0.379943 0.680112 0.178879
H11   H     H_    0.108594 0.623463 0.676910 0.171920
H12   H     H_    0.894259 0.582815 0.295460 0.170689
H13   H     H_    0.895115 0.622062 0.678321 0.178528
H14   H     H_    0.105538 0.579959 0.293808 0.172038
H15   H     H_    0.103255 0.410935 0.298257 0.173247
H16   H     H_    0.892320 0.414134 0.296185 0.176423
H17   H     H_    0.749227 0.645525 0.886660 0.148581
H18   H     H_    0.634356 0.754389 0.887793 0.154986
H19   H     H_    0.107777 0.704248 0.517356 0.153584
H20   H     H_    0.892844 0.704453 0.519757 0.154742
H21   H     H_    0.573969 0.113919 0.289165 0.168190
H22   H     H_    0.574299 0.885658 0.289356 0.164452
H23   H     H_    0.320004 0.887714 0.688385 0.195205
H24   H     H_    0.443383 0.888547 0.824945 0.202199
H25   H     H_    0.320240 0.112662 0.688603 0.193435
N1    N     N_R   0.499150 0.499140 0.142800 -0.110958
N2    N     N_R   0.499150 0.499180 0.857150 -0.105891
N3    N     N_3   0.656478 0.663340 0.856996 -0.398610
O1    O     O_R   0.500020 0.316790 0.614690 -0.615060
O2    O     O_R   0.500000 0.316760 0.385350 -0.620870
O3    O     O_R   0.314800 0.500000 0.614670 -0.629598
O4    O     O_R   0.314790 0.499960 0.385330 -0.624878
O5    O     O_R   0.500000 0.683240 0.614650 -0.595179
O6    O     O_R   0.499980 0.683210 0.385310 -0.624117
O7    O     O_R   0.685210 0.500040 0.614670 -0.608572
O8    O     O_R   0.685200 0.500000 0.385330 -0.633382
Zn1   Zn    Zn3+2 0.500010 0.500020 0.653130 0.949524
Zn2   Zn    Zn3+2 0.499990 0.499980 0.346870 0.929816

loop_
_geom_bond_atom_site_label_1
_geom_bond_atom_site_label_2
_ccdc_geom_bond_type
C4    O3    A    
C2    C22   A    
C23   C24   A    
O2    Zn2   S    
O3    Zn1   S    
C13   O5    A    
C10   H6    S    
C5    H2    S    
N2    Zn1   S    
C9    C10   S    
H17   N3    S    
C15   H1    S    
O6    Zn2   S    
C12   C20   S    
C6    C9    A    
C2    C3    S    
C1    O1    A    
C8    N2    A    
C7    C8    A    
C2    C26   A    
C13   O6    A    
C17   H11   S    
C16   H10   S    
C15   C19   S    
C24   H21   S    
C25   H22   S    
C7    H3    S    
C15   C16   S    
C12   C21   S    
O1    Zn1   S    
C17   C19   S    
C3    H24   S    
C12   C14   S    
C7    N1    A    
C1    C23   S    
C16   H9    S    
C3    H23   S    
C13   C26   S    
C9    N2    A    
C10   C11   S    
C21   H12   S    
C4    O4    A    
C21   H16   S    
C18   C21   S    
H18   N3    S    
C11   H7    S    
C17   C20   S    
C24   C25   A    
C15   H4    S    
C18   C19   S    
N1    Zn2   S    
C18   H15   S    
C8    N3    S    
C6    C11   S    
O7    Zn1   S    
C20   H13   S    
C18   H14   S    
C22   C23   A    
C5    H25   S    
O8    Zn2   S    
O4    Zn2   S    
C6    N1    A    
C25   C26   A    
C14   O7    A    
C4    C19   S    
O5    Zn1   S    
C10   H5    S    
C1    O2    A    
C11   H8    S    
C20   H20   S    
C5    C22   S    
C12   C16   S    
C17   H19   S    
C3    C5    S    
C14   O8    A    
