data_mof_unit_23007.cif
_audit_creation_date              2012-12-10T17:18:18-0500
_audit_creation_method            fapswitch 2.2
_symmetry_space_group_name_H-M    P1
_symmetry_Int_Tables_number       1
_space_group_crystal_system       triclinic
_cell_length_a                    10.116729
_cell_length_b                    10.820154
_cell_length_c                    15.0018
_cell_angle_alpha                 90.057494
_cell_angle_beta                  81.644455
_cell_angle_gamma                 95.399027
_cell_volume                      1617.39271507

loop_
_atom_site_label
_atom_site_type_symbol
_atom_type_description
_atom_site_fract_x
_atom_site_fract_y
_atom_site_fract_z
_atom_type_partial_charge
C1    C     C_R   0.556145 0.732650 0.491436 0.941414
C2    C     C_2   0.072868 0.490080 0.492735 -0.097585
C3    C     C_R   0.500489 0.498450 0.673085 0.943044
C4    C     C_R   0.499517 0.501564 0.326919 0.935602
C5    C     C_R   0.581119 0.428272 0.178347 -0.287194
C6    C     C_R   0.418893 0.571780 0.821678 -0.286531
C7    C     C_R   0.498468 0.503826 0.231363 -0.158576
C8    C     C_R   0.501590 0.496267 0.768654 -0.162330
C9    C     C_R   0.419824 0.583531 0.193569 0.416538
C10   C     C_R   0.580402 0.416714 0.806450 0.416066
C11   C     C_R   0.416436 0.579312 0.100428 -0.017288
C12   C     C_R   0.443739 0.267334 0.503521 0.944346
C13   C     C_R   0.583800 0.420954 0.899588 -0.017257
C14   C     C_R   0.500492 0.501917 0.046518 -0.044190
C15   C     C_R   0.499700 0.498311 0.953498 -0.043823
C16   C     C_R   0.585045 0.427750 0.085752 0.090524
C17   C     C_R   0.415091 0.572418 0.914268 0.090620
C18   C     C_R   0.328825 0.647905 0.060704 -0.319036
C19   C     C_R   0.671453 0.352394 0.939311 -0.318927
C20   C     C_R   0.328532 0.646276 0.967664 0.463720
C21   C     C_R   0.671665 0.353940 0.032356 0.463827
C22   C     C_2   0.587842 0.864597 0.478435 -0.358065
C23   C     C_2   0.411613 0.135314 0.497404 -0.362342
C24   C     C_2   0.487152 0.933785 0.472585 -0.132430
C25   C     C_2   0.511595 0.066008 0.470011 -0.144018
C26   C     C_2   0.927143 0.509942 0.507245 -0.095379
H1    H     H_    0.642070 0.369183 0.210115 0.226460
H2    H     H_    0.890777 0.577347 0.556216 0.165208
H3    H     H_    0.119720 0.614451 0.583105 0.169559
H4    H     H_    0.880269 0.385533 0.416904 0.168047
H5    H     H_    0.357501 0.745941 0.216840 0.326505
H6    H     H_    0.642913 0.254389 0.783163 0.327063
H7    H     H_    0.190645 0.761928 0.974721 0.337494
H8    H     H_    0.809579 0.238293 0.025302 0.337496
H9    H     H_    0.357823 0.630762 0.789920 0.227406
H10   H     H_    0.258466 0.701784 0.101357 0.161522
H11   H     H_    0.741848 0.298551 0.898663 0.161673
H12   H     H_    0.614700 0.106116 0.451421 0.192096
H13   H     H_    0.383748 0.893613 0.476111 0.195762
H14   H     H_    0.308809 0.094745 0.516100 0.154578
H15   H     H_    0.690957 0.905228 0.475051 0.153328
H16   H     H_    0.109241 0.422688 0.443754 0.165509
N1    N     N_2   0.842700 0.448880 0.462930 -0.190974
N2    N     N_2   0.157300 0.551120 0.537070 -0.191468
O1    O     O_R   0.431060 0.692470 0.507460 -0.608194
O2    O     O_3   0.650168 0.335227 0.751094 -0.752197
O3    O     O_3   0.244031 0.715191 0.927793 -0.776869
O4    O     O_3   0.756145 0.284993 0.072234 -0.777557
O5    O     O_R   0.568940 0.307530 0.492540 -0.606140
O6    O     O_R   0.651120 0.659650 0.483670 -0.621040
O7    O     O_R   0.348880 0.340350 0.516330 -0.620708
O8    O     O_R   0.389960 0.516440 0.644050 -0.629497
O9    O     O_R   0.610040 0.483560 0.355950 -0.632954
O10   O     O_R   0.610030 0.483620 0.620260 -0.560498
O11   O     O_R   0.389970 0.516380 0.379740 -0.563843
O12   O     O_3   0.350199 0.665116 0.248932 -0.755284
Zn1   Zn    Zn3+2 0.353060 0.521920 0.515880 0.978194
Zn2   Zn    Zn3+2 0.646940 0.478080 0.484120 0.978593

loop_
_geom_bond_atom_site_label_1
_geom_bond_atom_site_label_2
_ccdc_geom_bond_type
C10   O2    S    
C3    O8    A    
C11   C18   A    
C16   C21   A    
O7    Zn1   S    
C14   C16   A    
C4    O9    A    
C5    C7    A    
C1    O6    A    
C26   H2    S    
C13   C15   A    
N2    Zn1   S    
O9    Zn2   S    
C21   O4    S    
O1    Zn1   S    
C24   H13   S    
O11   Zn1   S    
C12   O5    A    
C1    C22   S    
C2    C26   S    
C9    O12   S    
C6    H9    S    
C9    C11   A    
C12   C23   S    
C1    O1    A    
C18   H10   S    
C2    H16   S    
C4    C7    S    
C8    C10   A    
C19   C21   A    
C26   N1    D    
H5    O12   S    
C18   C20   A    
H3    N2    S    
C23   C25   D    
C4    O11   A    
H7    O3    S    
C3    O10   A    
C22   C24   D    
H4    N1    S    
C22   H15   S    
H8    O4    S    
O8    Zn1   S    
C13   C19   A    
C23   H14   S    
C20   O3    S    
C25   H12   S    
C12   O7    A    
C24   C25   S    
C7    C9    A    
C3    C8    S    
O10   Zn2   S    
C11   C14   A    
C15   C17   A    
C6    C17   A    
C14   C15   A    
C5    C16   A    
C6    C8    A    
C19   H11   S    
N1    Zn2   S    
C5    H1    S    
H6    O2    S    
C17   C20   A    
O5    Zn2   S    
C2    N2    D    
C10   C13   A    
O6    Zn2   S    
