data_mof_unit_66426.cif
_audit_creation_date              2012-12-10T19:00:30-0500
_audit_creation_method            fapswitch 2.2
_symmetry_space_group_name_H-M    P1
_symmetry_Int_Tables_number       1
_space_group_crystal_system       triclinic
_cell_length_a                    37.028231
_cell_length_b                    30.272358
_cell_length_c                    21.289572
_cell_angle_alpha                 89.960138
_cell_angle_beta                  54.838205
_cell_angle_gamma                 90.021233
_cell_volume                      19509.6311597

loop_
_atom_site_label
_atom_site_type_symbol
_atom_type_description
_atom_site_fract_x
_atom_site_fract_y
_atom_site_fract_z
_atom_type_partial_charge
C1    C     C_R   0.913722 0.499996 0.086270 0.861455
C2    C     C_3   0.959610 0.487623 0.769857 -0.169049
C3    C     C_R   0.511950 0.657365 0.433461 -0.193340
C4    C     C_R   0.012211 0.157328 0.542098 -0.194762
C5    C     C_R   0.987706 0.157335 0.457889 -0.192013
C6    C     C_R   0.500006 0.413685 0.500014 0.868967
C7    C     C_R   0.000002 0.913686 0.500015 0.868998
C8    C     C_R   0.038035 0.703091 0.480480 -0.179951
C9    C     C_R   0.962108 0.703069 0.519485 -0.179789
C10   C     C_R   0.462130 0.203051 0.556553 -0.179901
C11   C     C_R   0.538086 0.203110 0.443548 -0.180128
C12   C     C_R   0.038129 0.657290 0.479994 -0.196689
C13   C     C_3   0.540846 0.989202 0.229720 -0.171744
C14   C     C_R   0.961986 0.657272 0.519944 -0.196708
C15   C     C_R   0.461991 0.157253 0.556274 -0.197260
C16   C     C_R   0.538164 0.157310 0.443788 -0.195736
C17   C     C_R   0.000050 0.634223 0.499962 -0.029650
C18   C     C_R   0.500059 0.134223 0.500014 -0.030089
C19   C     C_R   0.487588 0.703110 0.566629 -0.179535
C20   C     C_R   0.512158 0.703162 0.433356 -0.179213
C21   C     C_R   0.012432 0.203123 0.541725 -0.179661
C22   C     C_R   0.987418 0.203132 0.458323 -0.179247
C23   C     C_R   0.000078 0.725991 0.499985 0.112156
C24   C     C_3   0.468192 0.972447 0.761291 -0.166257
C25   C     C_R   0.500121 0.225991 0.500055 0.112071
C26   C     C_R   0.512608 0.296866 0.433279 -0.179594
C27   C     C_R   0.487620 0.296819 0.566771 -0.179231
C28   C     C_R   0.987575 0.796849 0.458267 -0.179493
C29   C     C_R   0.012575 0.796840 0.541686 -0.179085
C30   C     C_R   0.512309 0.342665 0.433384 -0.193271
C31   C     C_R   0.487836 0.342620 0.566660 -0.193194
C32   C     C_R   0.987797 0.842647 0.457892 -0.194624
C33   C     C_R   0.012286 0.842641 0.542121 -0.191843
C34   C     C_R   0.500046 0.365708 0.500023 -0.030695
C35   C     C_3   0.030966 0.528346 0.198346 -0.162530
C36   C     C_R   0.000023 0.865709 0.500023 -0.030070
C37   C     C_R   0.499856 0.726041 0.499992 0.112263
C38   C     C_R   0.999912 0.226033 0.500034 0.112102
C39   C     C_R   0.961952 0.296861 0.519579 -0.180304
C40   C     C_R   0.037905 0.296883 0.480456 -0.180048
C41   C     C_R   0.537793 0.796907 0.443237 -0.180294
C42   C     C_R   0.461976 0.796854 0.556706 -0.180046
C43   C     C_3   0.960129 0.512061 0.269229 -0.155446
C44   C     C_3   0.039927 0.512013 0.730686 -0.155412
C45   C     C_3   0.459680 0.010371 0.269661 -0.153817
C46   C     C_3   0.969161 0.528501 0.801461 -0.162518
C47   C     C_3   0.531979 0.027091 0.738541 -0.161004
C48   C     C_3   0.990823 0.540607 0.279894 -0.153408
C49   C     C_3   0.009366 0.540641 0.719819 -0.153275
C50   C     C_3   0.489125 0.040201 0.281579 -0.155028
C51   C     C_3   0.492386 0.040994 0.736812 -0.152955
C52   C     C_3   0.000189 0.499701 0.310540 0.023860
C53   C     C_3   0.999807 0.499750 0.689462 0.023899
C54   C     C_3   0.500214 0.999735 0.310511 0.023340
C55   C     C_3   0.500048 0.999718 0.689220 0.024263
C56   C     C_3   0.969496 0.471120 0.301184 -0.165988
C57   C     C_3   0.529763 0.029654 0.199553 -0.164643
C58   C     C_3   0.030366 0.471090 0.699020 -0.165987
C59   C     C_3   0.470774 0.969871 0.299902 -0.162107
C60   C     C_3   0.539634 0.985828 0.689713 -0.169594
C61   C     C_3   0.460530 0.013754 0.810199 -0.155830
C62   C     C_3   0.000238 0.499806 0.189033 0.023422
C63   C     C_3   0.999758 0.499879 0.810971 0.023450
C64   C     C_3   0.500281 0.999827 0.188987 0.024152
C65   C     C_R   0.086278 0.500033 0.913724 0.861490
C66   C     C_3   0.500095 0.999860 0.810630 0.023366
C67   C     C_R   0.796943 0.537909 0.184424 -0.179842
C68   C     C_R   0.203095 0.538082 0.815431 -0.179778
C69   C     C_R   0.296892 0.961970 0.184683 -0.180182
C70   C     C_R   0.703098 0.038086 0.815382 -0.180163
C71   C     C_R   0.842741 0.538049 0.139068 -0.196938
C72   C     C_R   0.157294 0.538175 0.860809 -0.196950
C73   C     C_R   0.342691 0.961864 0.139303 -0.195491
C74   C     C_R   0.657297 0.038180 0.860768 -0.197372
C75   C     C_R   0.865759 0.499964 0.134162 -0.029151
C76   C     C_R   0.413722 0.999998 0.086275 0.861508
C77   C     C_R   0.134241 0.500075 0.865794 -0.029148
C78   C     C_R   0.365758 0.999979 0.134205 -0.029941
C79   C     C_R   0.634242 0.000073 0.865791 -0.028423
C80   C     C_R   0.842664 0.461844 0.175275 -0.196079
C81   C     C_R   0.157302 0.461992 0.824729 -0.195989
C82   C     C_R   0.342708 0.038093 0.175161 -0.197458
C83   C     C_R   0.657301 0.961982 0.824756 -0.195671
C84   C     C_R   0.796865 0.461921 0.221365 -0.180367
C85   C     C_R   0.203097 0.462116 0.778625 -0.180324
C86   C     C_R   0.296911 0.037984 0.221266 -0.179800
C87   C     C_R   0.586278 0.000033 0.913726 0.861462
C88   C     C_R   0.703096 0.962105 0.778644 -0.180265
C89   C     C_R   0.773995 0.499901 0.225774 0.112213
C90   C     C_R   0.226004 0.500108 0.774139 0.112255
C91   C     C_R   0.273993 0.999976 0.225861 0.112256
C92   C     C_R   0.726006 0.000103 0.774121 0.112293
C93   C     C_R   0.000130 0.499971 0.121568 0.867833
C94   C     C_R   0.999866 0.499997 0.878436 0.867831
C95   C     C_R   0.500155 0.999974 0.121541 0.867850
C96   C     C_R   0.500049 0.999994 0.878251 0.867718
C97   C     C_R   0.703116 0.487362 0.350920 -0.179388
C98   C     C_3   0.009593 0.458870 0.219785 -0.170422
C99   C     C_R   0.296861 0.487585 0.649045 -0.179395
C100  C     C_R   0.203129 0.012571 0.350921 -0.179251
C101  C     C_R   0.796864 0.987560 0.649038 -0.179479
C102  C     C_R   0.657319 0.487648 0.396918 -0.191930
C103  C     C_R   0.342657 0.487793 0.603083 -0.191891
C104  C     C_R   0.157332 0.012329 0.396890 -0.194581
C105  C     C_R   0.842661 0.987769 0.603079 -0.194666
C106  C     C_R   0.634287 0.499953 0.365607 -0.029948
C107  C     C_R   0.365713 0.500031 0.634375 -0.029923
C108  C     C_R   0.134285 0.999993 0.365627 -0.029917
C109  C     C_3   0.990209 0.458961 0.780504 -0.170485
C110  C     C_R   0.865714 0.000024 0.634369 -0.029890
C111  C     C_R   0.657381 0.512221 0.288111 -0.194746
C112  C     C_R   0.342643 0.512325 0.711811 -0.194704
C113  C     C_R   0.157362 0.987646 0.288215 -0.191950
C114  C     C_R   0.842641 0.012330 0.711800 -0.192081
C115  C     C_R   0.703182 0.512448 0.242408 -0.179387
C116  C     C_R   0.296842 0.512629 0.757480 -0.179281
C117  C     C_R   0.203163 0.987376 0.242542 -0.179304
C118  C     C_R   0.796840 0.012633 0.757464 -0.179417
C119  C     C_R   0.726057 0.499893 0.273732 0.111962
C120  C     C_3   0.511364 0.959335 0.218014 -0.170090
C121  C     C_R   0.273943 0.500123 0.726181 0.112014
C122  C     C_R   0.226055 0.999969 0.273813 0.111973
C123  C     C_R   0.773944 0.000115 0.726166 0.112015
C124  C     C_R   0.999950 0.365722 0.500038 -0.027603
C125  C     C_R   0.499938 0.865727 0.500000 -0.027932
C126  C     C_R   0.999922 0.273967 0.500015 0.112441
C127  C     C_R   0.499869 0.773975 0.499967 0.112356
C128  C     C_R   0.500131 0.273933 0.500029 0.111748
C129  C     C_R   0.000088 0.773934 0.499966 0.111845
C130  C     C_R   0.000018 0.586258 0.499983 0.861432
C131  C     C_3   0.507743 0.958557 0.762945 -0.172216
C132  C     C_R   0.500019 0.086259 0.499994 0.861434
C133  C     C_R   0.961858 0.342659 0.520064 -0.196625
C134  C     C_R   0.038026 0.342677 0.479998 -0.196645
C135  C     C_R   0.537938 0.842701 0.443512 -0.195813
C136  C     C_R   0.461900 0.842650 0.556463 -0.197180
C137  C     C_R   0.000042 0.499804 0.378257 0.867832
C138  C     C_R   0.999957 0.499820 0.621744 0.867823
C139  C     C_R   0.500047 0.999825 0.378251 0.867697
C140  C     C_R   0.499997 0.999799 0.621703 0.867752
C141  C     C_R   0.999982 0.413681 0.500017 0.861322
C142  C     C_3   0.040325 0.487452 0.230237 -0.168887
C143  C     C_R   0.499981 0.913683 0.500010 0.861222
C144  C     C_R   0.499947 0.634277 0.499985 -0.029350
C145  C     C_R   0.999977 0.134271 0.499977 -0.029898
C146  C     C_R   0.499992 0.586305 0.499987 0.869155
C147  C     C_R   0.999998 0.086302 0.499984 0.869088
C148  C     C_R   0.586313 0.499988 0.413649 0.869067
C149  C     C_R   0.413686 0.499999 0.586349 0.869088
C150  C     C_R   0.086313 0.999994 0.413652 0.869058
C151  C     C_R   0.913687 0.999997 0.586348 0.869018
C152  C     C_R   0.487886 0.657315 0.566519 -0.193430
H1    H     H_    0.983186 0.573914 0.306422 0.126574
H2    H     H_    0.279281 0.478103 0.624424 0.131724
H3    H     H_    0.220704 0.022120 0.375521 0.131571
H4    H     H_    0.779286 0.978066 0.624418 0.131502
H5    H     H_    0.639985 0.477919 0.456603 0.153588
H6    H     H_    0.359970 0.478053 0.543441 0.153569
H7    H     H_    0.140012 0.022117 0.456512 0.152265
H8    H     H_    0.859976 0.978017 0.543443 0.152263
H9    H     H_    0.640094 0.521974 0.263090 0.152227
H10   H     H_    0.359950 0.522035 0.736812 0.152203
H11   H     H_    0.140060 0.977868 0.263237 0.153489
H12   H     H_    0.017162 0.573925 0.693056 0.126754
H13   H     H_    0.859946 0.022049 0.736800 0.153470
H14   H     H_    0.720797 0.521955 0.182557 0.131495
H15   H     H_    0.279243 0.522136 0.817294 0.131452
H16   H     H_    0.220767 0.977819 0.182749 0.131691
H17   H     H_    0.779239 0.022152 0.817273 0.131616
H18   H     H_    0.932225 0.359969 0.535391 0.152063
H19   H     H_    0.067674 0.359998 0.464674 0.152083
H20   H     H_    0.567539 0.860040 0.399303 0.152425
H21   H     H_    0.432327 0.859950 0.600685 0.151986
H22   H     H_    0.478271 0.720678 0.618255 0.131231
H23   H     H_    0.480077 0.073155 0.309504 0.127921
H24   H     H_    0.521457 0.720769 0.381725 0.131585
H25   H     H_    0.021906 0.220707 0.574457 0.131248
H26   H     H_    0.977927 0.220726 0.425602 0.131752
H27   H     H_    0.478363 0.639992 0.618494 0.152354
H28   H     H_    0.521508 0.640081 0.381484 0.152447
H29   H     H_    0.021937 0.140018 0.574693 0.152214
H30   H     H_    0.978004 0.140027 0.425276 0.153573
H31   H     H_    0.067603 0.720688 0.464933 0.132426
H32   H     H_    0.932549 0.720646 0.535038 0.132250
H33   H     H_    0.432566 0.220616 0.600192 0.132516
H34   H     H_    0.486131 0.074580 0.724098 0.126710
H35   H     H_    0.567668 0.220722 0.399911 0.132304
H36   H     H_    0.067753 0.639978 0.464710 0.152996
H37   H     H_    0.932348 0.639950 0.535225 0.152968
H38   H     H_    0.432336 0.139913 0.600306 0.153223
H39   H     H_    0.567794 0.140014 0.399743 0.153031
H40   H     H_    0.927447 0.522078 0.283088 0.128368
H41   H     H_    0.072659 0.521941 0.716750 0.128373
H42   H     H_    0.426605 0.018989 0.283896 0.127064
H43   H     H_    0.557993 0.049359 0.731200 0.136366
H44   H     H_    0.932376 0.279263 0.535170 0.132094
H45   H     H_    0.779246 0.432326 0.252959 0.132285
H46   H     H_    0.067471 0.279304 0.464858 0.132009
H47   H     H_    0.567303 0.779342 0.399421 0.132103
H48   H     H_    0.432445 0.779245 0.600524 0.131991
H49   H     H_    0.522090 0.279296 0.381568 0.131631
H50   H     H_    0.478156 0.279212 0.618492 0.131999
H51   H     H_    0.978106 0.779267 0.425526 0.131442
H52   H     H_    0.022060 0.779248 0.574415 0.131967
H53   H     H_    0.521994 0.359992 0.381327 0.153449
H54   H     H_    0.478120 0.359910 0.618714 0.153556
H55   H     H_    0.978077 0.859957 0.425288 0.152272
H56   H     H_    0.220686 0.432545 0.747084 0.132267
H57   H     H_    0.021981 0.859949 0.574743 0.153664
H58   H     H_    0.944443 0.447763 0.345001 0.136043
H59   H     H_    0.055312 0.447657 0.655370 0.135885
H60   H     H_    0.446733 0.945478 0.342717 0.137999
H61   H     H_    0.571941 0.974355 0.638880 0.145678
H62   H     H_    0.017309 0.425460 0.193618 0.147184
H63   H     H_    0.982333 0.425571 0.806901 0.147028
H64   H     H_    0.520502 0.926291 0.190407 0.146612
H65   H     H_    0.514069 0.924853 0.775113 0.146437
H66   H     H_    0.073086 0.477342 0.215916 0.146623
H67   H     H_    0.279332 0.067580 0.252717 0.132257
H68   H     H_    0.926797 0.477602 0.784261 0.146576
H69   H     H_    0.574013 0.980499 0.214978 0.145713
H70   H     H_    0.442193 0.950139 0.768672 0.136653
H71   H     H_    0.056041 0.551668 0.154478 0.134964
H72   H     H_    0.944196 0.551898 0.845164 0.135134
H73   H     H_    0.553830 0.054021 0.156711 0.135174
H74   H     H_    0.428294 0.025129 0.861330 0.129045
H75   H     H_    0.779384 0.567486 0.187974 0.132165
H76   H     H_    0.220684 0.567665 0.811826 0.132109
H77   H     H_    0.279295 0.932371 0.188381 0.132240
H78   H     H_    0.720683 0.932527 0.747128 0.132151
H79   H     H_    0.720690 0.067674 0.811748 0.132120
H80   H     H_    0.860088 0.567716 0.107423 0.152461
H81   H     H_    0.139971 0.567813 0.892416 0.152391
H82   H     H_    0.360001 0.932198 0.107794 0.153031
H83   H     H_    0.639977 0.067825 0.892349 0.152158
H84   H     H_    0.859950 0.432200 0.172339 0.152947
H85   H     H_    0.139991 0.432337 0.827720 0.152980
H86   H     H_    0.360028 0.067762 0.172081 0.153093
H87   H     H_    0.639988 0.932321 0.827777 0.152641
H88   H     H_    0.720679 0.477846 0.375560 0.131754
O1    O     O_R   0.934530 0.463050 0.065470 -0.626085
O2    O     O_R   0.434520 0.499990 0.618000 -0.627572
O3    O     O_R   0.065480 0.999990 0.382000 -0.623812
O4    O     O_R   0.934520 0.999990 0.618000 -0.623849
O5    O     O_R   0.500000 0.434520 0.552520 -0.625706
O6    O     O_R   0.500000 0.434520 0.447480 -0.625772
O7    O     O_R   0.000000 0.934520 0.552520 -0.623734
O8    O     O_R   0.000000 0.934520 0.447480 -0.627585
O9    O     O_R   0.934550 0.536970 0.065450 -0.626987
O10   O     O_R   0.065450 0.536970 0.934550 -0.626970
O11   O     O_R   0.434550 0.036970 0.065450 -0.626332
O12   O     O_R   0.065470 0.463050 0.934530 -0.626059
O13   O     O_R   0.565450 0.036970 0.934550 -0.627642
O14   O     O_R   0.000010 0.463050 0.093020 -0.628128
O15   O     O_R   0.999990 0.463050 0.906980 -0.628199
O16   O     O_R   0.500010 0.963050 0.093020 -0.625892
O17   O     O_R   0.499990 0.963050 0.906980 -0.630244
O18   O     O_R   0.000020 0.536970 0.093000 -0.624686
O19   O     O_R   0.999980 0.536970 0.907000 -0.624640
O20   O     O_R   0.500020 0.036970 0.093000 -0.626905
O21   O     O_R   0.499980 0.036970 0.907000 -0.622587
O22   O     O_R   0.036960 0.565440 0.463030 -0.625720
O23   O     O_R   0.434530 0.963050 0.065470 -0.625367
O24   O     O_R   0.963040 0.565440 0.536970 -0.625697
O25   O     O_R   0.536960 0.065440 0.463030 -0.625292
O26   O     O_R   0.463040 0.065440 0.536970 -0.626140
O27   O     O_R   0.036960 0.499960 0.370010 -0.625799
O28   O     O_R   0.963040 0.499960 0.629990 -0.625823
O29   O     O_R   0.536960 0.999960 0.370010 -0.629931
O30   O     O_R   0.463040 0.999960 0.629990 -0.627266
O31   O     O_R   0.963040 0.499940 0.443930 -0.627077
O32   O     O_R   0.036960 0.499940 0.556070 -0.627050
O33   O     O_R   0.463040 0.999940 0.443930 -0.622911
O34   O     O_R   0.565470 0.963050 0.934530 -0.626811
O35   O     O_R   0.536960 0.999940 0.556070 -0.625580
O36   O     O_R   0.036980 0.434490 0.463020 -0.627358
O37   O     O_R   0.963020 0.434490 0.536980 -0.627404
O38   O     O_R   0.536980 0.934490 0.463020 -0.627002
O39   O     O_R   0.463020 0.934490 0.536980 -0.627683
O40   O     O_R   0.500030 0.565470 0.552480 -0.625709
O41   O     O_R   0.499970 0.565470 0.447520 -0.625624
O42   O     O_R   0.000030 0.065470 0.552480 -0.627657
O43   O     O_R   0.999970 0.065470 0.447520 -0.623796
O44   O     O_R   0.565480 0.500000 0.487030 -0.623784
O45   O     O_R   0.434520 0.500000 0.512970 -0.623780
O46   O     O_R   0.065480 0.000000 0.487030 -0.627501
O47   O     O_R   0.934520 0.000000 0.512970 -0.627546
O48   O     O_R   0.565480 0.499990 0.382000 -0.627584
Zn1   Zn    Zn3+2 0.000000 0.450650 0.000000 0.936378
Zn2   Zn    Zn3+2 0.499990 0.500000 0.429890 0.940666
Zn3   Zn    Zn3+2 0.000010 0.000000 0.570110 0.940707
Zn4   Zn    Zn3+2 0.999990 0.000000 0.429890 0.940709
Zn5   Zn    Zn3+2 0.500000 0.950650 0.000000 0.936457
Zn6   Zn    Zn3+2 1.000000 0.549370 0.000000 0.939540
Zn7   Zn    Zn3+2 0.500000 0.049370 0.000000 0.939418
Zn8   Zn    Zn3+2 0.049370 0.499970 0.450630 0.938088
Zn9   Zn    Zn3+2 0.950630 0.499970 0.549370 0.937998
Zn10  Zn    Zn3+2 0.549370 0.999970 0.450630 0.936750
Zn11  Zn    Zn3+2 0.450630 0.999970 0.549370 0.939276
Zn12  Zn    Zn3+2 0.500010 0.500000 0.570110 0.940667

loop_
_geom_bond_atom_site_label_1
_geom_bond_atom_site_label_2
_ccdc_geom_bond_type
C99   C103  A    
C48   H1    S    
C24   C61   S    
C27   H50   S    
C107  C112  A    
C88   H78   S    
C111  H9    S    
C105  C110  A    
C79   C87   S    
C138  O32   A    
O9    Zn6   S    
C139  O29   A    
O46   Zn3   S    
C47   H43   S    
O16   Zn5   S    
C22   C38   A    
C29   C33   A    
C100  C104  A    
C8    C23   A    
C46   H72   S    
C42   C136  A    
O12   Zn1   S    
C49   H12   S    
C19   C37   A    
C14   H37   S    
C18   C132  S    
C96   O17   A    
C91   C122  S    
C70   C74   A    
C68   C90   A    
C87   O34   A    
C80   C84   A    
C106  C111  A    
C125  C135  A    
C21   H25   S    
C83   C88   A    
C98   H62   S    
C2    H68   S    
C85   C90   A    
C65   C77   S    
C116  C121  A    
O8    Zn4   S    
C27   C31   A    
C28   C32   A    
C92   C123  S    
C93   O14   A    
C108  C113  A    
C133  H18   S    
C27   C128  A    
C78   C82   A    
O20   Zn7   S    
C68   C72   A    
C52   C137  S    
C135  H20   S    
C73   H82   S    
C146  O41   A    
C124  C133  A    
C100  H3    S    
C150  O3    A    
C74   C79   A    
C84   H45   S    
C104  H7    S    
C5    H30   S    
C13   C54   S    
C45   H42   S    
C45   C59   S    
C50   C57   S    
C6    O6    A    
C2    C53   S    
C151  O47   A    
C53   C58   S    
C68   H76   S    
O43   Zn4   S    
C64   C120  S    
C19   H22   S    
C9    H32   S    
C24   C131  S    
O38   Zn10  S    
C45   C50   S    
C49   C53   S    
C7    O8    A    
C51   C55   S    
O1    Zn1   S    
C48   C52   S    
C148  O48   A    
C62   C93   S    
C103  C107  A    
C15   C18   A    
C2    C109  S    
C97   C119  A    
C59   C120  S    
C80   H84   S    
C3    H28   S    
C33   C36   A    
C137  O31   A    
C58   H59   S    
C63   C94   S    
O25   Zn10  S    
O28   Zn9   S    
C32   C36   A    
O34   Zn5   S    
C76   C78   S    
O36   Zn8   S    
C1    O9    A    
C105  H8    S    
C13   C57   S    
C11   C25   A    
C117  H16   S    
C99   H2    S    
C7    O7    A    
O39   Zn11  S    
C70   H79   S    
C142  H66   S    
C132  O25   A    
C29   C129  A    
C21   C38   A    
O19   Zn6   S    
C4    H29   S    
C110  C114  A    
C118  C123  A    
C57   H73   S    
C29   H52   S    
C65   O10   A    
C98   C142  S    
C14   C17   A    
C146  O40   A    
O29   Zn10  S    
C38   C126  S    
C54   C59   S    
C95   O20   A    
C5    C145  A    
C30   C34   A    
C26   H49   S    
C147  O42   A    
C9    C23   A    
C118  H17   S    
C30   H53   S    
C40   C134  A    
C50   H23   S    
O48   Zn2   S    
C63   C109  S    
C117  C122  A    
C16   H39   S    
C69   H77   S    
C113  H11   S    
O4    Zn3   S    
C54   C139  S    
C67   H75   S    
C8    C12   A    
C31   C34   A    
C113  C117  A    
C8    H31   S    
C43   H40   S    
C26   C30   A    
C115  C119  A    
O21   Zn7   S    
C90   C121  S    
O22   Zn8   S    
C124  C141  S    
C41   C135  A    
C13   C120  S    
C10   C25   A    
C114  H13   S    
C66   C131  S    
O6    Zn2   S    
O26   Zn11  S    
C28   H51   S    
C76   O23   A    
C13   H69   S    
C45   C64   S    
C61   H74   S    
C124  C134  A    
C46   C63   S    
O15   Zn1   S    
C51   H34   S    
C94   O15   A    
C20   C37   A    
O5    Zn12  S    
C20   H24   S    
C40   H46   S    
C125  C143  S    
C4    C145  A    
C81   H85   S    
C35   C142  S    
C107  C149  S    
C65   O12   A    
O7    Zn3   S    
O47   Zn4   S    
C139  O33   A    
C150  O46   A    
C74   H83   S    
C69   C91   A    
C95   O16   A    
C81   C85   A    
O30   Zn11  S    
C7    C36   S    
C112  C116  A    
C41   H47   S    
C46   C49   S    
C44   H41   S    
C50   C54   S    
C140  O35   A    
C86   C91   A    
C72   H81   S    
C23   C129  S    
C41   C127  A    
C89   C119  S    
C44   C58   S    
C149  O2    A    
C12   C17   A    
C69   C73   A    
C47   C66   S    
C97   C102  A    
O17   Zn5   S    
O41   Zn2   S    
C17   C130  S    
C39   C126  A    
C55   C60   S    
C35   C48   S    
C60   C131  S    
C145  C147  S    
C44   C63   S    
C53   C138  S    
C144  C146  S    
C110  C151  S    
C47   C51   S    
C101  H4    S    
C82   C86   A    
O44   Zn12  S    
C143  O38   A    
C55   C140  S    
C6    C34   S    
C9    C14   A    
O33   Zn11  S    
C56   H58   S    
C147  O43   A    
C11   C16   A    
C77   C81   A    
O23   Zn5   S    
C3    C20   A    
C115  H14   S    
C130  O22   A    
C42   C127  A    
O32   Zn8   S    
C125  C136  A    
C99   C121  A    
C104  C108  A    
C66   C96   S    
C39   C133  A    
O3    Zn4   S    
C136  H21   S    
C25   C128  S    
C70   C92   A    
C3    C144  A    
C103  H6    S    
C24   H70   S    
C39   H44   S    
O11   Zn7   S    
C152  H27   S    
C79   C83   A    
C138  O28   A    
C140  O30   A    
C67   C71   A    
C86   H67   S    
C108  C150  S    
C132  O26   A    
C93   O18   A    
O42   Zn3   S    
C87   O13   A    
C144  C152  A    
C76   O11   A    
C43   C62   S    
C44   C49   S    
C96   O21   A    
O10   Zn6   S    
C58   C109  S    
C6    O5    A    
C51   C61   S    
C56   C98   S    
C22   H26   S    
C2    C46   S    
C24   C55   S    
O2    Zn12  S    
C101  C123  A    
C11   H35   S    
O13   Zn7   S    
C10   C15   A    
C12   H36   S    
C67   C89   A    
C106  C148  S    
C28   C129  A    
C47   C60   S    
C62   C98   S    
C33   H57   S    
C61   C66   S    
C5    C22   A    
C88   C92   A    
C73   C78   A    
C116  H15   S    
O14   Zn1   S    
C43   C48   S    
O35   Zn10  S    
C151  O4    A    
C102  H5    S    
C101  C105  A    
C83   H87   S    
C1    C75   S    
O24   Zn9   S    
O31   Zn9   S    
C31   H54   S    
C10   H33   S    
O45   Zn2   S    
C52   C142  S    
C60   H61   S    
C72   C77   A    
C35   H71   S    
O18   Zn6   S    
C94   O19   A    
C71   H80   S    
C40   C126  A    
C143  O39   A    
C19   C152  A    
C26   C128  A    
C32   H55   S    
C114  C118  A    
C1    O1    A    
O37   Zn9   S    
C15   H38   S    
C134  H19   S    
C84   C89   A    
C59   H60   S    
C57   C64   S    
C75   C80   A    
C97   H88   S    
C148  O44   A    
C149  O45   A    
C64   C95   S    
C109  H63   S    
C120  H64   S    
C112  H10   S    
C131  H65   S    
C42   H48   S    
C141  O37   A    
C71   C75   A    
C4    C21   A    
C137  O27   A    
O40   Zn12  S    
C82   H86   S    
C102  C106  A    
C35   C62   S    
C100  C122  A    
O27   Zn8   S    
C130  O24   A    
C43   C56   S    
C16   C18   A    
C111  C115  A    
C141  O36   A    
C52   C56   S    
C85   H56   S    
C37   C127  S    
