data_mof_unit_33345.cif
_audit_creation_date              2012-12-10T16:57:05-0500
_audit_creation_method            fapswitch 2.2
_symmetry_space_group_name_H-M    P1
_symmetry_Int_Tables_number       1
_space_group_crystal_system       triclinic
_cell_length_a                    7.892253
_cell_length_b                    8.561924
_cell_length_c                    16.622984
_cell_angle_alpha                 93.900578
_cell_angle_beta                  79.476902
_cell_angle_gamma                 93.303808
_cell_volume                      1100.6420741

loop_
_atom_site_label
_atom_site_type_symbol
_atom_type_description
_atom_site_fract_x
_atom_site_fract_y
_atom_site_fract_z
_atom_type_partial_charge
C1    C     C_R   0.545310 0.794209 0.498183 0.960928
C2    C     C_R   0.454677 0.205796 0.501900 0.950203
C3    C     C_2   0.569246 0.957610 0.497092 -0.359742
C4    C     C_2   0.430709 0.042446 0.503219 -0.352656
C5    C     C_R   0.474352 0.494362 0.653975 0.860190
C6    C     C_R   0.523814 0.493550 0.345484 0.868146
C7    C     C_R   0.449665 0.443151 0.737016 -0.081616
C8    C     C_R   0.535592 0.462182 0.257570 -0.099959
C9    C     C_R   0.562039 0.335769 0.755312 -0.181327
C10   C     C_R   0.396211 0.491746 0.220783 -0.186961
C11   C     C_R   0.532990 0.273765 0.831373 -0.126041
C12   C     C_R   0.398052 0.444725 0.139500 -0.087514
C13   C     C_R   0.394589 0.322146 0.891562 0.092214
C14   C     C_R   0.538187 0.365097 0.093803 0.094092
C15   C     C_R   0.274359 0.424483 0.872703 0.019244
C16   C     C_R   0.681007 0.335993 0.129920 0.018543
C17   C     C_R   0.303175 0.482886 0.794357 -0.154859
C18   C     C_R   0.678274 0.386332 0.211975 -0.148672
C19   C     C_2   0.398251 0.289748 0.976387 -0.236469
C20   C     C_2   0.541827 0.331717 0.006192 -0.237584
H1    H     H_    0.671669 0.297908 0.710416 0.166013
H2    H     H_    0.285135 0.550506 0.254935 0.167307
H3    H     H_    0.784817 0.361313 0.241226 0.226171
H4    H     H_    0.214063 0.562244 0.778361 0.209631
H5    H     H_    0.660336 0.364689 0.965168 0.183285
H6    H     H_    0.279159 0.258914 0.017229 0.195389
H7    H     H_    0.290617 0.473839 0.111956 0.150544
H8    H     H_    0.624136 0.193716 0.844941 0.151747
H9    H     H_    0.700550 0.007553 0.491142 0.196297
H10   H     H_    0.299399 0.992514 0.509196 0.196062
N1    N     N_2   0.953500 0.457650 0.478520 -0.166195
N2    N     N_2   0.046500 0.542350 0.521480 -0.165020
O1    O     O_R   0.388470 0.738640 0.505270 -0.572019
O2    O     O_R   0.611530 0.261360 0.494730 -0.576847
O3    O     O_R   0.679650 0.711510 0.491500 -0.664210
O4    O     O_R   0.320350 0.288490 0.508500 -0.667084
O5    O     O_R   0.337210 0.515200 0.623500 -0.571787
O6    O     O_R   0.662790 0.484800 0.376500 -0.579003
O7    O     O_R   0.628380 0.488060 0.609730 -0.665996
O8    O     O_R   0.371620 0.511940 0.390270 -0.663856
Zn1   Zn    Zn3+2 0.305580 0.518120 0.509190 0.977379
Zn2   Zn    Zn3+2 0.694420 0.481880 0.490810 0.972352
C21   C     C_2   0.124907 0.478203 0.934487 0.357922
H11   H     H_    0.107991 0.447085 0.997515 0.080084
O9    O     O_2   0.017496 0.559095 0.915562 -0.566715
C22   C     C_2   0.829671 0.248681 0.084143 0.366352
H12   H     H_    0.830103 0.201143 0.021973 0.075847
O10   O     O_2   0.953869 0.227338 0.115744 -0.585888
C23   C     C_2   0.028733 0.342333 0.419574 0.559371
H13   H     H_    0.161773 0.316894 0.409665 0.099148
O11   O     O_2   0.938098 0.266329 0.377700 -0.579368
C24   C     C_2   0.971198 0.657270 0.580623 0.567767
H14   H     H_    0.838386 0.683347 0.590208 0.096311
O12   O     O_2   0.061535 0.732144 0.623049 -0.581152

loop_
_geom_bond_atom_site_label_1
_geom_bond_atom_site_label_2
_ccdc_geom_bond_type
C2    C4    S    
N2    Zn1   S    
C19   H6    S    
C15   C17   A    
N1    Zn2   S    
C5    O5    A    
C11   C13   A    
N1    N2    D    
O2    Zn2   S    
C21   H11   S    
C4    H10   S    
O1    Zn1   S    
C2    O2    A    
C19   C20   D    
C13   C15   A    
C15   C21   S    
N2    C24   S    
C10   H2    S    
C21   O9    D    
C9    C11   A    
O4    Zn1   S    
C10   C12   A    
C11   H8    S    
N1    C23   S    
C16   C18   A    
O8    Zn1   S    
C12   C14   A    
O6    Zn2   S    
O7    Zn2   S    
C22   O10   D    
C5    O7    A    
O5    Zn1   S    
C6    O8    A    
C17   H4    S    
C20   H5    S    
C13   C19   S    
C12   H7    S    
C1    O1    A    
C18   H3    S    
C9    H1    S    
C7    C9    A    
C24   H14   S    
C1    O3    A    
C14   C20   S    
C3    H9    S    
C23   H13   S    
C2    O4    A    
C1    C3    S    
C5    C7    S    
O3    Zn2   S    
C22   H12   S    
C16   C22   S    
C6    C8    S    
C7    C17   A    
C14   C16   A    
C6    O6    A    
C8    C10   A    
C8    C18   A    
C3    C4    D    
C24   O12   D    
C23   O11   D    
