data_mof_unit_48506.cif
_audit_creation_date              2013-03-05T15:54:33-0500
_audit_creation_method            fapswitch 2.2
_symmetry_space_group_name_H-M    P1
_symmetry_Int_Tables_number       1
_space_group_crystal_system       triclinic
_cell_length_a                    19.629861
_cell_length_b                    18.657233
_cell_length_c                    12.543975
_cell_angle_alpha                 89.338082
_cell_angle_beta                  130.285481
_cell_angle_gamma                 90.472851
_cell_volume                      3504.28522921

loop_
_atom_site_label
_atom_site_type_symbol
_atom_site_description
_atom_site_fract_x
_atom_site_fract_y
_atom_site_fract_z
_atom_type_partial_charge
O1    O     O_R   0.608610 0.924520 0.551740 -0.564823
O2    O     O_R   0.608610 0.075480 0.551740 -0.562607
O3    O     O_R   0.108610 0.424520 0.551740 -0.571048
O4    O     O_R   0.108610 0.575480 0.551740 -0.545473
O5    O     O_R   0.564110 0.924510 0.685150 -0.582240
O6    O     O_R   0.564110 0.075490 0.685150 -0.567386
O7    O     O_R   0.064110 0.424510 0.685150 -0.576863
O8    O     O_R   0.064110 0.575490 0.685150 -0.566858
C1    C     C_R   0.606259 0.894947 0.645759 0.835195
C2    C     C_R   0.609667 0.103520 0.649023 0.824468
C3    C     C_R   0.105581 0.394876 0.645456 0.839577
C4    C     C_R   0.113634 0.601114 0.654842 0.829124
Cu1   Cu    Cu3+1 0.526340 1.000000 0.421010 0.971853
Cu2   Cu    Cu3+1 0.026340 0.500000 0.421010 0.971007
Cu3   Cu    Cu3+1 0.473640 0.000000 0.578990 0.995996
Cu4   Cu    Cu3+1 0.973640 0.500000 0.578990 0.992664
O9    O     O_R   0.435880 0.075470 0.314850 -0.590209
O10   O     O_R   0.435880 0.924530 0.314850 -0.584483
O11   O     O_R   0.935880 0.575470 0.314850 -0.583029
O12   O     O_R   0.935880 0.424530 0.314850 -0.594172
O13   O     O_R   0.391380 0.075460 0.448260 -0.530543
O14   O     O_R   0.391380 0.924540 0.448260 -0.552176
O15   O     O_R   0.891380 0.575460 0.448260 -0.548953
O16   O     O_R   0.891380 0.424540 0.448260 -0.548165
C5    C     C_R   0.383893 0.097879 0.340928 0.854611
C6    C     C_R   0.381148 0.904438 0.337199 0.836780
C7    C     C_R   0.882589 0.596751 0.339169 0.842292
C8    C     C_R   0.884311 0.401241 0.342176 0.831527
C9    C     C_R   0.673967 0.283972 0.136017 0.120911
C10   C     C_R   0.716591 0.749452 0.198025 0.150474
C11   C     C_R   0.138466 0.855288 0.034345 0.163045
C12   C     C_R   0.229915 0.257076 0.217674 0.159084
C13   C     C_R   0.300044 0.863287 0.222860 -0.114445
C14   C     C_R   0.320008 0.156189 0.252559 -0.119232
C15   C     C_R   0.813856 0.347812 0.244854 -0.129103
C16   C     C_R   0.815964 0.653014 0.246733 -0.124449
C17   C     C_R   0.735271 0.186880 0.716724 0.170395
C18   C     C_R   0.706066 0.795172 0.682557 0.148909
C19   C     C_R   0.267320 0.651582 0.782701 0.109852
C20   C     C_R   0.189782 0.285322 0.669385 0.150114
C21   C     C_R   0.343466 0.679996 0.907867 0.162907
C22   C     C_R   0.262851 0.239979 0.765034 0.144533
C23   C     C_R   0.811461 0.223442 0.829252 0.145156
C24   C     C_R   0.784741 0.756459 0.785123 0.153443
C25   C     C_R   0.334074 0.732732 0.977021 0.171145
C26   C     C_R   0.300443 0.239297 0.906215 0.154546
C27   C     C_R   0.824778 0.233155 0.952197 0.121763
C28   C     C_R   0.811448 0.748209 0.919873 0.145915
C29   C     C_R   0.748043 0.237932 0.939808 0.013310
C30   C     C_R   0.746084 0.759431 0.934691 0.020470
C31   C     C_R   0.249460 0.743115 0.940241 0.010270
C32   C     C_R   0.246060 0.260902 0.937370 0.028831
C33   C     C_R   0.667723 0.207182 0.819372 -0.089529
C34   C     C_R   0.667027 0.796507 0.826774 -0.089201
C35   C     C_R   0.172673 0.712128 0.813585 -0.065747
C36   C     C_R   0.169679 0.301650 0.835777 -0.090232
C37   C     C_R   0.237420 0.788247 0.018099 0.008928
C38   C     C_R   0.259374 0.239377 0.058663 0.023331
C39   C     C_R   0.745937 0.274111 0.037019 0.015664
C40   C     C_R   0.753499 0.734124 0.048882 0.031578
C41   C     C_R   0.667749 0.270788 0.019704 0.052166
C42   C     C_R   0.696588 0.763021 0.069958 0.059215
C43   C     C_R   0.150917 0.814685 0.953335 0.043271
C44   C     C_R   0.208837 0.272614 0.089152 0.062189
C45   C     C_R   0.585781 0.259071 0.884369 0.115210
C46   C     C_R   0.613877 0.792945 0.953543 0.088708
C47   C     C_R   0.081696 0.803945 0.807695 0.113240
C48   C     C_R   0.128579 0.307703 0.979094 0.095019
C49   C     C_R   0.586466 0.228271 0.783230 0.185712
C50   C     C_R   0.595471 0.796942 0.826010 0.185027
C51   C     C_R   0.091042 0.749636 0.740323 0.162659
C52   C     C_R   0.104038 0.308388 0.846966 0.188598
C53   C     C_R   0.309098 0.807704 0.158673 -0.245010
C54   C     C_R   0.313711 0.181027 0.141065 -0.249031
C55   C     C_R   0.814587 0.318971 0.142472 -0.253929
C56   C     C_R   0.809183 0.676923 0.134167 -0.248831
C57   C     C_R   0.212906 0.886680 0.159108 0.132354
C58   C     C_R   0.272105 0.192187 0.284302 0.228203
C59   C     C_R   0.745041 0.325639 0.246581 0.197007
C60   C     C_R   0.765682 0.688161 0.274919 0.195199
C61   C     C_R   0.670153 0.166592 0.727009 -0.160711
C62   C     C_R   0.659210 0.827952 0.717675 -0.160040
C63   C     C_R   0.183612 0.657317 0.747637 -0.148352
C64   C     C_R   0.155644 0.327117 0.717050 -0.160010
H1    H     H_    0.374461 0.783967 0.216024 0.196521
H2    H     H_    0.345298 0.150185 0.111672 0.190004
H3    H     H_    0.865854 0.335934 0.139556 0.196755
H4    H     H_    0.842596 0.646838 0.107178 0.185363
C65   C     C_R   0.678740 0.014399 0.281804 0.115021
C66   C     C_R   0.175121 0.528440 0.278080 0.108092
N1    N     N_R   0.566260 0.000000 0.302220 -0.194316
N2    N     N_R   0.066260 0.500000 0.302220 -0.196176
C67   C     C_R   0.347229 0.985294 0.626608 0.106769
C68   C     C_R   0.845456 0.494118 0.621953 0.117398
C69   C     C_R   0.309891 0.988897 0.689638 -0.230399
C70   C     C_R   0.807062 0.496753 0.683636 -0.218232
C71   C     C_R   0.361705 0.005306 0.831388 0.187638
C72   C     C_R   0.858978 0.506424 0.827822 0.189977
C73   C     C_R   0.456419 0.012110 0.916128 -0.049932
C74   C     C_R   0.953720 0.512145 0.913843 -0.044459
C75   C     C_R   0.491287 0.012148 0.843068 0.169527
C76   C     C_R   0.989725 0.513184 0.842113 0.157302
C77   C     C_R   0.519960 0.015287 0.069355 -0.115493
C78   C     C_R   0.016580 0.517461 0.067045 -0.111205
C79   C     C_R   0.610514 0.031681 0.137973 0.048207
C80   C     C_R   0.104085 0.541783 0.133209 0.055479
C81   C     C_R   0.630719 0.058141 0.056590 0.105572
C82   C     C_R   0.118754 0.571541 0.047037 0.093805
C83   C     C_R   0.584848 0.027217 0.926110 0.170327
C84   C     C_R   0.080525 0.536323 0.922711 0.195895
C85   C     C_R   0.500851 0.999959 0.159498 -0.009585
C86   C     C_R   0.999677 0.499584 0.159251 -0.017244
C87   C     C_R   0.654735 0.001375 0.364201 0.392290
C88   C     C_R   0.153763 0.504483 0.360849 0.375116
N3    N     N_R   0.434410 0.000000 0.697680 -0.191801
N4    N     N_R   0.934410 0.500000 0.697680 -0.194407
H5    H     H_    0.435429 0.986387 0.120665 0.160848
H6    H     H_    0.935025 0.483617 0.121270 0.158285
H7    H     H_    0.305034 0.972949 0.517933 0.188434
H8    H     H_    0.802921 0.491988 0.509957 0.185286
H9    H     H_    0.238447 0.980962 0.624969 0.174906
H10   H     H_    0.734917 0.493885 0.616081 0.179582
I1    I     I_    0.187178 0.977546 0.226884 -0.391217
I2    I     I_    0.244271 0.147389 0.408615 -0.358513
I3    I     I_    0.735720 0.355510 0.400457 -0.371603
I4    I     I_    0.740319 0.643600 0.402799 -0.409027
C89   C     C_3   0.713474 0.101916 0.116246 -0.809928
H11   H     H_    0.699340 0.135605 0.031996 0.235843
H12   H     H_    0.731545 0.136437 0.202495 0.256920
H13   H     H_    0.771900 0.069323 0.152433 0.234535
C90   C     C_3   0.176600 0.636179 0.086088 -0.809065
H14   H     H_    0.202786 0.658433 0.188123 0.262078
H15   H     H_    0.232900 0.623505 0.088886 0.233684
H16   H     H_    0.134467 0.677865 0.005468 0.233429
C91   C     C_3   0.773961 0.998648 0.342698 -0.873881
H17   H     H_    0.775503 0.976126 0.263364 0.234881
H18   H     H_    0.815883 0.047576 0.390056 0.264917
H19   H     H_    0.805443 0.955451 0.422930 0.235488
C92   C     C_3   0.272293 0.530791 0.341110 -0.855091
H20   H     H_    0.304926 0.478458 0.390344 0.229512
H21   H     H_    0.281780 0.539391 0.264426 0.245094
H22   H     H_    0.308216 0.573796 0.420335 0.273899
C93   C     C_3   0.309900 0.022295 0.878634 -0.865621
H23   H     H_    0.300240 0.972978 0.917909 0.232515
H24   H     H_    0.342472 0.065539 0.957053 0.225006
H25   H     H_    0.242410 0.043277 0.790395 0.245621
C94   C     C_3   0.808009 0.520868 0.877378 -0.851935
H26   H     H_    0.801682 0.470848 0.919145 0.227054
H27   H     H_    0.839834 0.564655 0.954887 0.223724
H28   H     H_    0.739081 0.539742 0.790335 0.244669
C95   C     C_3   0.646434 0.977378 0.931136 -0.727999
H29   H     H_    0.709872 0.965765 0.037554 0.182055
H30   H     H_    0.615556 0.924752 0.902041 0.246696
H31   H     H_    0.667678 0.998603 0.874124 0.243469
C96   C     C_3   0.150122 0.491650 0.937906 -0.754364
H32   H     H_    0.212612 0.485969 0.048346 0.191661
H33   H     H_    0.126189 0.437191 0.909634 0.249520
H34   H     H_    0.172293 0.513014 0.882611 0.234019
C97   C     C_3   0.500424 0.290124 0.841591 -0.828979
H35   H     H_    0.467106 0.325449 0.748503 0.257485
H36   H     H_    0.456379 0.245343 0.819527 0.242526
H37   H     H_    0.511425 0.324689 0.922692 0.239453
C98   C     C_3   0.543086 0.815131 0.959723 -0.864607
H38   H     H_    0.477779 0.827084 0.856418 0.265278
H39   H     H_    0.533980 0.771386 0.008875 0.250821
H40   H     H_    0.563031 0.865007 0.020601 0.234563
C99   C     C_3   0.006407 0.857963 0.718910 -0.810160
H41   H     H_    0.003448 0.878712 0.632778 0.254197
H42   H     H_    0.941498 0.832950 0.674493 0.236963
H43   H     H_    0.016742 0.907015 0.776350 0.240248
C100  C     C_3   0.065878 0.339929 0.995251 -0.878575
H44   H     H_    0.005798 0.362411 0.895159 0.256766
H45   H     H_    0.046449 0.298920 0.035583 0.254487
H46   H     H_    0.097620 0.386180 0.066633 0.239211
C101  C     C_3   0.612747 0.245613 0.151437 -0.819910
H47   H     H_    0.567177 0.207486 0.065453 0.240652
H48   H     H_    0.653136 0.212829 0.248275 0.277998
H49   H     H_    0.574126 0.285247 0.158354 0.259068
C102  C     C_3   0.700893 0.805727 0.264823 -0.793910
H50   H     H_    0.702526 0.859885 0.229397 0.228864
H51   H     H_    0.635820 0.796791 0.238295 0.267042
H52   H     H_    0.755102 0.805018 0.380123 0.263011
C103  C     C_3   0.048627 0.860274 0.997850 -0.835825
H53   H     H_    0.000953 0.819885 0.919238 0.235394
H54   H     H_    0.057300 0.849114 0.093066 0.252120
H55   H     H_    0.019770 0.914738 0.959175 0.254103
C104  C     C_3   0.221813 0.312670 0.295423 -0.797589
H56   H     H_    0.233594 0.366957 0.273327 0.225356
H57   H     H_    0.155713 0.309835 0.267305 0.265311
H58   H     H_    0.273727 0.304939 0.410219 0.263359
I5    I     I_    0.717562 0.171812 0.531049 -0.365273
I6    I     I_    0.638940 0.785338 0.467571 -0.427694
I7    I     I_    0.273307 0.647608 0.619225 -0.365537
I8    I     I_    0.115724 0.278068 0.450538 -0.422880
C105  C     C_3   0.403445 0.792032 0.047023 -0.848602
H59   H     H_    0.379542 0.842846 0.057374 0.239629
H60   H     H_    0.465703 0.774414 0.150187 0.258234
H61   H     H_    0.416934 0.808076 0.977477 0.246410
C106  C     C_3   0.399780 0.230417 0.018303 -0.891993
H62   H     H_    0.424690 0.250891 0.120746 0.263903
H63   H     H_    0.420658 0.173907 0.029678 0.236382
H64   H     H_    0.431130 0.263784 0.987175 0.242509
C107  C     C_3   0.919206 0.230462 0.090183 -0.807738
H65   H     H_    0.954612 0.281659 0.109395 0.236193
H66   H     H_    0.920466 0.217563 0.178002 0.263742
H67   H     H_    0.956544 0.186758 0.088387 0.257925
C108  C     C_3   0.908833 0.734638 0.043847 -0.844032
H68   H     H_    0.926145 0.749724 0.144099 0.262655
H69   H     H_    0.926815 0.677889 0.047465 0.232835
H70   H     H_    0.950954 0.769058 0.035110 0.237240
C109  C     C_3   0.434082 0.655169 0.962255 -0.802291
H71   H     H_    0.435587 0.595653 0.964057 0.237947
H72   H     H_    0.447729 0.674540 0.893816 0.267201
H73   H     H_    0.488498 0.672840 0.070940 0.247822
C110  C     C_3   0.297534 0.191533 0.715640 -0.774292
H74   H     H_    0.245455 0.151089 0.645270 0.273566
H75   H     H_    0.312533 0.224029 0.658673 0.263974
H76   H     H_    0.358293 0.161738 0.801189 0.234002
C111  C     C_3   0.874055 0.259154 0.816586 -0.766356
H77   H     H_    0.839672 0.277457 0.708570 0.291595
H78   H     H_    0.897062 0.309517 0.876567 0.223574
H79   H     H_    0.930321 0.222771 0.854727 0.262407
C112  C     C_3   0.836698 0.722908 0.748198 -0.779168
H80   H     H_    0.797844 0.677009 0.678468 0.278241
H81   H     H_    0.847704 0.762720 0.694289 0.239305
H82   H     H_    0.902616 0.701497 0.839309 0.229039
I9    I     I_    0.476092 0.244710 0.568204 -0.393903
I10   I     I_    0.462888 0.778683 0.633400 -0.325567
I11   I     I_    0.998247 0.747934 0.516548 -0.383543
I12   I     I_    0.970893 0.284028 0.665801 -0.336984
C113  C     C_3   0.727495 0.985290 0.518809 -0.734278
H83   H     H_    0.712388 0.002683 0.584190 0.270231
H84   H     H_    0.742209 0.927068 0.534976 0.222824
H85   H     H_    0.789895 0.014852 0.562778 0.215740
C114  C     C_3   0.225029 0.476316 0.508023 -0.734236
H86   H     H_    0.217594 0.498420 0.580871 0.268398
H87   H     H_    0.220434 0.417108 0.507931 0.235871
H88   H     H_    0.294091 0.489944 0.554079 0.214491

loop_
_geom_bond_atom_site_label_1
_geom_bond_atom_site_label_2
_geom_bond_distance
_ccdc_geom_bond_type
C25   C105  1.516813 S    
C93   H25   1.111647 S    
C73   C77   1.467903 A    
C107  H65   1.109631 S    
C108  H70   1.102216 S    
C65   C91   1.523521 S    
C96   H33   1.078816 S    
C114  H87   1.107552 S    
C20   C64   1.397196 A    
C98   H38   1.105511 S    
O10   C6    1.324319 A    
C19   C63   1.404327 A    
C100  H46   1.105492 S    
C45   C97   1.509029 S    
C90   H16   1.105640 S    
C33   C49   1.405590 A    
C78   C80   1.413325 A    
C66   C92   1.521372 S    
C112  H82   1.107077 S    
C91   H17   1.103025 S    
C99   H42   1.108979 S    
C20   I8    2.124215 S    
C49   I9    2.120876 S    
C66   C88   1.415149 A    
O7    C3    1.324496 A    
C19   I7    2.130672 S    
C15   C55   1.406783 A    
C30   C34   1.413765 A    
C52   I12   2.127268 S    
Cu1   O10   1.962967 S    
C112  H81   1.109223 S    
C44   C48   1.414219 A    
C33   C61   1.417904 A    
C94   H27   1.107887 S    
C50   I10   2.144682 S    
C110  H75   1.106360 S    
C97   H35   1.107849 S    
C22   C26   1.410906 A    
C48   C100  1.501688 S    
C45   C49   1.406751 A    
C72   C94   1.507551 S    
C25   C31   1.421769 A    
C75   C83   1.435768 A    
C93   H23   1.110281 S    
C26   C32   1.416016 A    
C74   C78   1.470172 A    
Cu3   N3    2.071801 S    
C40   C42   1.415547 A    
C67   N3    1.350435 A    
C95   H31   1.103894 S    
C37   C53   1.420830 A    
O2    Cu1   1.967600 S    
C67   C69   1.385018 A    
C71   C93   1.508278 S    
C104  H58   1.110328 S    
C22   C110  1.494328 S    
C16   C56   1.397811 A    
C94   H26   1.109857 S    
O6    Cu3   1.963324 S    
C18   C62   1.397704 A    
C68   H8    1.075279 S    
Cu3   O14   1.967279 S    
C93   H24   1.106288 S    
C112  H80   1.106313 S    
C8    C15   1.489544 S    
N2    C88   1.365174 A    
C82   C90   1.501799 S    
C70   C72   1.401157 A    
C106  H64   1.103408 S    
C114  H86   1.099343 S    
C97   H36   1.098258 S    
C87   C113  1.517497 S    
C31   C37   1.428120 A    
Cu2   Cu4   2.765576 S    
O15   C7    1.320375 A    
O8    C4    1.335752 A    
C99   H43   1.104989 S    
O11   C7    1.329417 A    
C56   H4    1.075858 S    
C47   C51   1.413480 A    
C48   C52   1.395103 A    
C1    C62   1.496445 S    
C102  H52   1.110794 S    
C10   C60   1.399048 A    
C69   H9    1.083951 S    
C20   C22   1.408408 A    
C59   I3    2.133789 S    
C106  H62   1.109961 S    
O8    Cu4   1.963324 S    
Cu1   N1    2.084345 S    
C96   H34   1.100236 S    
C81   C83   1.389225 A    
C17   C61   1.413530 A    
C9    C101  1.508957 S    
Cu4   N4    2.071801 S    
C71   C73   1.430448 A    
C99   H41   1.109110 S    
C18   C24   1.410495 A    
C37   C43   1.416775 A    
C101  H49   1.106745 S    
C43   C47   1.420494 A    
C38   C44   1.421701 A    
C107  H67   1.110968 S    
C9    C41   1.407728 A    
C39   C41   1.405112 A    
O5    Cu3   1.962280 S    
C42   C46   1.417850 A    
C32   C36   1.405532 A    
C108  H68   1.109091 S    
C11   C43   1.417135 A    
C98   H40   1.107315 S    
O1    C1    1.323782 A    
C12   C44   1.408168 A    
C101  H48   1.106200 S    
C16   C60   1.413002 A    
C110  H76   1.106852 S    
C111  H77   1.103869 S    
C78   C86   1.429925 A    
C68   N4    1.348212 A    
N2    C86   1.376057 A    
O12   C8    1.330060 A    
C36   C52   1.390236 A    
C12   C58   1.395749 A    
C40   C56   1.399608 A    
N1    C87   1.369300 A    
C4    C63   1.509335 S    
C17   C23   1.403552 A    
C110  H74   1.108762 S    
C89   H12   1.107781 S    
C103  H53   1.108226 S    
O5    C1    1.332468 A    
C57   I1    2.110602 S    
Cu2   O12   1.962967 S    
C79   C81   1.397115 A    
C111  H78   1.105829 S    
C107  H66   1.109410 S    
C6    C13   1.494519 S    
C109  H71   1.110612 S    
C9    C59   1.406794 A    
C65   C87   1.404108 A    
C95   H29   1.108020 S    
Cu2   N2    2.084345 S    
C94   H28   1.111492 S    
C74   C76   1.459880 A    
C51   I11   2.141796 S    
C97   H37   1.107352 S    
C27   C107  1.511568 S    
C77   C79   1.418680 A    
C24   C112  1.508227 S    
C54   H2    1.076078 S    
C68   C70   1.387353 A    
C24   C28   1.415980 A    
O3    Cu2   1.959545 S    
C100  H44   1.106498 S    
C53   H1    1.080856 S    
C91   H19   1.108823 S    
C32   C38   1.420535 A    
C14   C54   1.395860 A    
C55   H3    1.075349 S    
O7    Cu4   1.962280 S    
C17   I5    2.142672 S    
C34   C50   1.398552 A    
Cu4   O15   1.959219 S    
C18   I6    2.110601 S    
C113  H84   1.108542 S    
Cu1   Cu3   2.765576 S    
C75   N3    1.412854 A    
C114  H88   1.105045 S    
C109  H72   1.108178 S    
C103  H55   1.109738 S    
O4    C4    1.326530 A    
C35   C63   1.424453 A    
C89   H11   1.094203 S    
O2    C2    1.321021 A    
C39   C55   1.402867 A    
C34   C62   1.397133 A    
C58   I2    2.119654 S    
C38   C54   1.399521 A    
C108  H69   1.109965 S    
C13   C53   1.400968 A    
C91   H18   1.109668 S    
O13   C5    1.319608 A    
C11   C57   1.406145 A    
C21   C25   1.408578 A    
C12   C104  1.509629 S    
C11   C103  1.511939 S    
Cu2   O11   1.961919 S    
C23   C111  1.488423 S    
O16   C8    1.323851 A    
C76   N4    1.408494 A    
O9    C5    1.328589 A    
C90   H15   1.110197 S    
C84   C96   1.508582 S    
O6    C2    1.337719 A    
C92   H20   1.109003 S    
C69   C71   1.399486 A    
C88   C114  1.513701 S    
C77   C85   1.428415 A    
C70   H10   1.083695 S    
C3    C64   1.491121 S    
C27   C29   1.414267 A    
C10   C42   1.405538 A    
C5    C14   1.477131 S    
C2    C61   1.500981 S    
C72   C74   1.427840 A    
C29   C39   1.424413 A    
Cu1   O9    1.961919 S    
C85   H5    1.067294 S    
C7    C16   1.479954 S    
C30   C40   1.418371 A    
C105  H61   1.100976 S    
C60   I4    2.123075 S    
C103  H54   1.109416 S    
C89   H13   1.105944 S    
C81   C89   1.511981 S    
C104  H56   1.108466 S    
C101  H47   1.108622 S    
C14   C58   1.412331 A    
C111  H79   1.109549 S    
C47   C99   1.519998 S    
C92   H21   1.101511 S    
C13   C57   1.411078 A    
C26   C106  1.503700 S    
C46   C50   1.394831 A    
C10   C102  1.502989 S    
C80   C82   1.394863 A    
C76   C84   1.432643 A    
C29   C33   1.422029 A    
C28   C108  1.513720 S    
C28   C30   1.427748 A    
C92   H22   1.109730 S    
C82   C84   1.388936 A    
C46   C98   1.502639 S    
C113  H85   1.109509 S    
C31   C35   1.428405 A    
C95   H30   1.084908 S    
C41   C45   1.410354 A    
O4    Cu2   1.967600 S    
C104  H57   1.103737 S    
O3    C3    1.328995 A    
C66   C80   1.423765 A    
N1    C85   1.371538 A    
C105  H59   1.106698 S    
C21   C109  1.510296 S    
C100  H45   1.105715 S    
Cu3   O13   1.959219 S    
C83   C95   1.499566 S    
O1    Cu1   1.959545 S    
C19   C21   1.397008 A    
Cu4   O16   1.967279 S    
C36   C64   1.405320 A    
O14   C6    1.330730 A    
C65   C79   1.421873 A    
C113  H83   1.090017 S    
C106  H63   1.108126 S    
C102  H50   1.107697 S    
C86   H6    1.068411 S    
C98   H39   1.098502 S    
C15   C59   1.422934 A    
C67   H7    1.068363 S    
C105  H60   1.108086 S    
C109  H73   1.108924 S    
C96   H32   1.111884 S    
C23   C27   1.401404 A    
C73   C75   1.455869 A    
C35   C51   1.414669 A    
C90   H14   1.110299 S    
C102  H51   1.103767 S    
