data_mof_unit_10215.cif
_audit_creation_date              2012-12-11T15:18:36-0500
_audit_creation_method            fapswitch 2.2
_symmetry_space_group_name_H-M    P1
_symmetry_Int_Tables_number       1
_space_group_crystal_system       triclinic
_cell_length_a                    6.939706
_cell_length_b                    19.903767
_cell_length_c                    23.76354
_cell_angle_alpha                 93.405838
_cell_angle_beta                  91.567515
_cell_angle_gamma                 88.553955
_cell_volume                      3274.42914286

loop_
_atom_site_label
_atom_site_type_symbol
_atom_type_description
_atom_site_fract_x
_atom_site_fract_y
_atom_site_fract_z
_atom_type_partial_charge
O1    O     O_R   0.620100 0.812200 0.810870 -0.504627
O2    O     O_R   0.379900 0.187800 0.189130 -0.505408
O3    O     O_R   0.296960 0.671650 0.794750 -0.547629
O4    O     O_R   0.703040 0.328350 0.205250 -0.543958
O5    O     O_R   0.120160 0.687800 0.689130 -0.542291
O6    O     O_R   0.879840 0.312200 0.310870 -0.542051
C1    C     C_R   0.469642 0.647235 0.805387 0.667431
C2    C     C_R   0.530876 0.352550 0.194377 0.664872
O7    O     O_R   0.290810 0.810670 0.817290 -0.550795
O8    O     O_R   0.709190 0.189330 0.182710 -0.550982
O9    O     O_R   0.113980 0.827820 0.711840 -0.523764
O10   O     O_R   0.886020 0.172180 0.288160 -0.523851
C3    C     C_R   0.459982 0.832441 0.833776 0.766667
C4    C     C_R   0.540164 0.167261 0.166425 0.762105
O11   O     O_R   0.626290 0.672180 0.788160 -0.544836
O12   O     O_R   0.373710 0.327820 0.211840 -0.547127
O13   O     O_3   0.451520 0.755460 0.715370 -0.362610
O14   O     O_3   0.548480 0.244540 0.284630 -0.362310
V1    V     V_3+5 0.179200 0.748980 0.756420 1.478489
V2    V     V_3+5 0.820800 0.251020 0.243580 1.480213
O15   O     O_R   0.783880 0.828350 0.705250 -0.534457
O16   O     O_R   0.216120 0.171650 0.294750 -0.534349
C5    C     C_R   0.949420 0.853171 0.695614 0.833260
C6    C     C_R   0.050581 0.146825 0.304381 0.833403
O17   O     O_R   0.790030 0.689320 0.682700 -0.541042
O18   O     O_R   0.209970 0.310680 0.317300 -0.540706
C7    C     C_R   0.958727 0.668232 0.665597 0.717072
C8    C     C_R   0.041272 0.331779 0.334395 0.718395
V3    V     V_3+5 0.678400 0.751010 0.743570 1.516455
V4    V     V_3+5 0.321600 0.248990 0.256430 1.514445
O19   O     O_3   0.955950 0.744540 0.784620 -0.375130
O20   O     O_3   0.044050 0.255460 0.215380 -0.375271
C9    C     C_R   0.180611 0.426348 0.396269 -0.109598
C10   C     C_R   0.819355 0.573696 0.603695 -0.110327
C11   C     C_R   0.031441 0.380701 0.384090 -0.110006
C12   C     C_R   0.968545 0.619332 0.615886 -0.109997
C13   C     C_R   0.870066 0.382937 0.418902 -0.137943
C14   C     C_R   0.129900 0.617109 0.581066 -0.137862
C15   C     C_R   0.857266 0.429680 0.465564 -0.013960
C16   C     C_R   0.142678 0.570379 0.534392 -0.013951
C17   C     C_R   0.006272 0.476028 0.476844 -0.025615
C18   C     C_R   0.993668 0.524033 0.523109 -0.025608
C19   C     C_R   0.167851 0.474494 0.441896 0.081020
C20   C     C_R   0.832092 0.525564 0.558058 0.081115
C21   C     C_R   0.698421 0.431110 0.501206 0.589804
C22   C     C_R   0.301509 0.568955 0.498744 0.589744
C23   C     C_R   0.686403 0.478610 0.546952 -0.224782
C24   C     C_R   0.313526 0.521456 0.452997 -0.224956
H1    H     H_    0.304777 0.425358 0.369477 0.111573
H2    H     H_    0.695195 0.574682 0.630489 0.111441
H3    H     H_    0.755230 0.347677 0.409854 0.190366
H4    H     H_    0.244742 0.652366 0.590118 0.190375
H5    H     H_    0.562058 0.478870 0.573587 0.144108
H6    H     H_    0.437866 0.521197 0.426360 0.143997
C25   C     C_R   0.947331 0.914224 0.663674 -0.145978
C26   C     C_R   0.052666 0.085769 0.336317 -0.145851
C27   C     C_R   0.874786 0.032976 0.660178 -0.156006
C28   C     C_R   0.125186 0.967014 0.339808 -0.156476
C29   C     C_R   0.881993 0.974815 0.689698 -0.259128
C30   C     C_R   0.117983 0.025176 0.310290 -0.259239
C31   C     C_R   0.999415 0.911179 0.606758 0.536597
C32   C     C_R   0.000589 0.088812 0.393234 0.536505
C33   C     C_R   0.975693 0.969013 0.573893 -0.024088
C34   C     C_R   0.024308 0.030977 0.426096 -0.024063
C35   C     C_R   0.922105 0.030784 0.603079 0.076018
C36   C     C_R   0.077885 0.969205 0.396909 0.076268
C37   C     C_R   0.004460 0.968862 0.513993 0.060699
C38   C     C_R   0.995547 0.031127 0.485997 0.060653
C39   C     C_R   0.963748 0.091272 0.519251 -0.106613
C40   C     C_R   0.036262 0.908717 0.480739 -0.106666
C41   C     C_R   0.920433 0.090703 0.575756 -0.187813
C42   C     C_R   0.079564 0.909286 0.424233 -0.188044
H7    H     H_    0.889696 0.138276 0.598792 0.136303
H8    H     H_    0.110297 0.861713 0.401196 0.136062
H9    H     H_    0.159265 0.022649 0.266543 0.179158
H10   H     H_    0.840697 0.977341 0.733444 0.178772
H11   H     H_    0.830532 0.079962 0.682036 0.134360
H12   H     H_    0.169425 0.920028 0.317948 0.133921
H13   H     H_    0.975047 0.140414 0.503582 0.218044
H14   H     H_    0.024972 0.859575 0.496409 0.218017
C43   C     C_R   0.498722 0.586135 0.837805 -0.055054
C44   C     C_R   0.512318 0.415469 0.164072 -0.051344
C45   C     C_R   0.682057 0.481955 0.845634 -0.153579
C46   C     C_R   0.419311 0.533504 0.164993 -0.150935
C47   C     C_R   0.608056 0.532867 0.813231 -0.157803
C48   C     C_R   0.442059 0.473940 0.192662 -0.166507
C49   C     C_R   0.459489 0.586306 0.895804 -0.210762
C50   C     C_R   0.557586 0.417380 0.106727 -0.215218
C51   C     C_R   0.553012 0.539186 0.931226 0.080792
C52   C     C_R   0.549641 0.478813 0.078788 0.078850
C53   C     C_R   0.659182 0.485291 0.904213 0.107758
C54   C     C_R   0.470817 0.536254 0.108413 0.103534
C55   C     C_R   0.544267 0.542554 0.991947 0.003837
C56   C     C_R   0.607579 0.484441 0.021730 0.006550
C57   C     C_R   0.740628 0.438084 0.994375 0.134551
C58   C     C_R   0.493365 0.602420 0.025484 0.134239
C59   C     C_R   0.754560 0.437314 0.935775 -0.241891
C60   C     C_R   0.449917 0.596967 0.082340 -0.247745
H15   H     H_    0.849060 0.400392 0.914415 0.119186
H16   H     H_    0.403470 0.641449 0.107444 0.119471
H17   H     H_    0.583218 0.369982 0.083755 0.099579
H18   H     H_    0.357463 0.623333 0.911911 0.112829
H19   H     H_    0.403193 0.473317 0.236482 0.105909
H20   H     H_    0.641467 0.531840 0.768890 0.104388
H21   H     H_    0.766660 0.441518 0.825122 0.115775
H22   H     H_    0.362015 0.577828 0.188104 0.117340
C61   C     C_R   0.375778 0.070738 0.112994 0.529283
C62   C     C_R   0.625294 0.928252 0.887694 0.528300
C63   C     C_R   0.527430 0.116736 0.117902 -0.158346
C64   C     C_R   0.473377 0.882395 0.882657 -0.158219
C65   C     C_R   0.666682 0.114663 0.076556 -0.317825
C66   C     C_R   0.335203 0.883919 0.924291 -0.317182
C67   C     C_R   0.655932 0.068340 0.029984 0.071022
C68   C     C_R   0.346594 0.929941 0.971074 0.071143
C69   C     C_R   0.504589 0.022317 0.024321 -0.016968
C70   C     C_R   0.497923 0.975976 0.976756 -0.017236
C71   C     C_R   0.361065 0.022692 0.066235 -0.070762
C72   C     C_R   0.641057 0.975791 0.934744 -0.070565
C73   C     C_R   0.796871 0.068207 0.989185 -0.158556
C74   C     C_R   0.206025 0.929924 0.011973 -0.159997
C75   C     C_R   0.793522 0.023041 0.941270 0.119216
C76   C     C_R   0.209094 0.975218 0.059827 0.118990
H23   H     H_    0.783413 0.150017 0.080346 0.152775
H24   H     H_    0.218567 0.848527 0.920463 0.152283
H25   H     H_    0.909835 0.104461 0.995584 0.136182
H26   H     H_    0.093226 0.893599 0.005605 0.135969
C77   C     C_3   0.900457 0.399448 0.025325 -0.352691
C78   C     C_3   0.021872 0.445856 0.064876 -0.702074
H27   H     H_    0.082411 0.486580 0.041184 0.226541
H28   H     H_    0.935767 0.468620 0.100012 0.232823
H29   H     H_    0.142920 0.416283 0.083386 0.216609
H30   H     H_    0.848596 0.356882 0.047804 0.163299
H31   H     H_    0.002213 0.374861 0.994667 0.171229
C79   C     C_3   0.521282 0.674219 0.007937 -0.335434
C80   C     C_3   0.724704 0.684890 0.987358 -0.742897
H32   H     H_    0.833773 0.669680 0.019561 0.226665
H33   H     H_    0.752057 0.655757 0.947097 0.231166
H34   H     H_    0.742570 0.739030 0.980298 0.208253
H35   H     H_    0.409998 0.691399 0.977757 0.155607
H36   H     H_    0.502596 0.710818 0.044722 0.174989
F1    F     F_    0.247447 0.072836 0.155148 -0.738950
F2    F     F_    0.752653 0.926627 0.845304 -0.738787
C81   C     C_3   0.950651 0.025382 0.897521 -0.256829
C82   C     C_3   0.107624 0.077500 0.909133 -0.830029
H37   H     H_    0.044171 0.129322 0.909768 0.226832
H38   H     H_    0.185288 0.069267 0.949643 0.240448
H39   H     H_    0.214273 0.072334 0.875048 0.232901
H40   H     H_    0.025031 0.975360 0.893663 0.233180
H41   H     H_    0.881368 0.036354 0.856260 0.220297
C83   C     C_3   0.052089 0.972811 0.103604 -0.257135
C84   C     C_3   0.896224 0.920212 0.092251 -0.830755
H42   H     H_    0.817590 0.928218 0.051838 0.240244
H43   H     H_    0.960878 0.868553 0.091562 0.227246
H44   H     H_    0.790115 0.925090 0.126498 0.232595
H45   H     H_    0.121676 0.962338 0.144936 0.219232
H46   H     H_    0.976648 0.022656 0.107205 0.233715
F3    F     F_    0.554082 0.386688 0.491786 -0.685388
F4    F     F_    0.445845 0.613378 0.508164 -0.685447
F5    F     F_    0.919566 0.147592 0.413744 -0.715350
F6    F     F_    0.080442 0.852399 0.586249 -0.715325

loop_
_geom_bond_atom_site_label_1
_geom_bond_atom_site_label_2
_ccdc_geom_bond_type
C80   H34   S    
V4    O20   S    
C33   C35   A    
C55   C56   A    
C25   C29   A    
C4    C63   S    
O13   V3    S    
C17   C18   A    
C75   C81   S    
C6    C26   S    
O4    C2    A    
V1    O19   S    
C78   H27   S    
C62   F2    S    
C50   H17   S    
C54   C60   A    
C80   H32   S    
C15   C17   A    
C24   H6    S    
O9    V1    S    
C2    C44   S    
C34   C38   A    
C11   C13   A    
C46   C48   A    
C66   H24   S    
O3    C1    A    
C63   C65   A    
C79   H36   S    
C13   H3    S    
C74   H26   S    
C27   C29   A    
C14   H4    S    
C28   C30   A    
C69   C70   A    
C22   F4    S    
C31   C33   A    
C84   H44   S    
C39   C41   A    
O7    C3    A    
C77   H30   S    
C32   C34   A    
O13   V1    S    
C67   C73   A    
O7    V1    S    
C36   C42   A    
C8    C11   S    
O8    V2    S    
C38   C39   A    
C69   C71   A    
C58   C60   A    
C46   H22   S    
C84   H42   S    
O11   V3    S    
O14   V4    S    
C51   C53   A    
C19   C24   A    
C17   C19   A    
C10   C12   A    
C20   C23   A    
C43   C47   A    
C15   C21   A    
C26   C32   A    
C73   C75   A    
C2    O12   A    
O5    C7    A    
C61   C63   A    
C18   C20   A    
C82   H39   S    
C48   H19   S    
C66   C68   A    
C59   H15   S    
C74   C76   A    
C52   C56   A    
C22   C24   A    
C21   C23   A    
O17   V3    S    
C81   H40   S    
C33   C37   A    
C10   H2    S    
C40   C42   A    
C40   H14   S    
C37   C38   A    
C9    C19   A    
C62   C72   A    
C21   F3    S    
C82   H38   S    
O8    C4    A    
C31   F6    S    
C79   H35   S    
C41   H7    S    
C82   H37   S    
C58   C79   S    
C1    O11   A    
C44   C48   A    
C65   H23   S    
C45   H21   S    
C72   C75   A    
C34   C36   A    
C16   C22   A    
C71   C76   A    
C3    C64   S    
C27   H11   S    
C49   H18   S    
C52   C54   A    
O10   V2    S    
O1    V3    S    
C10   C20   A    
C65   C67   A    
C53   C59   A    
O3    V1    S    
C43   C49   A    
C47   H20   S    
C70   C72   A    
C73   H25   S    
C42   H8    S    
C45   C47   A    
C50   C52   A    
O18   V4    S    
C55   C58   A    
C60   H16   S    
C83   H45   S    
O15   C5    A    
O16   C6    A    
C39   H13   S    
C61   F1    S    
O12   V4    S    
C77   C78   S    
C78   H29   S    
C76   C83   S    
O6    V2    S    
C28   C36   A    
V2    O20   S    
C80   H33   S    
O16   V4    S    
C1    C43   S    
C83   C84   S    
C77   H31   S    
C27   C35   A    
C16   C18   A    
C78   H28   S    
C68   C70   A    
C57   C59   A    
C5    C25   S    
C79   C80   S    
O5    V1    S    
C7    C12   S    
O17   C7    A    
C45   C53   A    
O10   C6    A    
C30   H9    S    
O18   C8    A    
C23   H5    S    
O2    V4    S    
C37   C40   A    
C12   C14   A    
V3    O19   S    
C35   C41   A    
C26   C30   A    
C14   C16   A    
O15   V3    S    
C44   C50   A    
C25   C31   A    
O9    C5    A    
C9    C11   A    
C62   C64   A    
O14   V2    S    
C84   H43   S    
C51   C55   A    
C56   C57   A    
O2    C4    A    
C64   C66   A    
C28   H12   S    
O4    V2    S    
C57   C77   S    
O6    C8    A    
C81   H41   S    
O1    C3    A    
C13   C15   A    
C49   C51   A    
C32   F5    S    
C83   H46   S    
C46   C54   A    
C9    H1    S    
C29   H10   S    
C61   C71   A    
C68   C74   A    
C81   C82   S    
C67   C69   A    
