data_mof_unit_6951.cif
_audit_creation_date              2012-10-26T19:15:06-0400
_audit_creation_method            fapswitch 2.2
_symmetry_space_group_name_H-M    P1
_symmetry_Int_Tables_number       1
_space_group_crystal_system       triclinic
_cell_length_a                    10.845358
_cell_length_b                    10.838577
_cell_length_c                    9.545788
_cell_angle_alpha                 90.649014
_cell_angle_beta                  89.866324
_cell_angle_gamma                 90.373605
_cell_volume                      1121.9919485

loop_
_atom_site_label
_atom_site_type_symbol
_atom_type_description
_atom_site_fract_x
_atom_site_fract_y
_atom_site_fract_z
_atom_type_partial_charge
C1    C     C_R   0.496553 0.262445 0.499249 0.545191
C2    C     C_R   0.472073 0.938795 0.624248 0.025126
C3    C     C_3   0.546712 0.937651 0.755539 -0.278580
C4    C     C_R   0.262291 0.502600 0.499865 0.574008
C5    C     C_3   0.544343 0.077374 0.754218 -0.263335
C6    C     C_R   0.603061 0.534537 0.073773 0.159115
C7    C     C_R   0.403451 0.452526 0.073987 -0.009639
C8    C     C_R   0.403488 0.452575 0.925214 -0.018267
C9    C     C_R   0.603626 0.532862 0.926383 0.155506
C10   C     C_3   0.669353 0.653291 0.920170 -0.281488
C11   C     C_3   0.666286 0.657101 0.078939 -0.276309
C12   C     C_R   0.935939 0.497131 0.624669 -0.012715
C13   C     C_R   0.497663 0.737883 0.500421 0.547081
C14   C     C_R   0.737494 0.501859 0.500056 0.548830
C15   C     C_R   0.062742 0.495363 0.623474 0.025332
C16   C     C_R   0.128931 0.513693 0.499455 0.066397
C17   C     C_R   0.063484 0.548756 0.377925 0.067023
C18   C     C_R   0.934500 0.546778 0.379689 -0.151066
C19   C     C_R   0.870286 0.513259 0.501126 -0.011993
C20   C     C_3   0.926260 0.397675 0.731073 -0.213277
C21   C     C_3   0.066619 0.394604 0.729959 -0.044155
C22   C     C_R   0.470810 0.065838 0.622968 0.019067
C23   C     C_R   0.482321 0.129618 0.497630 0.009411
C24   C     C_R   0.476115 0.063012 0.370680 -0.159420
C25   C     C_R   0.477156 0.934303 0.371696 -0.158796
C26   C     C_R   0.484649 0.871201 0.499630 0.009195
Cu1   Cu    Cu3+1 0.499990 0.499980 0.640670 0.927725
Cu2   Cu    Cu3+1 0.500010 0.500020 0.359330 0.951479
H1    H     H_    0.640712 0.899869 0.738429 0.131169
H2    H     H_    0.885498 0.567215 0.284542 0.121573
H3    H     H_    0.887616 0.432472 0.831870 0.104351
H4    H     H_    0.880883 0.312691 0.688980 0.156031
H5    H     H_    0.109257 0.423099 0.831204 0.112347
H6    H     H_    0.477299 0.109617 0.270907 0.133701
H7    H     H_    0.478480 0.885124 0.272342 0.131278
H8    H     H_    0.493972 0.898791 0.844931 0.132954
H9    H     H_    0.098616 0.671888 0.225388 0.223548
H10   H     H_    0.097809 0.522766 0.171476 0.213300
H11   H     H_    0.210042 0.284905 0.669469 0.243516
H12   H     H_    0.489935 0.118192 0.841840 0.136392
H13   H     H_    0.092799 0.209170 0.743512 0.224211
H14   H     H_    0.636666 0.119979 0.737052 0.140827
H15   H     H_    0.324594 0.415306 0.128977 0.129764
H16   H     H_    0.325064 0.415112 0.869548 0.108429
H17   H     H_    0.763818 0.644183 0.875968 0.123886
H18   H     H_    0.611983 0.724664 0.871977 0.147994
H19   H     H_    0.759547 0.652882 0.125511 0.113152
H20   H     H_    0.606556 0.731349 0.122161 0.144421
N1    N     N_R   0.500790 0.500930 0.147930 -0.230112
N2    N     N_R   0.500790 0.500890 0.852020 -0.230859
N3    N     N_3   0.126256 0.582887 0.251723 -0.608780
N4    N     N_3   0.113877 0.278697 0.672123 -0.629636
O1    O     O_R   0.500000 0.319640 0.618810 -0.507912
O2    O     O_R   0.500010 0.319680 0.381230 -0.508365
O3    O     O_R   0.319650 0.499970 0.618810 -0.524848
O4    O     O_R   0.319660 0.500010 0.381230 -0.468781
O5    O     O_R   0.499990 0.680320 0.618770 -0.500574
O6    O     O_R   0.500000 0.680360 0.381190 -0.506368
O7    O     O_R   0.680340 0.499990 0.618770 -0.502025
O8    O     O_R   0.680350 0.500030 0.381190 -0.506031

loop_
_geom_bond_atom_site_label_1
_geom_bond_atom_site_label_2
_ccdc_geom_bond_type
C10   H18   S    
C5    H14   S    
Cu1   O1    S    
C2    C22   A    
C18   H2    S    
C7    H15   S    
C14   O8    A    
C9    C10   S    
H13   N4    S    
C11   H19   S    
Cu1   N2    S    
C1    O2    A    
C12   C20   S    
C10   H17   S    
C2    C3    S    
Cu2   O4    S    
C7    C8    A    
C2    C26   A    
Cu1   O7    S    
C4    O4    A    
Cu1   O5    S    
C14   O7    A    
C6    C11   S    
C17   N3    S    
C11   H20   S    
C3    H8    S    
C25   H7    S    
C12   C19   A    
C4    C16   S    
C25   C26   A    
H10   N3    S    
C17   C18   A    
C12   C15   A    
Cu2   O6    S    
Cu2   O8    S    
C6    N1    A    
C20   H4    S    
H9    N3    S    
Cu1   O3    S    
C13   C26   S    
C21   H5    S    
C10   C11   S    
C9    N2    A    
C1    C23   S    
C15   C16   A    
C8    N2    A    
C15   C21   S    
C6    C9    A    
C13   O5    A    
C24   C25   A    
C7    N1    A    
C18   C19   A    
Cu2   N1    S    
C5    H12   S    
Cu1   Cu2   S    
C3    H1    S    
C1    O1    A    
C22   C23   A    
Cu2   O2    S    
C13   O6    A    
C23   C24   A    
C20   C21   S    
C14   C19   S    
C21   N4    S    
C24   H6    S    
C5    C22   S    
C8    H16   S    
C4    O3    A    
H11   N4    S    
C16   C17   A    
C3    C5    S    
C20   H3    S    
