data_mof_unit_39994.cif
_audit_creation_date              2012-12-10T16:38:37-0500
_audit_creation_method            fapswitch 2.2
_symmetry_space_group_name_H-M    P1
_symmetry_Int_Tables_number       1
_space_group_crystal_system       triclinic
_cell_length_a                    10.936423
_cell_length_b                    10.797572
_cell_length_c                    17.88802
_cell_angle_alpha                 97.949454
_cell_angle_beta                  72.503792
_cell_angle_gamma                 98.357948
_cell_volume                      1983.17740138

loop_
_atom_site_label
_atom_site_type_symbol
_atom_type_description
_atom_site_fract_x
_atom_site_fract_y
_atom_site_fract_z
_atom_type_partial_charge
C1    C     C_R   0.158087 0.480563 0.518312 0.815606
C2    C     C_R   0.574235 0.381796 0.922566 -0.117738
C3    C     C_R   0.623184 0.311280 0.963745 -0.128137
C4    C     C_R   0.843713 0.518299 0.481268 0.946329
C5    C     C_R   0.602755 0.339829 0.044628 0.036515
C6    C     C_R   0.537686 0.445051 0.084179 0.086384
C7    C     C_R   0.651754 0.267246 0.085365 -0.229317
C8    C     C_R   0.638080 0.297826 0.165456 0.435098
C9    C     C_R   0.553448 0.493844 0.159391 0.010110
C10   C     C_2   0.982409 0.513185 0.469407 -0.177455
C11   C     C_2   0.022455 0.479474 0.528563 0.251041
C12   C     C_R   0.360471 0.699169 0.836232 -0.309479
C13   C     C_2   0.543234 0.967040 0.476549 -0.342329
C14   C     C_2   0.454807 0.036519 0.524592 -0.251374
C15   C     C_R   0.467667 0.168727 0.518026 0.889123
C16   C     C_R   0.530711 0.833190 0.482736 0.887702
C17   C     C_R   0.562918 0.438331 0.288053 0.886342
C18   C     C_R   0.434782 0.561642 0.712332 0.915157
C19   C     C_R   0.405641 0.585244 0.798425 -0.170264
C20   C     C_R   0.589429 0.411894 0.202664 -0.185380
C21   C     C_R   0.330948 0.724294 0.918004 0.388942
C22   C     C_3   0.083578 0.539601 0.390454 -0.501431
C23   C     C_R   0.423099 0.494827 0.842996 0.251810
C24   C     C_3   0.035979 0.569352 0.323491 -0.685447
C25   C     C_3   0.558280 0.635562 0.186602 -0.443648
C26   C     C_3   0.652425 0.714428 0.124331 -0.682709
C27   C     C_R   0.425295 0.533200 0.921621 -0.044374
C28   C     C_R   0.362157 0.639892 0.961586 -0.011899
C29   C     C_R   0.487031 0.469402 0.962295 0.104254
C30   C     C_R   0.467037 0.500035 0.044533 0.094179
C31   C     C_R   0.372493 0.579831 0.084799 -0.210165
C32   C     C_R   0.327954 0.655431 0.044114 -0.106380
H1    H     H_    0.264170 0.723500 0.078165 0.213639
H2    H     H_    0.996179 0.661464 0.337979 0.274748
H3    H     H_    0.118683 0.576369 0.269413 0.221053
H4    H     H_    0.154632 0.619426 0.401519 0.203197
H5    H     H_    0.136133 0.455332 0.367345 0.242618
H6    H     H_    0.962145 0.447919 0.738760 0.387896
H7    H     H_    0.748840 0.679531 0.105725 0.268761
H8    H     H_    0.617679 0.711889 0.071935 0.256649
H9    H     H_    0.662615 0.814069 0.149513 0.275461
H10   H     H_    0.462917 0.670768 0.206176 0.197357
H11   H     H_    0.593162 0.659081 0.239105 0.233577
H12   H     H_    0.697177 0.184423 0.054989 0.204937
H13   H     H_    0.592473 0.064420 0.302837 0.367383
H14   H     H_    0.353658 0.991613 0.871862 0.381554
H15   H     H_    0.584628 0.333346 0.738400 0.369068
H16   H     H_    0.625023 0.009363 0.432662 0.159562
H17   H     H_    0.371736 0.996531 0.568546 0.183834
H18   H     H_    0.682061 0.237747 0.931602 0.173628
H19   H     H_    0.344407 0.766904 0.801826 0.218019
H20   H     H_    0.331536 0.583884 0.147743 0.147688
H21   H     H_    0.605648 0.366630 0.859519 0.171868
H22   H     H_    0.963376 0.493010 0.310319 0.287050
O1    O     O_3   0.500000 0.500000 0.500000 -0.528889
O2    O     O_R   0.470800 0.371790 0.332500 -0.596688
O3    O     O_R   0.380610 0.619380 0.674980 -0.627571
O4    O     O_R   0.632640 0.524780 0.317540 -0.652332
O5    O     O_R   0.515950 0.484050 0.674980 -0.615378
O6    O     O_2   0.845229 0.568079 0.659185 -0.308546
O7    O     O_2   0.840917 0.338317 0.630007 -0.278605
O8    O     O_3   0.022102 0.458874 0.685616 -0.525320
O9    O     O_2   0.766649 0.099797 0.159881 -0.274955
O10   O     O_2   0.769776 0.269752 0.265722 -0.331700
O11   O     O_3   0.558029 0.119901 0.276175 -0.535130
O12   O     O_R   0.535460 0.243030 0.556410 -0.588085
O13   O     O_2   0.128647 0.835443 0.012244 -0.237761
O14   O     O_2   0.342711 0.937532 0.013986 -0.291203
O15   O     O_3   0.262519 0.957456 0.893829 -0.457796
O16   O     O_2   0.332854 0.260161 0.884532 -0.219051
O17   O     O_2   0.283862 0.319267 0.770884 -0.254259
O18   O     O_3   0.514161 0.264505 0.752205 -0.503334
O19   O     O_R   0.437420 0.784080 0.535340 -0.641371
O20   O     O_R   0.223560 0.397520 0.472140 -0.659995
O21   O     O_R   0.803560 0.575360 0.436110 -0.649562
O22   O     O_R   0.209690 0.568800 0.556400 -0.598932
O23   O     O_R   0.763190 0.458310 0.535350 -0.576190
O24   O     O_R   0.414000 0.207090 0.472140 -0.613683
O25   O     O_R   0.613120 0.765800 0.436110 -0.647909
S1    S     S_3+6 0.926436 0.460934 0.627700 0.046586
S2    S     S_3+6 0.688998 0.195149 0.216740 0.031381
S3    S     S_3+6 0.264602 0.866251 0.962369 0.064080
S4    S     S_3+6 0.385595 0.331523 0.813091 0.065934
Zn1   Zn    Zn3+2 0.577310 0.422690 0.565550 1.102919
Zn2   Zn    Zn3+2 0.403760 0.371330 0.445150 1.040490
Zn3   Zn    Zn3+2 0.634990 0.589920 0.423760 0.984853
Zn4   Zn    Zn3+2 0.383940 0.616050 0.565540 1.037388

loop_
_geom_bond_atom_site_label_1
_geom_bond_atom_site_label_2
_ccdc_geom_bond_type
C27   C29   A    
C1    C11   S    
C31   H20   S    
C25   H11   S    
C6    C9    A    
C9    C25   S    
C7    C8    A    
C10   C22   S    
C8    C20   A    
C23   S4    S    
O9    S2    D    
C2    C29   A    
C1    O20   A    
O8    S1    S    
C5    C6    A    
C26   H7    S    
C14   H17   S    
O7    S1    D    
C24   H22   S    
C17   C20   S    
C18   C19   S    
O19   Zn4   S    
C4    O21   A    
O15   S3    S    
C18   O3    A    
H14   O15   S    
C23   C27   A    
C17   O4    A    
C13   C14   D    
O4    Zn3   S    
C3    H18   S    
O17   S4    D    
O10   S2    D    
C9    C20   A    
C24   H3    S    
C16   O19   A    
C28   C32   A    
O5    Zn1   S    
C11   S1    S    
C5    C7    A    
O23   Zn1   S    
C25   C26   S    
C15   O12   A    
C12   C21   A    
C24   H2    S    
C8    S2    S    
O1    Zn2   S    
C19   C23   A    
C29   C30   A    
O21   Zn3   S    
O11   S2    S    
C31   C32   A    
C17   O2    A    
C7    H12   S    
O16   S4    D    
O22   Zn4   S    
O24   Zn2   S    
C6    C30   A    
C21   C28   A    
H13   O11   S    
C22   C24   S    
C4    C10   S    
C12   H19   S    
O6    S1    D    
C1    O22   A    
C3    C5    A    
C2    H21   S    
C25   H10   S    
C13   H16   S    
C22   H4    S    
C16   O25   A    
O14   S3    D    
C32   H1    S    
O1    Zn3   S    
C2    C3    A    
C4    O23   A    
C22   H5    S    
C26   H8    S    
O2    Zn2   S    
C30   C31   A    
C12   C19   A    
O20   Zn2   S    
O1    Zn4   S    
H15   O18   S    
O18   S4    S    
C10   C11   D    
O12   Zn1   S    
C15   O24   A    
O3    Zn4   S    
C18   O5    A    
C21   S3    S    
O13   S3    D    
C13   C16   S    
C27   C28   A    
C14   C15   S    
O1    Zn1   S    
O25   Zn3   S    
C26   H9    S    
H6    O8    S    
