data_mof_unit_34159.cif
_audit_creation_date              2013-03-05T15:48:37-0500
_audit_creation_method            fapswitch 2.2
_symmetry_space_group_name_H-M    P1
_symmetry_Int_Tables_number       1
_space_group_crystal_system       triclinic
_cell_length_a                    8.394645
_cell_length_b                    19.013543
_cell_length_c                    19.111034
_cell_angle_alpha                 99.843199
_cell_angle_beta                  94.819762
_cell_angle_gamma                 91.693807
_cell_volume                      2991.82020176

loop_
_atom_site_label
_atom_site_type_symbol
_atom_site_description
_atom_site_fract_x
_atom_site_fract_y
_atom_site_fract_z
_atom_type_partial_charge
P1    P     P_3+3 0.947550 0.663200 0.567530 0.611946
O1    O     O_2   0.118870 0.674530 0.547560 -0.313307
O2    O     O_3   0.870460 0.585330 0.542110 -0.341817
O3    O     O_3   0.354280 0.631750 0.418430 -0.308914
O4    O     O_2   0.263115 0.758080 0.474676 -0.314876
O5    O     O_3   0.946889 0.690128 0.660945 -0.534124
O6    O     O_3   0.317293 0.747341 0.342287 -0.588669
C1    C     C_3   0.406596 0.822245 0.263603 0.043708
H1    H     H_    0.316676 0.806128 0.217113 0.147228
H2    H     H_    0.356365 0.865170 0.301239 0.131589
P2    P     P_3+3 0.354660 0.445020 0.336980 0.539377
P3    P     P_3+3 0.902401 0.594193 0.289270 0.506685
O7    O     O_2   0.180880 0.466650 0.327890 -0.350300
O8    O     O_3   0.939000 0.596010 0.380670 -0.364793
O9    O     O_2   0.050999 0.564929 0.252631 -0.390962
O10   O     O_3   0.350296 0.353110 0.302316 -0.616679
O11   O     O_3   0.878319 0.683791 0.279207 -0.555782
C2    C     C_3   0.994128 0.709875 0.239769 0.838506
H3    H     H_    0.112986 0.692005 0.255319 0.101013
C3    C     C_3   0.956037 0.683936 0.159212 -0.903770
H4    H     H_    0.967265 0.625436 0.145372 0.227897
H5    H     H_    0.833374 0.697739 0.141594 0.301212
C4    C     C_3   0.713053 0.332937 0.303537 0.893907
H6    H     H_    0.640751 0.369691 0.337775 0.053177
C5    C     C_3   0.621859 0.262422 0.272135 -0.820748
H7    H     H_    0.563405 0.240899 0.314169 0.221105
H8    H     H_    0.528581 0.270053 0.229722 0.264199
H9    H     H_    0.704690 0.222530 0.248209 0.269358
Ba1   Ba    Ba6+2 0.152460 0.535140 0.468980 1.774603
C6    C     C_3   0.036457 0.648647 0.702202 0.638087
H10   H     H_    0.138313 0.626229 0.674485 -0.084869
C7    C     C_3   0.096271 0.694822 0.775100 -0.138998
H11   H     H_    0.173053 0.740567 0.767511 0.157461
H12   H     H_    0.169440 0.661830 0.807169 0.090171
C8    C     C_3   0.230872 0.313016 0.326374 0.560600
H13   H     H_    0.131544 0.345865 0.344452 0.080814
C9    C     C_3   0.166090 0.252403 0.265252 -0.111276
H14   H     H_    0.072126 0.219886 0.284542 0.123137
H15   H     H_    0.263936 0.216602 0.249327 0.143257
P4    P     P_3+3 0.862750 0.336790 0.432410 0.471610
O12   O     O_2   0.691430 0.325420 0.452420 -0.349403
O13   O     O_3   0.939830 0.414660 0.457830 -0.342787
O14   O     O_3   0.456020 0.368240 0.581510 -0.244491
O15   O     O_3   0.857350 0.318345 0.338928 -0.637363
P5    P     P_3+3 0.907118 0.402813 0.711608 0.633695
O16   O     O_3   0.374170 0.535780 0.585810 -0.284299
O17   O     O_3   0.871300 0.403980 0.619270 -0.322114
O18   O     O_2   0.768596 0.443028 0.746497 -0.248806
O19   O     O_3   0.874711 0.314606 0.724772 -0.498430
Ba2   Ba    Ba6+2 0.657710 0.464850 0.530960 1.782692
P6    P     P_3+3 0.385674 0.724318 0.424261 0.564958
C10   C     C_3   0.444327 0.758163 0.300400 0.528106
H16   H     H_    0.561799 0.770205 0.331654 0.029028
O20   O     O_3   0.436130 0.464210 0.414140 -0.355672
C11   C     C_3   0.453322 0.708936 0.689722 0.664013
H17   H     H_    0.328538 0.695592 0.690330 -0.092959
C12   C     C_3   0.498112 0.774439 0.748107 0.034431
H18   H     H_    0.619194 0.796193 0.742284 0.197430
H19   H     H_    0.412608 0.817139 0.743531 0.149968
P7    P     P_3+3 0.459268 0.566262 0.676059 0.588005
O21   O     O_2   0.629420 0.533310 0.672080 -0.213312
O22   O     O_3   0.548045 0.653094 0.703587 -0.550070
H20   H     H_    0.043107 0.709128 0.129284 0.251441
C13   C     C_3   0.899225 0.268011 0.661212 0.489530
H21   H     H_    0.808513 0.274672 0.617394 0.118243
H22   H     H_    0.019424 0.278720 0.644397 0.072301
C14   C     C_3   0.887153 0.190529 0.672588 -0.826910
H23   H     H_    0.761485 0.169996 0.666820 0.239028
H24   H     H_    0.948751 0.155799 0.631854 0.227774
H25   H     H_    0.942360 0.185514 0.726270 0.308033
P8    P     P_3+3 0.429726 0.275402 0.578015 0.543959
C15   C     C_3   0.468141 0.259933 0.718747 0.993307
O23   O     O_2   0.537702 0.245351 0.519458 -0.351905
O24   O     O_3   0.530548 0.243765 0.651128 -0.644435
H26   H     H_    0.485796 0.213256 0.816354 0.258830
C16   C     C_3   0.543021 0.208739 0.765479 -0.844522
H27   H     H_    0.673004 0.221495 0.778675 0.259366
H28   H     H_    0.526370 0.152484 0.737313 0.239774
C17   C     C_R   0.009637 0.951764 0.524656 -0.023900
C18   C     C_R   0.095595 0.907725 0.564634 -0.236955
C19   C     C_R   0.230514 0.044471 0.541818 -0.185778
C20   C     C_R   0.069606 0.021737 0.520090 0.093161
C21   C     C_R   0.283110 0.115072 0.545697 -0.052455
C22   C     C_R   0.178475 0.166255 0.527071 0.022228
C23   C     C_R   0.022682 0.143240 0.495206 -0.004454
C24   C     C_R   0.967470 0.070443 0.492269 0.038326
C25   C     C_R   0.225912 0.239528 0.538421 0.237423
C26   C     C_R   0.122671 0.287567 0.511907 -0.374689
C27   C     C_R   0.974866 0.266443 0.474172 0.143158
C28   C     C_R   0.922430 0.192767 0.466713 -0.050680
C29   C     C_R   0.853717 0.927755 0.495198 0.071391
C30   C     C_R   0.798052 0.855621 0.496927 0.021461
C31   C     C_R   0.895342 0.808306 0.531312 -0.161958
C32   C     C_R   0.037539 0.840022 0.571571 0.554160
H29   H     H_    0.164732 0.341561 0.513870 0.226179
H30   H     H_    0.406636 0.129027 0.564920 0.158493
C33   C     C_R   0.774300 0.166310 0.431346 -0.049750
C34   C     C_R   0.718267 0.096070 0.430288 -0.154259
C35   C     C_R   0.810214 0.047225 0.462829 0.026738
C36   C     C_R   0.751983 0.975930 0.465508 0.089282
C37   C     C_R   0.592203 0.952113 0.443151 -0.152164
C38   C     C_R   0.641079 0.832365 0.467582 0.044771
C39   C     C_R   0.538231 0.882576 0.444944 -0.176882
C40   C     C_R   0.590951 0.759578 0.461407 0.181533
C41   C     C_R   0.697248 0.711077 0.484106 -0.325604
C42   C     C_R   0.842448 0.733644 0.523943 0.273790
H31   H     H_    0.697772 0.199735 0.404857 0.174137
H32   H     H_    0.413863 0.868703 0.427613 0.163087
H33   H     H_    0.659693 0.655116 0.475895 0.154034
H34   H     H_    0.319802 0.008349 0.555793 0.135928
H35   H     H_    0.204247 0.927721 0.597052 0.182301
H36   H     H_    0.602108 0.081315 0.402281 0.151951
H37   H     H_    0.503934 0.986532 0.424999 0.135712
C43   C     C_R   0.613627 0.523477 0.301751 -0.423792
C44   C     C_R   0.463473 0.491019 0.277163 0.320152
C45   C     C_R   0.410170 0.482984 0.204240 -0.118733
C46   C     C_R   0.506208 0.508797 0.156078 0.065183
C47   C     C_R   0.659588 0.538798 0.181744 -0.120480
C48   C     C_R   0.713126 0.545813 0.254089 0.334697
C49   C     C_R   0.476067 0.565352 0.045952 -0.101229
C50   C     C_R   0.422917 0.563531 0.974186 -0.140506
C51   C     C_R   0.340208 0.502570 0.933856 0.148404
C52   C     C_R   0.310691 0.443827 0.967895 -0.093355
C53   C     C_R   0.362140 0.446057 0.039992 -0.131454
C54   C     C_R   0.446659 0.506650 0.079840 0.107860
C55   C     C_R   0.144585 0.460614 0.826169 -0.224380
C56   C     C_R   0.103498 0.448879 0.752506 0.229719
C57   C     C_R   0.343514 0.521332 0.737839 0.094811
C58   C     C_R   0.383340 0.532005 0.811810 -0.222816
C59   C     C_R   0.288385 0.498972 0.856366 0.056576
C60   C     C_R   0.208927 0.475404 0.709116 0.195048
H38   H     H_    0.491072 0.563492 0.833732 0.191450
H39   H     H_    0.445771 0.610259 0.950565 0.170835
H40   H     H_    0.539384 0.613214 0.075082 0.183835
H41   H     H_    0.293480 0.457830 0.185552 0.168591
H42   H     H_    0.250739 0.395223 0.938406 0.159155
H43   H     H_    0.339419 0.399588 0.064069 0.174717
H44   H     H_    0.064679 0.439327 0.859778 0.163423
H45   H     H_    0.736256 0.557604 0.145580 0.116503
H46   H     H_    0.655492 0.529128 0.357636 0.142990
N1    N     N_R   0.458667 0.694668 0.246720 0.215383
O25   O     O_R   0.369078 0.637489 0.245261 -0.428650
O26   O     O_R   0.563990 0.694480 0.200601 -0.407914
N2    N     N_R   0.938350 0.588184 0.711431 0.196712
O27   O     O_R   0.915934 0.536813 0.657539 -0.332309
O28   O     O_R   0.891380 0.580053 0.772889 -0.388069
N3    N     N_R   0.964905 0.724333 0.814537 0.321285
O29   O     O_R   0.891981 0.778429 0.795718 -0.294106
O30   O     O_R   0.942455 0.706718 0.875948 -0.271926
N4    N     N_R   0.303562 0.283780 0.386101 0.164039
O31   O     O_R   0.383549 0.327787 0.436979 -0.347535
O32   O     O_R   0.311109 0.215229 0.384844 -0.484672
N5    N     N_R   0.099890 0.279596 0.202491 0.289778
O33   O     O_R   0.190742 0.317188 0.169519 -0.363136
O34   O     O_R   0.963003 0.253087 0.170475 -0.297903
Cl1   Cl    Cl    0.582224 0.859060 0.234395 -0.459915
N6    N     N_R   0.478500 0.724097 0.619491 0.209776
O35   O     O_R   0.513732 0.788570 0.609460 -0.454766
O36   O     O_R   0.449762 0.672938 0.565195 -0.374564
Cl2   Cl    Cl    0.496679 0.752114 0.835137 -0.522550
N7    N     N_R   0.294872 0.247244 0.714044 0.171564
O37   O     O_R   0.211027 0.290397 0.755172 -0.436272
O38   O     O_R   0.235743 0.183075 0.689096 -0.470950
N8    N     N_R   0.512600 0.333957 0.752482 0.235358
O39   O     O_R   0.471246 0.385531 0.719616 -0.385068
O40   O     O_R   0.574397 0.349770 0.818402 -0.372462
Cl3   Cl    Cl    0.139116 0.808294 0.642682 -0.637172
N9    N     N_R   0.999977 0.788165 0.257187 0.231287
O41   O     O_R   0.975543 0.827474 0.208127 -0.318314
O42   O     O_R   0.023765 0.819294 0.323566 -0.370218
Cl4   Cl    Cl    0.178009 0.442509 0.618403 -0.576954
Cl5   Cl    Cl    0.761599 0.375184 0.231479 -0.633877

loop_
_geom_bond_atom_site_label_1
_geom_bond_atom_site_label_2
_geom_bond_distance
_ccdc_geom_bond_type
C19   H34   1.079049 S    
C11   H17   1.071983 S    
N6    O35   1.302065 A    
Ba1   O13   2.829572 S    
C37   H37   1.077394 S    
N3    O29   1.299508 A    
C22   C25   1.412777 A    
C15   C16   1.542479 S    
C57   C58   1.403536 A    
C19   C20   1.411987 A    
C52   C53   1.402066 A    
C45   H41   1.082112 S    
C23   C24   1.436978 A    
C49   C50   1.400492 A    
C5    H9    1.110815 S    
C60   Cl4   1.734370 S    
Ba2   O20   2.781347 S    
O1    Ba1   2.848396 S    
O7    Ba1   2.819418 S    
N8    O39   1.292554 A    
C8    C9    1.544119 S    
C16   H28   1.111323 S    
O6    C10   1.416737 S    
P1    O1    1.537018 D    
N1    O26   1.299468 A    
O10   C8    1.396319 S    
C6    H10   1.101733 S    
C12   H19   1.109125 S    
Ba1   O20   2.951919 S    
C55   C59   1.417440 A    
C44   C45   1.408594 A    
C11   O22   1.393023 S    
C6    N2    1.438318 S    
C45   C46   1.412007 A    
P7    O22   1.767016 S    
C2    H3    1.097292 S    
O2    Ba1   2.949831 S    
C47   C48   1.400114 A    
C36   C37   1.410091 A    
C19   C21   1.388472 A    
N9    O41   1.302337 A    
C4    Cl5   1.777882 S    
C8    H13   1.100062 S    
C1    H1    1.110682 S    
P3    O11   1.762338 S    
Ba1   O16   2.782142 S    
C15   N7    1.460084 S    
C39   H32   1.079351 S    
C8    N4    1.450573 S    
C43   H46   1.082212 S    
P4    C27   1.903948 S    
N5    O34   1.300394 A    
P2    C44   1.837454 S    
C1    C10   1.535497 S    
C28   C33   1.400612 A    
C17   C29   1.411216 A    
O3    Ba1   2.806351 S    
C30   C38   1.415287 A    
P1    C42   1.895810 S    
C58   H38   1.081847 S    
P4    O13   1.578430 S    
C26   H29   1.069207 S    
C37   C39   1.391837 A    
O19   C13   1.409809 S    
C40   C41   1.398298 A    
N7    O38   1.299153 A    
O2    Ba2   2.830176 S    
C33   C34   1.399030 A    
O17   Ba2   2.772124 S    
P4    O15   1.757268 S    
Ba1   Ba2   4.634488 S    
P5    O17   1.769078 S    
N3    O30   1.301128 A    
C34   H36   1.077408 S    
O3    P6    1.755061 S    
C14   H23   1.104018 S    
C13   C14   1.527182 S    
C9    N5    1.460072 S    
C53   H43   1.082834 S    
P7    C57   1.885895 S    
C16   H27   1.109172 S    
C15   O24   1.423500 S    
C29   C30   1.442475 A    
C7    N3    1.459675 S    
C2    N9    1.467173 S    
C49   C54   1.408488 A    
C5    H7    1.104679 S    
C20   C24   1.419197 A    
C4    O15   1.395746 S    
P1    O5    1.771625 S    
P7    O21   1.579055 D    
P1    O2    1.578460 S    
C7    H12   1.112364 S    
H26   C16   1.111674 S    
C9    H14   1.112793 S    
C31   C42   1.454691 A    
C17   C20   1.427787 A    
P3    C48   1.829053 S    
P2    O10   1.757964 S    
C21   C22   1.400612 A    
P3    O9    1.552603 D    
P5    O19   1.754660 S    
C4    H6    1.104690 S    
C3    H4    1.107184 S    
P1    Ba1   3.414496 S    
O11   C2    1.407689 S    
C15   N8    1.467704 S    
C31   C32   1.423017 A    
C22   C23   1.419147 A    
C38   C40   1.416925 A    
C24   C35   1.417724 A    
C50   C51   1.405937 A    
P2    O20   1.551499 S    
O13   Ba2   2.950691 S    
P8    C25   1.871404 S    
N2    O28   1.301984 A    
P4    O12   1.537405 D    
O5    C6    1.398963 S    
C12   Cl2   1.786367 S    
C3    H5    1.109267 S    
C11   C12   1.537603 S    
C29   C36   1.425774 A    
N4    O32   1.303025 A    
O8    Ba1   2.771463 S    
C18   C32   1.394373 A    
C47   H45   1.079527 S    
C57   C60   1.419128 A    
O12   Ba2   2.848938 S    
C10   H16   1.105695 S    
P8    O23   1.543666 D    
C58   C59   1.422048 A    
P5    O18   1.545951 D    
C14   H24   1.105217 S    
C41   H33   1.082085 S    
C55   H44   1.082378 S    
O14   P8    1.761588 S    
O16   P7    1.802137 S    
C1    H2    1.109899 S    
C43   C48   1.395293 A    
P3    O8    1.742201 S    
N2    O27   1.289493 A    
C49   H40   1.081228 S    
C32   Cl3   1.747541 S    
P8    O24   1.774623 S    
C23   C28   1.427132 A    
O14   Ba2   2.805682 S    
C43   C44   1.394937 A    
C5    H8    1.109725 S    
C41   C42   1.396745 A    
O16   Ba2   2.951057 S    
C10   N1    1.459562 S    
C35   C36   1.438012 A    
C52   H42   1.082457 S    
C14   H25   1.110195 S    
C7    H11   1.103942 S    
C3    H20   1.110863 S    
N8    O40   1.303099 A    
P6    C40   1.867164 S    
O6    P6    1.753167 S    
C9    H15   1.111254 S    
N7    O37   1.301156 A    
N1    O25   1.298499 A    
C13   H21   1.109938 S    
C6    C7    1.549845 S    
P2    O7    1.531269 D    
C12   H18   1.107471 S    
P5    C56   1.886743 S    
C55   C56   1.398936 A    
P4    Ba2   3.415121 S    
C21   H30   1.080292 S    
C18   H35   1.079031 S    
N9    O42   1.301241 A    
C30   C31   1.436503 A    
C2    C3    1.537517 S    
C4    C5    1.526706 S    
C38   C39   1.403993 A    
C1    Cl1   1.784961 S    
C56   C60   1.401862 A    
C17   C18   1.402622 A    
C33   H31   1.073481 S    
C11   N6    1.451067 S    
C26   C27   1.393569 A    
P2    Ba1   3.405088 S    
C25   C26   1.404773 A    
N6    O36   1.296176 A    
C34   C35   1.415711 A    
C51   C52   1.411092 A    
Ba2   O21   2.819556 S    
N4    O31   1.294342 A    
O4    P6    1.546954 D    
C50   H39   1.082383 S    
C27   C28   1.435677 A    
C46   C47   1.406625 A    
C46   C54   1.493473 S    
C51   C59   1.497465 S    
C13   H22   1.107959 S    
C53   C54   1.404102 A    
N5    O33   1.300827 A    
