data_mof_unit_8681.cif
_audit_creation_date              2012-12-11T15:06:37-0500
_audit_creation_method            fapswitch 2.2
_symmetry_space_group_name_H-M    P1
_symmetry_Int_Tables_number       1
_space_group_crystal_system       triclinic
_cell_length_a                    7.241403
_cell_length_b                    14.796711
_cell_length_c                    22.564567
_cell_angle_alpha                 89.999914
_cell_angle_beta                  90.021019
_cell_angle_gamma                 88.924327
_cell_volume                      2417.34336406

loop_
_atom_site_label
_atom_site_type_symbol
_atom_type_description
_atom_site_fract_x
_atom_site_fract_y
_atom_site_fract_z
_atom_type_partial_charge
O1    O     O_R   0.390810 0.844810 0.447340 -0.532789
O2    O     O_R   0.109190 0.155190 0.947340 -0.532802
O3    O     O_R   0.890810 0.655190 0.552660 -0.534951
O4    O     O_R   0.609190 0.344810 0.052660 -0.534907
O5    O     O_R   0.720550 0.655820 0.440420 -0.536835
O6    O     O_R   0.779450 0.344180 0.940420 -0.536828
O7    O     O_R   0.220550 0.844180 0.559580 -0.535630
O8    O     O_R   0.279450 0.155820 0.059580 -0.535629
C1    C     C_R   0.553626 0.626534 0.426181 0.676319
C2    C     C_R   0.946331 0.373473 0.926180 0.676326
C3    C     C_R   0.050788 0.873282 0.573809 0.677652
C4    C     C_R   0.449266 0.126700 0.073797 0.677599
O9    O     O_R   0.720530 0.844130 0.440420 -0.535795
O10   O     O_R   0.779470 0.155870 0.940420 -0.535781
O11   O     O_R   0.220530 0.655870 0.559580 -0.534835
O12   O     O_R   0.279470 0.344130 0.059580 -0.534843
O13   O     O_R   0.890830 0.844810 0.552660 -0.535004
O14   O     O_R   0.609170 0.155190 0.052660 -0.534994
O15   O     O_R   0.390830 0.655190 0.447340 -0.533691
O16   O     O_R   0.109170 0.344810 0.947340 -0.533708
C5    C     C_R   0.550772 0.873447 0.426315 0.674620
C6    C     C_R   0.949167 0.126546 0.926317 0.674673
C7    C     C_R   0.053716 0.626767 0.573971 0.671129
C8    C     C_R   0.446332 0.373242 0.073959 0.671155
O17   O     O_3   0.557310 0.749980 0.536820 -0.373235
O18   O     O_3   0.942690 0.250020 0.036820 -0.373207
O19   O     O_3   0.057310 0.750020 0.463180 -0.372489
O20   O     O_3   0.442690 0.249980 0.963180 -0.372510
V1    V     V_3+5 0.832160 0.749980 0.493170 1.427148
V2    V     V_3+5 0.667840 0.250020 0.993170 1.427319
V3    V     V_3+5 0.332160 0.750020 0.506830 1.431483
V4    V     V_3+5 0.167840 0.249980 0.006830 1.431425
C9    C     C_R   0.855592 0.601505 0.857476 -0.169648
C10   C     C_R   0.643168 0.398347 0.357592 -0.169610
C11   C     C_R   0.522455 0.893206 0.136036 -0.167707
C12   C     C_R   0.981203 0.106998 0.636078 -0.167474
H1    H     H_    0.827241 0.544275 0.944124 0.108898
H2    H     H_    0.671494 0.455583 0.444247 0.108842
H3    H     H_    0.494959 0.950116 0.049071 0.107212
H4    H     H_    0.009114 0.050118 0.549121 0.107157
H5    H     H_    0.823904 0.721778 0.771096 0.127192
H6    H     H_    0.674022 0.277905 0.271294 0.127307
H7    H     H_    0.585690 0.769779 0.218785 0.127178
H8    H     H_    0.919024 0.230556 0.718794 0.127109
C13   C     C_R   0.946872 0.448038 0.882714 -0.034521
C14   C     C_R   0.552946 0.551972 0.382721 -0.034377
C15   C     C_R   0.464064 0.052018 0.116842 -0.029639
C16   C     C_R   0.036283 0.947933 0.616877 -0.029541
C17   C     C_R   0.127944 0.468292 0.598067 -0.159109
C18   C     C_R   0.373411 0.531904 0.097920 -0.159365
C19   C     C_R   0.508913 0.036113 0.407216 -0.163123
C20   C     C_R   0.988794 0.963754 0.907214 -0.163276
C21   C     C_R   0.153316 0.397146 0.637594 -0.129396
C22   C     C_R   0.348846 0.603198 0.137376 -0.129264
C23   C     C_R   0.478706 0.109764 0.369994 -0.127592
C24   C     C_R   0.018091 0.890019 0.869999 -0.127424
C25   C     C_R   0.108224 0.407615 0.697217 -0.166917
C26   C     C_R   0.393617 0.592708 0.197037 -0.166853
C27   C     C_R   0.472916 0.098315 0.308737 -0.164883
C28   C     C_R   0.024729 0.901493 0.808751 -0.164739
C29   C     C_R   0.031440 0.489760 0.718887 0.079574
C30   C     C_R   0.469120 0.510348 0.218827 0.079496
C31   C     C_R   0.500919 0.012145 0.282725 0.078344
C32   C     C_R   0.998496 0.987788 0.782736 0.078283
C33   C     C_R   0.003983 0.562658 0.677748 0.072946
C34   C     C_R   0.495899 0.437323 0.177754 0.072944
C35   C     C_R   0.534098 0.936698 0.321350 0.072517
C36   C     C_R   0.966406 0.063338 0.821353 0.072485
C37   C     C_R   0.982888 0.502188 0.780046 0.073797
C38   C     C_R   0.517165 0.497853 0.280032 0.073835
C39   C     C_R   0.495853 0.998278 0.219807 0.074580
C40   C     C_R   0.004352 0.001682 0.719828 0.074553
C41   C     C_R   0.907761 0.587183 0.798275 0.145146
C42   C     C_R   0.591400 0.412718 0.298350 0.145078
C43   C     C_R   0.525467 0.909420 0.197323 0.143952
C44   C     C_R   0.976899 0.090703 0.697350 0.143883
C45   C     C_R   0.882664 0.657246 0.757308 -0.212980
C46   C     C_R   0.615968 0.342553 0.257436 -0.212926
C47   C     C_R   0.559813 0.837182 0.235948 -0.210196
C48   C     C_R   0.943468 0.163037 0.735963 -0.210037
C49   C     C_R   0.930603 0.645501 0.698156 -0.203708
C50   C     C_R   0.568330 0.354330 0.198252 -0.203535
C51   C     C_R   0.563082 0.850309 0.296891 -0.197943
C52   C     C_R   0.939246 0.149861 0.796895 -0.197553
C53   C     C_R   0.002901 0.433150 0.823777 -0.219809
C54   C     C_R   0.497409 0.566935 0.323733 -0.219878
C55   C     C_R   0.464718 0.069231 0.178124 -0.218710
C56   C     C_R   0.034270 0.930622 0.678146 -0.218517
C57   C     C_R   0.873151 0.532323 0.899049 -0.166287
C58   C     C_R   0.625944 0.467584 0.399133 -0.166403
C59   C     C_R   0.492971 0.963938 0.096227 -0.169088
C60   C     C_R   0.009841 0.036196 0.596270 -0.169254
C61   C     C_R   0.054403 0.551397 0.617171 -0.080600
C62   C     C_R   0.445878 0.448633 0.117136 -0.080399
C63   C     C_R   0.536132 0.949379 0.383845 -0.076211
C64   C     C_R   0.963497 0.050615 0.883841 -0.076142
H9    H     H_    0.055463 0.366469 0.813261 0.097734
H10   H     H_    0.445288 0.633672 0.313172 0.097755
H11   H     H_    0.444330 0.138571 0.191556 0.093737
H12   H     H_    0.052773 0.861148 0.691564 0.093563
H13   H     H_    0.169165 0.458990 0.552262 0.107485
H14   H     H_    0.332552 0.541253 0.052075 0.107416
H15   H     H_    0.508659 0.046637 0.454751 0.105933
H16   H     H_    0.988207 0.953182 0.954745 0.105876
H17   H     H_    0.137364 0.350353 0.725309 0.112101
H18   H     H_    0.365391 0.650153 0.225050 0.112206
H19   H     H_    0.444827 0.158252 0.283036 0.113063
H20   H     H_    0.052079 0.841473 0.783059 0.113050
H21   H     H_    0.211825 0.333551 0.622079 0.119745
H22   H     H_    0.291307 0.666954 0.121768 0.119838
H23   H     H_    0.456962 0.176423 0.388841 0.119295
H24   H     H_    0.038406 0.823257 0.888844 0.119216
H25   H     H_    0.908517 0.702031 0.668380 0.118834
H26   H     H_    0.589934 0.297712 0.168520 0.118555
H27   H     H_    0.589970 0.792018 0.324796 0.108558
H28   H     H_    0.913116 0.208230 0.824792 0.108158
H29   H     H_    0.797924 0.666188 0.871484 0.113301
H30   H     H_    0.700227 0.333573 0.371661 0.113430
H31   H     H_    0.545143 0.825531 0.118780 0.113560
H32   H     H_    0.960338 0.174817 0.618830 0.113526

loop_
_geom_bond_atom_site_label_1
_geom_bond_atom_site_label_2
_ccdc_geom_bond_type
C10   H30   S    
C25   H17   S    
C26   C30   A    
O1    C5    A    
C23   C27   A    
O19   V1    S    
O13   V1    S    
O3    C7    A    
C48   C52   A    
O15   V3    S    
C35   C51   A    
C11   C43   A    
C18   C22   A    
C32   C36   A    
O9    V1    S    
C9    C57   A    
C17   H13   S    
O4    C8    A    
H7    C47   S    
O1    V3    S    
C30   C38   A    
O2    V4    S    
O3    V1    S    
C38   C42   A    
C12   C44   A    
C11   H31   S    
C1    O15   A    
C20   H16   S    
C2    O16   A    
C47   C51   A    
C19   C63   A    
O2    C6    A    
C16   C56   A    
C37   C41   A    
O14   V2    S    
C13   C57   A    
O5    V1    S    
C28   H20   S    
C40   C44   A    
C34   C62   A    
C12   C60   A    
O11   C7    A    
C1    C14   S    
O12   C8    A    
C35   C63   A    
C3    C16   S    
C6    C64   S    
O10   V2    S    
C4    C15   S    
C54   H10   S    
H3    C59   S    
C40   C56   A    
O16   V4    S    
O7    C3    A    
C55   H11   S    
C9    H29   S    
C31   C35   A    
C39   C43   A    
O7    V3    S    
C30   C34   A    
O8    V4    S    
C51   H27   S    
H8    C48   S    
C50   H26   S    
C19   H15   S    
C21   C25   A    
O18   V4    S    
C18   C62   A    
C5    C63   S    
C27   H19   S    
C7    C61   S    
C26   H18   S    
C22   H22   S    
C36   C52   A    
C13   C53   A    
C10   C58   A    
O5    C1    A    
C8    C62   S    
C34   C50   A    
C46   C50   A    
C33   C49   A    
C45   C49   A    
O8    C4    A    
C2    C13   S    
O9    C5    A    
C36   C64   A    
H4    C60   S    
C25   C29   A    
C56   H12   S    
C10   C42   A    
C39   C55   A    
C9    C41   A    
O6    V2    S    
C31   C39   A    
C18   H14   S    
C16   C60   A    
C4    O14   A    
C38   C54   A    
C37   C53   A    
H6    C46   S    
C22   C26   A    
C29   C37   A    
C3    O13   A    
C23   H23   S    
C15   C59   A    
O17   V3    S    
C44   C48   A    
O6    C2    A    
O11   V3    S    
C14   C58   A    
O12   V4    S    
H2    C58   S    
C27   C31   A    
H1    C57   S    
C28   C32   A    
O10   C6    A    
O20   V2    S    
H5    C45   S    
C17   C21   A    
C33   C61   A    
C20   C64   A    
C19   C23   A    
C32   C40   A    
C12   H32   S    
C53   H9    S    
C29   C33   A    
C24   C28   A    
C52   H28   S    
C42   C46   A    
C49   H25   S    
C41   C45   A    
C21   H21   S    
C17   C61   A    
C43   C47   A    
C24   H24   S    
O4    V2    S    
C20   C24   A    
C15   C55   A    
C14   C54   A    
C11   C59   A    
