data_mof_unit_6479.cif
_audit_creation_date              2012-12-11T14:26:58-0500
_audit_creation_method            fapswitch 2.2
_symmetry_space_group_name_H-M    P1
_symmetry_Int_Tables_number       1
_space_group_crystal_system       triclinic
_cell_length_a                    14.980256
_cell_length_b                    14.822503
_cell_length_c                    15.037698
_cell_angle_alpha                 108.921978
_cell_angle_beta                  108.837816
_cell_angle_gamma                 109.616833
_cell_volume                      2602.66503368

loop_
_atom_site_label
_atom_site_type_symbol
_atom_type_description
_atom_site_fract_x
_atom_site_fract_y
_atom_site_fract_z
_atom_type_partial_charge
C1    C     C_R   0.002696 0.804516 0.094007 0.491836
C2    C     C_R   0.220119 0.790455 0.305937 0.557391
C3    C     C_R   0.905869 0.405287 0.205581 -0.100528
C4    C     C_R   0.784222 0.206155 0.696064 -0.122576
C5    C     C_R   0.297583 0.591320 0.992258 -0.145824
C6    C     C_R   0.934465 0.493602 0.298074 0.141718
C7    C     C_R   0.297065 0.500572 0.927110 0.037306
C8    C     C_R   0.317952 0.845681 0.306976 -0.218906
C9    C     C_R   0.048917 0.221343 0.046387 0.135573
C10   C     C_3   0.473362 0.386005 0.858737 -0.407422
C11   C     C_3   0.368149 0.388905 0.839937 -0.410216
C12   C     C_R   0.687571 0.152575 0.694294 0.131448
C13   C     C_3   0.574149 0.532968 0.056949 0.511773
C14   C     C_3   0.561302 0.585582 0.911036 -0.508489
C15   C     C_3   0.572866 0.500731 0.946577 0.272014
C16   C     C_R   0.037070 0.594769 0.780095 -0.154487
C17   C     C_3   0.394334 0.499526 0.927611 0.350107
C18   C     C_3   0.462132 0.515420 0.039447 -0.544135
C19   C     C_3   0.460657 0.592565 0.910950 -0.415704
C20   C     C_2   0.419324 0.029905 0.460167 0.443227
C21   C     C_2   0.418452 0.946462 0.388300 0.342246
C22   C     C_2   0.520881 0.108891 0.558829 -0.174687
C23   C     C_R   0.967463 0.504946 0.679054 0.183682
C24   C     C_2   0.585577 0.073979 0.602738 -0.179261
C25   C     C_2   0.851796 0.423450 0.488354 -0.313289
C26   C     C_2   0.937228 0.509340 0.580228 -0.259090
C27   C     C_2   0.851763 0.405342 0.386267 0.648958
C28   C     C_R   0.686117 0.408743 0.941262 -0.045137
C29   C     C_2   0.894743 0.493278 0.374282 -0.364801
C30   C     C_2   0.164450 0.138436 0.072683 -0.132669
C31   C     C_2   0.090981 0.161935 0.091251 -0.179625
C32   C     C_2   0.163923 0.037117 0.065098 -0.111011
C33   C     C_2   0.122621 0.987369 0.113531 -0.195903
C34   C     C_R   0.674373 0.500711 0.961286 0.009362
C35   C     C_R   0.946285 0.411017 0.688460 -0.128027
C36   C     C_R   0.775526 0.591958 0.032343 -0.155739
C37   C     C_R   0.695930 0.207538 0.790760 -0.160048
C38   C     C_R   0.093227 0.801810 0.002141 -0.207066
C39   C     C_R   0.068184 0.868192 0.065645 -0.024924
C40   C     C_3   0.919304 0.890977 0.161234 0.240908
C41   C     C_3   0.873265 0.899278 0.238381 -0.912586
C42   C     C_3   0.250325 0.813137 0.471356 0.294479
C43   C     C_3   0.227097 0.858472 0.562379 -0.859150
C44   C     C_3   0.626531 0.513946 0.212715 0.198987
C45   C     C_R   0.994160 0.587011 0.297056 -0.172059
C46   C     C_3   0.739401 0.614866 0.290871 -0.316875
C47   C     C_3   0.763657 0.650877 0.407224 -1.019399
C48   C     C_3   0.291055 0.072745 0.385339 0.242558
C49   C     C_3   0.341272 0.197430 0.448742 -0.361366
C50   C     C_3   0.295639 0.242398 0.378379 -0.997281
C51   C     C_3   0.534000 0.873701 0.376389 0.304571
C52   C     C_3   0.655386 0.914805 0.427533 -0.937269
C53   C     C_3   0.862876 0.244981 0.348647 0.179568
C54   C     C_3   0.985005 0.297644 0.385738 -0.330700
C55   C     C_3   0.032506 0.230853 0.420444 -1.016770
C56   C     C_R   0.206821 0.409757 0.900821 -0.153177
C57   C     C_R   0.304921 0.789735 0.207971 -0.217946
C58   C     C_R   0.973433 0.248514 0.062566 -0.160884
C59   C     C_R   0.066416 0.249690 0.971798 -0.121505
H1    H     H_    0.174493 0.325515 0.843280 0.090816
H2    H     H_    0.805503 0.178673 0.634155 0.102817
H3    H     H_    0.315411 0.317547 0.842611 0.152307
H4    H     H_    0.418644 0.441840 0.045241 0.182469
H5    H     H_    0.633962 0.668261 0.965939 0.156353
H6    H     H_    0.552700 0.560422 0.829177 0.190721
H7    H     H_    0.409870 0.585540 0.833661 0.167443
H8    H     H_    0.487916 0.674028 0.976707 0.156396
H9    H     H_    0.633059 0.622084 0.109546 0.000898
H10   H     H_    0.473069 0.587682 0.105168 0.129594
H11   H     H_    0.072206 0.680171 0.800764 0.102838
H12   H     H_    0.357439 0.815502 0.175519 0.149712
H13   H     H_    0.542342 0.194670 0.596301 0.121058
H14   H     H_    0.561901 0.988162 0.574100 0.124730
H15   H     H_    0.794498 0.356102 0.489554 0.153236
H16   H     H_    0.997081 0.577360 0.582264 0.134810
H17   H     H_    0.915600 0.573473 0.432502 0.129659
H18   H     H_    0.206471 0.177356 0.037570 0.120693
H19   H     H_    0.046632 0.122752 0.124584 0.122326
H20   H     H_    0.176676 0.993625 0.001150 0.125504
H21   H     H_    0.623750 0.324321 0.896438 0.082818
H22   H     H_    0.118118 0.034093 0.182069 0.135758
H23   H     H_    0.941071 0.236057 0.114819 0.097182
H24   H     H_    0.900222 0.327297 0.624502 0.093588
H25   H     H_    0.794123 0.675395 0.071013 0.124645
H26   H     H_    0.638246 0.181193 0.817778 0.103212
H27   H     H_    0.156784 0.829012 0.981997 0.122840
H28   H     H_    0.012561 0.668854 0.347495 0.159348
H29   H     H_    0.850486 0.841011 0.077347 0.061001
H30   H     H_    0.964428 0.974954 0.175470 0.088052
H31   H     H_    0.940207 0.950738 0.322728 0.270872
H32   H     H_    0.821074 0.937104 0.224599 0.205196
H33   H     H_    0.824002 0.816835 0.225789 0.240754
H34   H     H_    0.118821 0.238551 0.939310 0.090296
H35   H     H_    0.339375 0.859063 0.503205 0.063750
H36   H     H_    0.224838 0.725211 0.446261 0.061785
H37   H     H_    0.139140 0.813188 0.534978 0.235777
H38   H     H_    0.272217 0.849663 0.630926 0.192464
H39   H     H_    0.253203 0.946641 0.589863 0.275255
H40   H     H_    0.622822 0.448198 0.234084 0.143446
H41   H     H_    0.563883 0.532652 0.224204 0.081305
H42   H     H_    0.801123 0.595589 0.278434 0.223505
H43   H     H_    0.745224 0.684951 0.276792 0.185297
H44   H     H_    0.706969 0.678506 0.421945 0.265182
H45   H     H_    0.843921 0.321553 0.169795 0.157800
H46   H     H_    0.847781 0.720074 0.462278 0.272603
H47   H     H_    0.755090 0.582402 0.425224 0.272043
H48   H     H_    0.201701 0.035160 0.350266 0.171419
H49   H     H_    0.307608 0.049465 0.316380 0.078309
H50   H     H_    0.324733 0.218913 0.517481 0.216863
H51   H     H_    0.430342 0.236956 0.480856 0.192743
H52   H     H_    0.313289 0.223787 0.310348 0.281108
H53   H     H_    0.333771 0.332648 0.426820 0.269323
H54   H     H_    0.206750 0.206156 0.346572 0.264961
H55   H     H_    0.498511 0.813828 0.290735 0.103144
H56   H     H_    0.354382 0.676475 0.024425 0.087365
H57   H     H_    0.500391 0.830589 0.416087 0.053709
H58   H     H_    0.695381 0.970936 0.515061 0.249591
H59   H     H_    0.670374 0.844374 0.415306 0.215807
H60   H     H_    0.691357 0.958927 0.390060 0.261837
H61   H     H_    0.822855 0.159874 0.282423 0.131608
H62   H     H_    0.846671 0.237113 0.413601 0.096975
H63   H     H_    0.998884 0.303356 0.319047 0.202451
H64   H     H_    0.028306 0.381673 0.454811 0.200056
H65   H     H_    0.016863 0.221168 0.485051 0.269148
H66   H     H_    0.121423 0.273759 0.451798 0.275960
H67   H     H_    0.472978 0.324004 0.885186 0.180183
H68   H     H_    0.996363 0.148830 0.350923 0.268184
H69   H     H_    0.476262 0.359487 0.781930 0.157497
H70   H     H_    0.325926 0.378993 0.758606 0.168826
N1    N     N_R   0.993980 0.704500 0.053430 -0.086077
N2    N     N_R   0.053690 0.556380 0.849240 -0.039306
N3    N     N_R   0.790390 0.443640 0.997160 -0.045130
N4    N     N_R   0.998260 0.443670 0.792970 -0.044662
N5    N     N_R   0.845830 0.556350 0.053430 -0.031248
N6    N     N_R   0.792820 0.295510 0.849240 -0.046172
N7    N     N_R   0.051260 0.704510 0.997160 -0.067586
N8    N     N_R   0.001740 0.556330 0.207030 -0.045894
N9    N     N_R   0.154170 0.443650 0.946570 -0.036431
N10   N     N_R   0.207180 0.704490 0.150760 -0.070185
N11   N     N_R   0.948740 0.295490 0.002840 -0.043411
N12   N     N_R   0.006020 0.295500 0.946570 -0.044686
N13   N     N_R   0.149890 0.704480 0.207030 -0.090124
N14   N     N_R   0.946310 0.443620 0.150760 -0.062156
N15   N     N_R   0.209610 0.556360 0.002840 -0.034026
N16   N     N_R   0.850110 0.295520 0.792970 -0.045971
Ni1   Ni    Ni4+2 0.997880 0.629240 0.129060 0.275663
Ni2   Ni    Ni4+2 0.002120 0.370760 0.870940 0.203146
Ni3   Ni    Ni4+2 0.129260 0.629260 0.000000 0.193031
Ni4   Ni    Ni4+2 0.870740 0.370740 0.000000 0.208379
O1    O     O_3   0.988095 0.845484 0.181887 -0.628358
O2    O     O_3   0.192121 0.824330 0.384514 -0.595937
O3    O     O_3   0.605317 0.471993 0.104291 -0.664463
O4    O     O_3   0.325931 0.031787 0.454614 -0.642961
O5    O     O_3   0.515291 0.963321 0.385444 -0.631663
O6    O     O_3   0.815342 0.300533 0.307157 -0.682175

loop_
_geom_bond_atom_site_label_1
_geom_bond_atom_site_label_2
_ccdc_geom_bond_type
C3    H45   S    
C54   H64   S    
C51   O5    S    
C6    C45   A    
N1    Ni1   S    
N13   Ni1   S    
C43   H39   S    
N15   Ni3   S    
C11   H3    S    
C35   N4    A    
C53   H61   S    
C29   H17   S    
C48   H49   S    
C53   C54   S    
C46   H43   S    
C44   O3    S    
C13   C18   S    
C38   H27   S    
C37   H26   S    
C45   H28   S    
C9    C58   A    
C10   C15   S    
C58   H23   S    
C30   C31   D    
C44   H40   S    
C24   H14   S    
C48   H48   S    
C27   C29   D    
C57   N10   A    
C19   H7    S    
C25   H15   S    
C23   C26   S    
C12   C37   A    
C16   N2    A    
C17   C19   S    
C46   C47   S    
C30   H18   S    
C55   H66   S    
C47   H46   S    
C21   O5    S    
C37   N6    A    
C19   H8    S    
N4    Ni2   S    
C38   N7    A    
C40   H30   S    
C4    C12   A    
C15   C34   S    
C52   H58   S    
C3    C6    A    
C18   H10   S    
C41   H31   S    
C54   H63   S    
C28   C34   A    
C5    H56   S    
N3    Ni4   S    
C7    C56   A    
C10   H69   S    
C11   H70   S    
C22   H13   S    
N16   Ni2   S    
C44   C46   S    
C8    C21   S    
C9    C31   S    
C27   O6    S    
N5    Ni1   S    
C46   H42   S    
N1    N7    A    
N10   Ni3   S    
C51   H55   S    
C47   H44   S    
C20   O4    S    
C40   O1    S    
C42   H36   S    
N8    Ni1   S    
N2    Ni3   S    
C3    N14   A    
N11   N12   A    
C1    N1    A    
C5    C7    A    
C35   H24   S    
C5    N15   A    
C7    C17   S    
C25   C26   D    
N6    Ni4   S    
C4    H2    S    
C51   C52   S    
C9    C59   A    
C8    C57   A    
C56   N9    A    
C1    C39   A    
N9    Ni2   S    
C47   H47   S    
C14   H5    S    
C41   H33   S    
C45   N8    A    
C17   C18   S    
C16   H11   S    
C1    O1    S    
C33   C39   S    
C57   H12   S    
C42   O2    S    
N7    Ni3   S    
N3    N5    A    
C40   C41   S    
C41   H32   S    
C48   O4    S    
C20   C22   S    
C53   O6    S    
C16   C23   A    
C23   C35   A    
C13   C15   S    
C2    N13   A    
C22   C24   D    
C42   C43   S    
C31   H19   S    
C49   H50   S    
C18   H4    S    
C58   N11   A    
C2    O2    S    
C54   C55   S    
C11   C17   S    
C42   H35   S    
C14   C19   S    
C2    C8    A    
C43   H38   S    
C13   O3    S    
C55   H68   S    
N2    N4    A    
C36   N5    A    
C25   C27   S    
C12   C24   S    
C51   H57   S    
C50   H54   S    
C32   C33   D    
C40   H29   S    
C50   H53   S    
N6    N16   A    
C53   H62   S    
C32   H20   S    
C30   C32   S    
C44   H41   S    
C38   C39   A    
C36   H25   S    
C48   C49   S    
C4    N16   A    
C50   H52   S    
N10   N13   A    
C14   H6    S    
C34   C36   A    
N8    N14   A    
C28   H21   S    
C10   C11   S    
N12   Ni2   S    
C52   H60   S    
C56   H1    S    
N14   Ni4   S    
C6    C29   S    
C20   C21   D    
C59   N12   A    
C26   H16   S    
C49   C50   S    
C55   H65   S    
C43   H37   S    
C14   C15   S    
N9    N15   A    
C59   H34   S    
C28   N3    A    
C10   H67   S    
C33   H22   S    
N11   Ni4   S    
C49   H51   S    
C13   H9    S    
C52   H59   S    
