data_mof_unit_47407.cif
_audit_creation_date              2012-12-10T17:44:36-0500
_audit_creation_method            fapswitch 2.2
_symmetry_space_group_name_H-M    P1
_symmetry_Int_Tables_number       1
_space_group_crystal_system       triclinic
_cell_length_a                    10.013009
_cell_length_b                    10.651
_cell_length_c                    15.341954
_cell_angle_alpha                 92.851227
_cell_angle_beta                  67.567028
_cell_angle_gamma                 91.31645
_cell_volume                      1510.49429196

loop_
_atom_site_label
_atom_site_type_symbol
_atom_type_description
_atom_site_fract_x
_atom_site_fract_y
_atom_site_fract_z
_atom_type_partial_charge
C1    C     C_R   0.502534 0.739218 0.498630 1.058555
C2    C     C_R   0.709334 0.359065 0.038867 -0.287188
C3    C     C_R   0.578986 0.426569 0.088931 -0.072603
C4    C     C_R   0.408627 0.496898 0.676360 0.960024
C5    C     C_R   0.802282 0.336300 0.087520 0.389019
C6    C     C_R   0.767934 0.386561 0.179584 0.601763
C7    C     C_R   0.563139 0.493699 0.172921 0.682786
C8    C     C_R   0.607475 0.860620 0.317379 0.501163
C9    C     C_R   0.629671 0.918382 0.233278 0.254129
C10   C     C_R   0.598251 0.045060 0.235258 0.511836
C11   C     C_R   0.553149 0.115851 0.320254 0.510534
C12   C     C_R   0.405479 0.436082 0.915923 0.051137
C13   C     C_R   0.533228 0.059300 0.406115 -0.162896
C14   C     C_R   0.550538 0.928802 0.405345 -0.252190
C15   C     C_R   0.510853 0.871687 0.493040 -0.158143
C16   C     C_R   0.499416 0.260763 0.498157 0.950423
C17   C     C_R   0.469395 0.941642 0.578271 0.742857
C18   C     C_R   0.467295 0.070090 0.577823 -0.174330
C19   C     C_R   0.497826 0.127991 0.493140 -0.055150
C20   C     C_R   0.828731 0.716471 0.568429 0.281420
C21   C     C_R   0.902148 0.830666 0.560963 0.538627
C22   C     C_R   0.039545 0.831005 0.563171 0.220005
C23   C     C_R   0.260313 0.463353 0.974612 -0.185529
C24   C     C_R   0.098911 0.716302 0.570716 0.297191
C25   C     C_R   0.052861 0.604392 0.536412 -0.069800
C26   C     C_R   0.909682 0.604506 0.535795 -0.066944
C27   C     C_R   0.946746 0.401649 0.463705 -0.013599
C28   C     C_R   0.591375 0.494704 0.323803 1.163086
C29   C     C_R   0.089374 0.401981 0.462290 0.500976
C30   C     C_R   0.351645 0.482343 0.778899 -0.232580
C31   C     C_R   0.648779 0.465948 0.221969 -0.329703
C32   C     C_R   0.159746 0.487658 0.934137 -0.092118
C33   C     C_R   0.204138 0.492865 0.836459 0.710453
C34   C     C_R   0.505081 0.402657 0.956017 -0.182149
C35   C     C_R   0.450125 0.454195 0.819528 -0.118019
C36   C     C_R   0.468757 0.429122 0.052915 -0.155474
C37   C     C_R   0.321607 0.450723 0.111559 0.693420
C38   C     C_R   0.218892 0.466596 0.072456 0.606504
C39   C     C_R   0.637067 0.340760 0.903601 0.625534
C40   C     C_R   0.737031 0.316953 0.944267 0.448679
Cl1   Cl    Cl    0.949186 0.230874 0.046608 -0.360039
Cl2   Cl    Cl    0.697532 0.831488 0.124961 -0.330447
Cl3   Cl    Cl    0.668368 0.717335 0.669409 -0.411458
Cl4   Cl    Cl    0.116345 0.974821 0.582620 -0.389723
Cl5   Cl    Cl    0.148680 0.713561 0.668684 -0.351177
Cl6   Cl    Cl    0.197779 0.273459 0.403723 -0.392731
Cl7   Cl    Cl    0.898663 0.243895 0.867584 -0.315329
F1    F     F_    0.080215 0.491212 0.130567 -0.578194
F2    F     F_    0.273315 0.444350 0.206869 -0.551156
F3    F     F_    0.663635 0.289786 0.815598 -0.598930
F4    F     F_    0.429620 0.885234 0.661986 -0.565276
F5    F     F_    0.651507 0.740859 0.311427 -0.647830
F6    F     F_    0.613223 0.100518 0.154320 -0.563321
F7    F     F_    0.523462 0.238031 0.317798 -0.644621
F8    F     F_    0.827924 0.940203 0.577083 -0.549590
F9    F     F_    0.465969 0.588950 0.206915 -0.575011
F10   F     F_    0.845325 0.350581 0.230073 -0.556737
F11   F     F_    0.103202 0.510758 0.799515 -0.578662
H1    H     H_    0.438927 0.124802 0.643913 0.182368
H2    H     H_    0.909149 0.321760 0.432869 0.197490
H3    H     H_    0.046938 0.503458 0.977868 0.206372
H4    H     H_    0.563843 0.453013 0.775922 0.251117
N1    N     N_R   0.856800 0.501200 0.500850 -0.111363
N2    N     N_R   0.142390 0.501280 0.500880 -0.121173
O1    O     O_R   0.385310 0.683220 0.500000 -0.614683
O2    O     O_R   0.614640 0.683250 0.500010 -0.584078
O3    O     O_R   0.319840 0.499980 0.632240 -0.533343
O4    O     O_R   0.549160 0.500000 0.632250 -0.593099
O5    O     O_R   0.385360 0.316750 0.499990 -0.544117
O6    O     O_R   0.614690 0.316780 0.500000 -0.629077
O7    O     O_R   0.450840 0.500000 0.367750 -0.531745
O8    O     O_R   0.680160 0.500020 0.367760 -0.548804
Zn1   Zn    Zn3+2 0.346880 0.499980 0.499990 1.150056
Zn2   Zn    Zn3+2 0.653120 0.500020 0.500010 1.092609

loop_
_geom_bond_atom_site_label_1
_geom_bond_atom_site_label_2
_ccdc_geom_bond_type
C40   Cl7   S    
C33   F11   S    
C27   C29   A    
C17   F4    S    
C21   F8    S    
C12   C23   A    
C9    Cl2   S    
C30   C35   A    
C24   Cl5   S    
C36   C37   A    
C32   H3    S    
C3    C7    A    
C27   H2    S    
C5    C6    A    
O4    Zn2   S    
O2    Zn2   S    
O1    Zn1   S    
C18   C19   A    
C10   F6    S    
C22   Cl4   S    
C8    C9    A    
O6    Zn2   S    
C1    O1    A    
N2    Zn1   S    
O5    Zn1   S    
C1    C15   S    
C9    C10   A    
C8    F5    S    
C38   F1    S    
C6    C31   A    
C29   N2    A    
C13   C14   A    
C6    F10   S    
C28   O8    A    
C7    F9    S    
C1    O2    A    
C7    C31   A    
C13   C19   A    
C34   C39   A    
C16   O6    A    
C24   C25   A    
O8    Zn2   S    
C39   C40   A    
C4    O4    A    
C25   C26   A    
C25   N2    A    
C26   N1    A    
C37   C38   A    
C37   F2    S    
C17   C18   A    
C12   C35   A    
C11   F7    S    
C27   N1    A    
O3    Zn1   S    
C22   C24   A    
C28   O7    A    
C12   C34   A    
C20   Cl3   S    
O7    Zn1   S    
C15   C17   A    
C5    Cl1   S    
C8    C14   A    
C30   C33   A    
C28   C31   S    
C16   O5    A    
C4    O3    A    
N1    Zn2   S    
C23   C38   A    
C29   Cl6   S    
C32   C33   A    
C2    C3    A    
C23   C32   A    
C11   C13   A    
C20   C26   A    
C3    C36   A    
C16   C19   S    
C35   H4    S    
C34   C36   A    
C10   C11   A    
C2    C5    A    
C2    C40   A    
C18   H1    S    
C39   F3    S    
C20   C21   A    
C14   C15   A    
C21   C22   A    
C4    C30   S    
