data_mof_unit_50553.cif
_audit_creation_date              2012-12-10T17:19:23-0500
_audit_creation_method            fapswitch 2.2
_symmetry_space_group_name_H-M    P1
_symmetry_Int_Tables_number       1
_space_group_crystal_system       triclinic
_cell_length_a                    15.016831
_cell_length_b                    10.814478
_cell_length_c                    9.62613
_cell_angle_alpha                 92.219062
_cell_angle_beta                  89.742988
_cell_angle_gamma                 93.184939
_cell_volume                      1559.68629429

loop_
_atom_site_label
_atom_site_type_symbol
_atom_type_description
_atom_site_fract_x
_atom_site_fract_y
_atom_site_fract_z
_atom_type_partial_charge
C1    C     C_R   0.504300 0.262835 0.497510 0.789485
C2    C     C_R   0.911675 0.604635 0.439406 0.074302
C3    C     C_R   0.945017 0.317534 0.634746 0.165423
C4    C     C_R   0.038354 0.318874 0.635860 -0.243177
C5    C     C_R   0.089348 0.411314 0.569379 0.092041
C6    C     C_R   0.047250 0.504960 0.500100 0.024890
C7    C     C_R   0.098903 0.596903 0.430073 0.108519
C8    C     C_R   0.056729 0.691586 0.363485 0.139858
C9    C     C_R   0.963746 0.695371 0.370300 -0.232177
C10   C     C_R   0.182204 0.411483 0.571309 -0.228148
C11   C     C_R   0.232839 0.501009 0.500525 -0.070696
C12   C     C_R   0.329127 0.499313 0.500226 0.809286
C13   C     C_R   0.191900 0.592311 0.429243 -0.223075
C14   C     C_R   0.600894 0.133950 0.705752 -0.198959
C15   C     C_R   0.613259 0.087994 0.836606 -0.028883
C16   C     C_R   0.563427 0.980920 0.874621 -0.072929
C17   C     C_R   0.511984 0.910624 0.773557 -0.078491
C18   C     C_R   0.513868 0.947178 0.632855 0.026746
C19   C     C_R   0.542994 0.070273 0.609414 0.069934
C20   C     C_R   0.509149 0.128553 0.494008 -0.093642
C21   C     C_R   0.464997 0.057772 0.388187 -0.175733
C22   C     C_R   0.456150 0.929904 0.395915 -0.154407
C23   C     C_R   0.493645 0.737505 0.503978 0.768550
C24   C     C_R   0.483920 0.872261 0.514770 -0.108385
C25   C     C_R   0.627096 0.653265 0.147499 -0.073535
C26   C     C_R   0.693289 0.721119 0.077455 -0.155595
C27   C     C_R   0.691731 0.723094 0.934326 -0.220029
C28   C     C_R   0.624819 0.655768 0.860936 -0.131706
C29   C     C_R   0.561758 0.576029 0.927627 0.164259
C30   C     C_R   0.562230 0.575398 0.076733 0.189613
C31   C     C_R   0.441628 0.426623 0.071503 -0.107892
C32   C     C_R   0.441579 0.425926 0.923345 0.277619
C33   C     C_R   0.670953 0.502709 0.500246 0.777319
C34   C     C_R   0.818322 0.610587 0.448656 0.120799
C35   C     C_R   0.767813 0.509164 0.502324 -0.083316
C36   C     C_R   0.809616 0.412790 0.563129 -0.249818
C37   C     C_R   0.902496 0.411987 0.567520 0.103558
C38   C     C_R   0.953742 0.506861 0.501737 -0.031786
Cu1   Cu    Cu3+1 0.499990 0.499990 0.640660 0.964684
Cu2   Cu    Cu3+1 0.500010 0.500010 0.359340 0.949655
H1    H     H_    0.634625 0.221444 0.680758 0.150212
H2    H     H_    0.426890 0.875665 0.308993 0.175155
H3    H     H_    0.393987 0.366463 0.124997 0.135467
H4    H     H_    0.627739 0.668122 0.256623 0.204034
H5    H     H_    0.742949 0.778394 0.134942 0.176913
H6    H     H_    0.740192 0.781559 0.880105 0.154603
H7    H     H_    0.624003 0.671875 0.752758 0.195910
H8    H     H_    0.768752 0.338364 0.607150 0.163616
H9    H     H_    0.071324 0.247338 0.688509 0.140661
H10   H     H_    0.215278 0.340714 0.625266 0.142829
H11   H     H_    0.233381 0.661065 0.376345 0.165366
H12   H     H_    0.932250 0.768585 0.318607 0.165325
H13   H     H_    0.437820 0.101104 0.299280 0.157148
N1    N     N_R   0.500860 0.501210 0.147910 -0.205579
N2    N     N_R   0.500890 0.501290 0.852040 -0.189161
O1    O     O_R   0.499990 0.319640 0.618810 -0.557013
O2    O     O_R   0.500000 0.319660 0.381240 -0.576596
O3    O     O_R   0.370250 0.499960 0.618800 -0.537554
O4    O     O_R   0.370260 0.499980 0.381230 -0.586324
O5    O     O_R   0.500000 0.680340 0.618760 -0.600514
O6    O     O_R   0.500010 0.680360 0.381190 -0.594469
O7    O     O_R   0.629740 0.500020 0.618770 -0.609266
O8    O     O_R   0.629750 0.500040 0.381200 -0.579091
N3    N     N_3   0.777015 0.721873 0.410823 -0.618588
H14   H     H_    0.711472 0.722591 0.446992 0.192668
H15   H     H_    0.808971 0.796305 0.466735 0.216578
C39   C     C_1   0.669862 0.159579 0.934726 0.238543
N4    N     N_1   0.715060 0.217029 0.013243 -0.280520
C40   C     C_1   0.561983 0.948031 0.018558 0.244369
N5    N     N_1   0.561674 0.922915 0.134047 -0.294243
C41   C     C_1   0.441940 0.824595 0.821361 0.283702
N6    N     N_1   0.385789 0.756586 0.860053 -0.279990
N7    N     N_3   0.379068 0.344988 0.847829 -0.526003
H16   H     H_    0.389318 0.254141 0.874826 0.193732
H17   H     H_    0.314896 0.365938 0.880186 0.192651
N8    N     N_3   0.893356 0.221287 0.702605 -0.598752
H18   H     H_    0.865073 0.261497 0.791691 0.229391
H19   H     H_    0.934523 0.153737 0.736604 0.219315
N9    N     N_3   0.108491 0.784522 0.290555 -0.598343
H20   H     H_    0.132826 0.741821 0.199882 0.219789
H21   H     H_    0.068180 0.853978 0.258886 0.219868

loop_
_geom_bond_atom_site_label_1
_geom_bond_atom_site_label_2
_ccdc_geom_bond_type
C8    C9    A    
C28   H7    S    
N7    H16   S    
C19   C20   A    
C7    C8    A    
C30   N1    A    
C26   C27   A    
C29   C30   A    
Cu2   O8    S    
C31   H3    S    
C18   C24   A    
C28   C29   A    
C1    O1    A    
N8    H19   S    
C34   C35   A    
C5    C6    A    
C15   C16   A    
C18   C19   A    
C26   H5    S    
C13   H11   S    
C12   O4    A    
Cu1   N2    S    
C31   C32   A    
C16   C17   A    
C8    N9    S    
C23   C24   S    
C6    C38   A    
C32   N2    A    
C12   O3    A    
C2    C34   A    
Cu2   O4    S    
C21   C22   A    
N7    H17   S    
C9    H12   S    
C25   H4    S    
C23   O5    A    
C39   N4    T    
N8    H18   S    
Cu1   Cu2   S    
N9    H21   S    
C33   O7    A    
C29   N2    A    
C25   C26   A    
Cu1   O3    S    
Cu2   O6    S    
C35   C36   A    
N3    H15   S    
C37   C38   A    
C1    O2    A    
C2    C38   A    
Cu1   O1    S    
C7    C13   A    
C33   O8    A    
C15   C39   S    
C34   N3    S    
C17   C18   A    
C3    N8    S    
C14   H1    S    
C27   H6    S    
C17   C41   S    
Cu2   N1    S    
C22   C24   A    
C3    C4    A    
C10   H10   S    
C32   N7    S    
C25   C30   A    
Cu1   O7    S    
C36   C37   A    
C1    C20   S    
Cu2   O2    S    
C14   C19   A    
C16   C40   S    
C4    C5    A    
C11   C12   S    
C6    C7    A    
C4    H9    S    
N3    H14   S    
C5    C10   A    
C21   H13   S    
C11   C13   A    
C22   H2    S    
Cu1   O5    S    
C33   C35   S    
C36   H8    S    
C31   N1    A    
C40   N5    T    
C10   C11   A    
N9    H20   S    
C23   O6    A    
C41   N6    T    
C20   C21   A    
C3    C37   A    
C27   C28   A    
C14   C15   A    
C2    C9    A    
