data_mof_unit_52085.cif
_audit_creation_date              2012-12-11T14:07:46-0500
_audit_creation_method            fapswitch 2.2
_symmetry_space_group_name_H-M    P1
_symmetry_Int_Tables_number       1
_space_group_crystal_system       triclinic
_cell_length_a                    19.64135
_cell_length_b                    17.027723
_cell_length_c                    15.381946
_cell_angle_alpha                 90.190808
_cell_angle_beta                  53.597347
_cell_angle_gamma                 90.069916
_cell_volume                      4140.57206537

loop_
_atom_site_label
_atom_site_type_symbol
_atom_type_description
_atom_site_fract_x
_atom_site_fract_y
_atom_site_fract_z
_atom_type_partial_charge
C1    C     C_R   0.340344 0.175524 0.050361 -0.132982
C2    C     C_R   0.646179 0.815079 0.079446 0.112245
C3    C     C_R   0.214462 0.642843 0.974920 0.087446
C4    C     C_R   0.146438 0.315102 0.079059 0.109206
C5    C     C_R   0.689752 0.859630 0.679436 0.025846
C6    C     C_R   0.613941 0.181616 0.694240 0.027235
C7    C     C_R   0.191748 0.361823 0.678621 0.035645
C8    C     C_R   0.114024 0.681636 0.694255 0.022068
C9    C     C_3   0.250314 0.212597 0.462901 -0.452067
C10   C     C_3   0.188988 0.862058 0.512352 -0.446869
C11   C     C_3   0.822823 0.686952 0.499523 -0.453561
C12   C     C_R   0.376896 0.801291 0.994068 -0.155996
C13   C     C_3   0.688753 0.361970 0.512219 -0.439652
C14   C     C_3   0.196110 0.259216 0.567353 -0.432725
C15   C     C_3   0.132588 0.814102 0.616867 -0.434544
C16   C     C_3   0.771125 0.735572 0.602222 -0.463638
C17   C     C_3   0.632354 0.314028 0.616752 -0.432507
C18   C     C_3   0.373809 0.220902 0.474769 0.015364
C19   C     C_3   0.314798 0.773933 0.452577 0.072096
C20   C     C_3   0.894204 0.810328 0.394250 0.012908
C21   C     C_3   0.814724 0.274186 0.452855 0.073463
C22   C     C_3   0.761738 0.759822 0.417487 -0.407349
C23   C     C_R   0.840368 0.675563 0.050279 -0.131410
C24   C     C_3   0.716320 0.240907 0.401652 -0.377542
C25   C     C_3   0.355005 0.324205 0.372794 -0.379114
C26   C     C_3   0.215927 0.741126 0.401844 -0.397591
C27   C     C_3   0.344758 0.235449 0.400812 0.294160
C28   C     C_3   0.259362 0.808768 0.419668 0.282342
C29   C     C_3   0.845060 0.735641 0.400012 0.302215
C30   C     C_3   0.759387 0.308776 0.419682 0.261506
C31   C     C_3   0.749154 0.816244 0.578073 0.347170
C32   C     C_3   0.664571 0.228079 0.595674 0.296130
C33   C     C_3   0.251317 0.318169 0.577456 0.331817
C34   C     C_R   0.876897 0.301290 0.994098 -0.147936
C35   C     C_3   0.164648 0.728091 0.595696 0.313499
C36   C     C_3   0.833748 0.861804 0.498135 -0.183759
C37   C     C_3   0.758058 0.228114 0.559045 -0.155940
C38   C     C_3   0.318499 0.271338 0.579986 -0.172880
C39   C     C_3   0.258182 0.727944 0.558849 -0.156045
C40   C     C_R   0.352330 0.825865 0.218055 -0.063074
C41   C     C_R   0.398464 0.199282 0.209197 -0.138750
C42   C     C_R   0.852351 0.325855 0.218079 -0.061871
C43   C     C_R   0.899413 0.699260 0.208614 -0.110271
C44   C     C_3   0.702710 0.799974 0.525810 -0.389601
C45   C     C_R   0.630557 0.894198 0.108887 -0.153775
C46   C     C_3   0.659231 0.194473 0.505427 -0.390271
C47   C     C_3   0.297347 0.372797 0.476474 -0.405686
C48   C     C_3   0.159098 0.694580 0.505577 -0.406413
C49   C     C_2   0.295024 0.676097 0.943818 0.014457
C50   C     C_2   0.181475 0.256473 0.111823 0.046344
C51   C     C_2   0.794976 0.176084 0.943981 0.015758
C52   C     C_2   0.681360 0.756458 0.112035 0.047422
C53   C     C_2   0.819172 0.246869 0.895713 -0.200292
C54   C     C_2   0.709621 0.688302 0.056426 -0.182979
C55   C     C_2   0.319135 0.746930 0.895680 -0.200286
C56   C     C_R   0.671732 0.079818 0.045924 -0.108844
C57   C     C_2   0.209596 0.188232 0.056454 -0.170853
C58   C     C_R   0.373129 0.883918 0.888659 0.036182
C59   C     C_R   0.328153 0.088315 0.954942 0.034942
C60   C     C_R   0.873131 0.383895 0.888668 0.031995
C61   C     C_R   0.828156 0.588328 0.954929 0.034129
C62   C     C_R   0.406237 0.106965 0.304490 -0.130100
C63   C     C_R   0.361303 0.917839 0.315605 -0.123097
C64   C     C_R   0.909888 0.607532 0.301937 -0.159926
C65   C     C_R   0.861255 0.417960 0.315595 -0.122353
C66   C     C_R   0.285553 0.148929 0.029236 0.098022
C67   C     C_R   0.130639 0.394180 0.108759 -0.150702
C68   C     C_R   0.354533 0.807594 0.925491 0.138715
C69   C     C_R   0.785569 0.648964 0.029195 0.097099
C70   C     C_R   0.854538 0.307569 0.925521 0.134555
C71   C     C_R   0.314248 0.854946 0.321396 0.014003
C72   C     C_R   0.389464 0.185089 0.303944 0.069979
C73   C     C_R   0.814268 0.354972 0.321415 0.017796
C74   C     C_R   0.891184 0.685296 0.302907 0.052214
C75   C     C_R   0.662261 0.175804 0.951512 -0.118645
C76   C     C_R   0.620600 0.799547 0.015044 -0.124384
C77   C     C_R   0.162242 0.675825 0.951515 -0.097333
C78   C     C_R   0.171784 0.579790 0.045806 -0.144054
C79   C     C_R   0.120951 0.299600 0.014535 -0.119711
C80   C     C_R   0.649772 0.828411 0.782236 -0.151536
C81   C     C_R   0.603815 0.198022 0.789226 -0.162424
C82   C     C_R   0.150394 0.328622 0.780936 -0.135344
C83   C     C_R   0.103900 0.698018 0.789230 -0.164169
C84   C     C_R   0.592364 0.104749 0.696642 -0.168087
C85   C     C_R   0.642047 0.922385 0.686058 -0.129241
C86   C     C_R   0.092366 0.604797 0.696665 -0.167360
C87   C     C_R   0.141505 0.422269 0.685625 -0.149463
C88   C     C_R   0.714434 0.142844 0.975015 0.088640
H1    H     H_    0.334187 0.225642 0.097026 0.113086
H2    H     H_    0.565614 0.315664 0.644309 0.177614
H3    H     H_    0.145870 0.290675 0.568471 0.177848
H4    H     H_    0.065820 0.815883 0.644565 0.174074
H5    H     H_    0.163637 0.217805 0.636849 0.161517
H6    H     H_    0.134199 0.841510 0.681347 0.153099
H7    H     H_    0.807147 0.743962 0.636488 0.156730
H8    H     H_    0.633823 0.341533 0.681292 0.149777
H9    H     H_    0.360923 0.158585 0.501256 0.090570
H10   H     H_    0.342847 0.823557 0.468795 0.086929
H11   H     H_    0.946549 0.789556 0.397142 0.110580
H12   H     H_    0.385187 0.748197 0.024363 0.116231
H13   H     H_    0.842540 0.323921 0.469247 0.084076
H14   H     H_    0.864794 0.870592 0.538977 0.121006
H15   H     H_    0.759161 0.260623 0.621332 0.104795
H16   H     H_    0.284633 0.229286 0.648589 0.104022
H17   H     H_    0.259443 0.760471 0.621006 0.104701
H18   H     H_    0.775310 0.800774 0.352697 0.171775
H19   H     H_    0.764043 0.199618 0.338330 0.181296
H20   H     H_    0.421927 0.342701 0.330476 0.196231
H21   H     H_    0.263464 0.699853 0.338286 0.178183
H22   H     H_    0.729128 0.707539 0.414161 0.170471
H23   H     H_    0.834233 0.725773 0.096754 0.114520
H24   H     H_    0.678707 0.264649 0.375023 0.197759
H25   H     H_    0.336890 0.337186 0.318259 0.146054
H26   H     H_    0.177969 0.765007 0.375726 0.162786
H27   H     H_    0.646551 0.761942 0.580075 0.170922
H28   H     H_    0.592794 0.197500 0.531947 0.187989
H29   H     H_    0.250903 0.403276 0.469370 0.151734
H30   H     H_    0.092593 0.697529 0.532332 0.158580
H31   H     H_    0.678757 0.854294 0.512664 0.148691
H32   H     H_    0.678826 0.131954 0.486842 0.151032
H33   H     H_    0.334185 0.419232 0.482462 0.166525
H34   H     H_    0.885215 0.248213 0.024394 0.117641
H35   H     H_    0.178791 0.632088 0.486836 0.147478
H36   H     H_    0.335139 0.774790 0.193755 0.091633
H37   H     H_    0.397444 0.255615 0.178025 0.085108
H38   H     H_    0.835162 0.274761 0.193803 0.096963
H39   H     H_    0.894632 0.755069 0.179612 0.125153
H40   H     H_    0.793712 0.269434 0.854760 0.110998
H41   H     H_    0.690337 0.669624 0.006884 0.105061
H42   H     H_    0.293592 0.769551 0.854855 0.113142
H43   H     H_    0.190238 0.169475 0.007020 0.106472
H44   H     H_    0.411416 0.076489 0.361780 0.104700
H45   H     H_    0.228148 0.224096 0.412121 0.183678
H46   H     H_    0.352828 0.951209 0.381212 0.083677
H47   H     H_    0.917990 0.577022 0.356726 0.090785
H48   H     H_    0.852667 0.451631 0.381099 0.084139
H49   H     H_    0.674200 0.225286 0.900772 0.086257
H50   H     H_    0.610545 0.743109 0.992203 0.095084
H51   H     H_    0.174134 0.725339 0.900846 0.088866
H52   H     H_    0.111224 0.243214 0.991219 0.097074
H53   H     H_    0.668572 0.778894 0.807169 0.096241
H54   H     H_    0.609589 0.254467 0.816616 0.087651
H55   H     H_    0.168841 0.277589 0.803860 0.090474
H56   H     H_    0.149642 0.887509 0.489253 0.183233
H57   H     H_    0.109677 0.754448 0.816646 0.095309
H58   H     H_    0.583498 0.074492 0.642219 0.094022
H59   H     H_    0.653260 0.958255 0.621080 0.097798
H60   H     H_    0.083353 0.574660 0.642311 0.088331
H61   H     H_    0.151080 0.457819 0.621477 0.090494
H62   H     H_    0.632794 0.921595 0.170673 0.097244
H63   H     H_    0.694256 0.043603 0.081500 0.094375
H64   H     H_    0.132806 0.421508 0.170636 0.088515
H65   H     H_    0.194364 0.543539 0.081283 0.093746
H66   H     H_    0.241261 0.148723 0.482312 0.161383
H67   H     H_    0.785586 0.633828 0.509472 0.176198
H68   H     H_    0.217016 0.911883 0.528040 0.151422
H69   H     H_    0.881429 0.667097 0.488677 0.152357
H70   H     H_    0.716551 0.411975 0.527965 0.149557
H71   H     H_    0.871779 0.974178 0.438030 0.171678
H72   H     H_    0.800332 0.935525 0.421535 0.153083
H73   H     H_    0.765463 0.126902 0.627906 0.124790
H74   H     H_    0.777275 0.110459 0.511165 0.145425
H75   H     H_    0.402893 0.290006 0.616097 0.138331
H76   H     H_    0.409202 0.358013 0.531554 0.163130
H77   H     H_    0.265638 0.626847 0.627832 0.123441
H78   H     H_    0.649439 0.387144 0.488905 0.189092
H79   H     H_    0.277076 0.610108 0.511376 0.142202
H80   H     H_    0.301744 0.630758 0.060103 0.092404
H81   H     H_    0.356898 0.580744 0.941873 0.105054
H82   H     H_    0.228648 0.326693 0.170815 0.072007
H83   H     H_    0.132854 0.287638 0.265010 0.133618
H84   H     H_    0.801478 0.130913 0.060522 0.107258
H85   H     H_    0.856695 0.080740 0.942415 0.106085
H86   H     H_    0.728513 0.826669 0.171084 0.081990
H87   H     H_    0.632802 0.787470 0.265267 0.135609
H88   H     H_    0.427385 0.958300 0.761007 0.115414
H89   H     H_    0.712788 0.701687 0.661674 0.170941
H90   H     H_    0.335653 0.916446 0.797270 0.097061
H91   H     H_    0.292417 0.088328 0.856546 0.083785
H92   H     H_    0.241000 0.023145 0.959108 0.123677
H93   H     H_    0.927351 0.458273 0.761022 0.113477
H94   H     H_    0.835621 0.416399 0.797310 0.091952
H95   H     H_    0.792401 0.588313 0.856549 0.081379
H96   H     H_    0.740991 0.523149 0.959137 0.109100
I1    I     I_    0.510281 0.230184 0.387084 -0.573774
I2    I     I_    0.426534 0.709321 0.323852 -0.510021
I3    I     I_    0.964882 0.874303 0.242562 -0.517529
I4    I     I_    0.926690 0.209690 0.324278 -0.487480
N1    N     N_R   0.408680 0.130160 0.995800 -0.054034
N2    N     N_R   0.403730 0.078230 0.935950 -0.050253
N3    N     N_R   0.903730 0.421770 0.935950 -0.055209
N4    N     N_R   0.903730 0.578230 0.935950 -0.050933
N5    N     N_R   0.426630 0.075970 0.212960 -0.038427
N6    N     N_R   0.426630 0.924030 0.212960 -0.031691
N7    N     N_R   0.926630 0.575970 0.212960 -0.036598
N8    N     N_R   0.926630 0.424030 0.212960 -0.032380
N9    N     N_R   0.591320 0.134600 0.004200 -0.041354
N10   N     N_R   0.591320 0.865400 0.004200 -0.042989
N11   N     N_R   0.091320 0.634600 0.004200 -0.039187
N12   N     N_R   0.408680 0.869840 0.995800 -0.056064
N13   N     N_R   0.091320 0.365400 0.004200 -0.042420
N14   N     N_R   0.578320 0.867660 0.846880 -0.037307
N15   N     N_R   0.578320 0.132340 0.846880 -0.035132
N16   N     N_R   0.078320 0.367660 0.846880 -0.039129
N17   N     N_R   0.078320 0.632340 0.846880 -0.035157
N18   N     N_R   0.573370 0.074390 0.787040 -0.035215
N19   N     N_R   0.573370 0.925610 0.787040 -0.041794
N20   N     N_R   0.073370 0.574390 0.787040 -0.034305
N21   N     N_R   0.073370 0.425610 0.787040 -0.038795
N22   N     N_R   0.596270 0.927870 0.064040 -0.041316
N23   N     N_R   0.908680 0.630160 0.995800 -0.054095
N24   N     N_R   0.596270 0.072130 0.064040 -0.037084
N25   N     N_R   0.096270 0.427870 0.064040 -0.039168
N26   N     N_R   0.096270 0.572130 0.064040 -0.039199
N27   N     N_3   0.817159 0.939893 0.474316 -0.223621
N28   N     N_3   0.791816 0.149094 0.550743 -0.180677
N29   N     N_3   0.367417 0.323896 0.599624 -0.213062
N30   N     N_3   0.291832 0.648871 0.550626 -0.179877
N31   N     N_3   0.341347 0.636943 0.976099 -0.214379
N32   N     N_3   0.192517 0.275432 0.193730 -0.209894
N33   N     N_3   0.841164 0.136983 0.976501 -0.213351
N34   N     N_R   0.908680 0.369840 0.995800 -0.057307
N35   N     N_3   0.692457 0.775363 0.193914 -0.210563
N36   N     N_3   0.392633 0.906106 0.786486 -0.221866
N37   N     N_3   0.300203 0.047397 0.900486 -0.229708
N38   N     N_3   0.892612 0.406072 0.786505 -0.222122
N39   N     N_3   0.800196 0.547393 0.900496 -0.229905
N40   N     N_R   0.421680 0.867580 0.153120 -0.033910
N41   N     N_R   0.421680 0.132420 0.153120 -0.038673
N42   N     N_R   0.921680 0.367580 0.153120 -0.034846
N43   N     N_R   0.921680 0.632420 0.153120 -0.042011
N44   N     N_R   0.403730 0.921770 0.935950 -0.055079
Ni1   Ni    Ni4+2 0.500000 0.131190 0.000000 0.209816
Ni2   Ni    Ni4+2 0.500000 0.868810 0.000000 0.216797
Ni3   Ni    Ni4+2 0.000000 0.631190 0.000000 0.221938
Ni4   Ni    Ni4+2 1.000000 0.368810 0.000000 0.219714
Ni5   Ni    Ni4+2 0.488650 0.000000 0.862740 0.204884
Ni6   Ni    Ni4+2 0.988650 0.500000 0.862740 0.203046
Ni7   Ni    Ni4+2 0.511350 0.000000 0.137260 0.231215
Ni8   Ni    Ni4+2 0.011350 0.500000 0.137260 0.216425

loop_
_geom_bond_atom_site_label_1
_geom_bond_atom_site_label_2
_ccdc_geom_bond_type
H76   N29   S    
C6    C32   S    
H91   N37   S    
C40   C71   A    
C8    C83   A    
C87   N21   A    
C23   C69   A    
C39   N30   S    
C35   C39   S    
C24   H24   S    
N5    N41   A    
C57   C66   S    
N25   Ni8   S    
H85   N33   S    
C78   N26   A    
C48   H35   S    
C55   C68   S    
C3    C49   S    
C81   N15   A    
H74   N28   S    
C16   C31   S    
C12   C68   A    
N34   Ni4   S    
C61   N39   S    
C22   C44   S    
C49   N31   S    
C11   H69   S    
C19   C39   S    
C76   H50   S    
C22   C29   S    
N12   Ni2   S    
N15   Ni1   S    
N11   Ni3   S    
C10   C15   S    
C59   C66   A    
C43   N43   A    
C56   C88   A    
C53   C70   S    
C61   C69   A    
N11   N26   A    
C64   N7    A    
H92   N37   S    
C65   C73   A    
C36   H14   S    
C45   H62   S    
N6    N40   A    
N5    Ni7   S    
C38   H16   S    
H84   N33   S    
N3    Ni6   S    
C15   H4    S    
C83   H57   S    
C80   N14   A    
C44   H27   S    
C79   N13   A    
C62   H44   S    
N16   N21   A    
N7    N43   A    
C61   N4    A    
N42   Ni4   S    
C18   H9    S    
N6    Ni7   S    
N1    Ni1   S    
C25   C47   S    
C14   H5    S    
N40   Ni2   S    
H83   N32   S    
C11   H67   S    
C65   N8    A    
C21   H13   S    
C43   C74   A    
C79   H52   S    
C64   H47   S    
H87   N35   S    
C34   H34   S    
C6    C81   A    
N41   Ni1   S    
C7    C33   S    
C38   N29   S    
H90   N36   S    
N2    Ni5   S    
C14   C33   S    
N10   N22   A    
C35   C48   S    
C15   C35   S    
C17   H8    S    
C19   H10   S    
C52   C54   D    
H82   N32   S    
C20   C29   S    
C75   N9    A    
C2    C45   A    
C40   H36   S    
N15   N18   A    
C7    C87   A    
C83   N17   A    
C6    C84   A    
C31   C44   S    
C17   H2    S    
C62   C72   A    
C65   H48   S    
C63   H46   S    
C41   H37   S    
C13   C30   S    
N17   Ni3   S    
H71   N27   S    
N21   Ni6   S    
C4    C79   A    
N10   Ni2   S    
C10   H68   S    
C17   C32   S    
C37   H15   S    
C30   C73   S    
C58   N36   S    
H94   N38   S    
N13   Ni4   S    
C48   H30   S    
C29   C74   S    
C44   H31   S    
C22   H22   S    
C22   H18   S    
H72   N27   S    
C12   H12   S    
C4    C50   S    
C56   H63   S    
C8    C35   S    
C40   N40   A    
N26   Ni8   S    
C9    C14   S    
C26   H26   S    
C85   N19   A    
C86   N20   A    
C53   H40   S    
C25   H25   S    
N14   Ni2   S    
C11   C16   S    
N7    Ni8   S    
N4    Ni6   S    
C26   H21   S    
C60   C70   A    
N8    N42   A    
C55   H42   S    
C49   C55   D    
C7    C82   A    
C1    C66   A    
C12   N12   A    
C63   N6    A    
C46   H32   S    
C24   H19   S    
C10   H56   S    
C32   C37   S    
C5    C80   A    
C19   C28   S    
C77   N11   A    
N3    N34   A    
N13   N25   A    
C2    C52   S    
H77   N30   S    
C41   C72   A    
C42   N42   A    
C58   C68   A    
N4    N23   A    
H81   N31   S    
H73   N28   S    
C63   C71   A    
C9    H66   S    
C84   H58   S    
N14   N19   A    
C75   H49   S    
N44   Ni5   S    
C33   C47   S    
C67   N25   A    
C28   C71   S    
H95   N39   S    
C3    C77   A    
H75   N29   S    
C13   H70   S    
C2    C76   A    
C16   H89   S    
C9    C27   S    
C21   I4    S    
N8    Ni8   S    
N17   N20   A    
C10   C28   S    
C39   H17   S    
C54   H41   S    
C34   C70   A    
C81   H54   S    
C16   H7    S    
C1    H1    S    
H88   N36   S    
C67   H64   S    
C50   C57   D    
C32   C46   S    
C57   H43   S    
C37   N28   S    
C9    H45   S    
C18   C27   S    
C77   H51   S    
C41   N41   A    
C82   H55   S    
C59   N2    A    
C86   H60   S    
C51   C88   S    
C4    C67   A    
C78   H65   S    
C56   N24   A    
C26   C48   S    
H93   N38   S    
C25   C27   S    
C23   H23   S    
C21   C30   S    
C18   I1    S    
C26   C28   S    
C45   N22   A    
H96   N39   S    
C46   H28   S    
C24   C46   S    
N22   Ni7   S    
C85   H59   S    
C18   C38   S    
C5    C85   A    
C36   N27   S    
N9    N24   A    
C76   N10   A    
C20   I3    S    
C82   N16   A    
C3    C78   A    
C8    C86   A    
N9    Ni1   S    
C13   H78   S    
H86   N35   S    
C20   H11   S    
C23   N23   A    
C51   N33   S    
C60   N3    A    
C19   I2    S    
C50   N32   S    
C42   C73   A    
N23   Ni3   S    
N18   Ni5   S    
C60   N38   S    
H80   N31   S    
N20   Ni6   S    
N1    N2    A    
C59   N37   S    
C24   C30   S    
C14   H3    S    
C54   C69   S    
N24   Ni7   S    
C58   N44   A    
C42   H38   S    
C47   H33   S    
C13   C17   S    
C20   C36   S    
C84   N18   A    
C75   C88   A    
C47   H29   S    
C15   H6    S    
C21   C37   S    
C11   C29   S    
C52   N35   S    
N16   Ni4   S    
C80   H53   S    
C87   H61   S    
H79   N30   S    
C64   C74   A    
C31   C36   S    
C33   C38   S    
N43   Ni3   S    
N12   N44   A    
C62   N5    A    
C51   C53   D    
N19   Ni5   S    
C27   C72   S    
C34   N34   A    
C25   H20   S    
C43   H39   S    
C5    C31   S    
C1    N1    A    
