data_mof_unit_36871.cif
_audit_creation_date              2012-12-11T15:41:20-0500
_audit_creation_method            fapswitch 2.2
_symmetry_space_group_name_H-M    P1
_symmetry_Int_Tables_number       1
_space_group_crystal_system       triclinic
_cell_length_a                    14.87021
_cell_length_b                    14.894621
_cell_length_c                    15.124639
_cell_angle_alpha                 109.442673
_cell_angle_beta                  109.924331
_cell_angle_gamma                 108.931186
_cell_volume                      2582.27544889

loop_
_atom_site_label
_atom_site_type_symbol
_atom_type_description
_atom_site_fract_x
_atom_site_fract_y
_atom_site_fract_z
_atom_type_partial_charge
C1    C     C_R   0.194174 0.994168 0.904888 -0.138336
C2    C     C_R   0.888682 0.863785 0.291848 0.075817
C3    C     C_R   0.253890 0.285807 0.857712 -0.014465
C4    C     C_R   0.785807 0.795908 0.278757 -0.025634
C5    C     C_R   0.282001 0.338912 0.968588 -0.159769
C6    C     C_R   0.716811 0.688163 0.186923 -0.130552
C7    C     C_R   0.199850 0.307740 0.996761 0.512162
C8    C     C_R   0.758152 0.644993 0.121500 0.491260
C9    C     C_R   0.091843 0.229453 0.914985 -0.381748
C10   C     C_R   0.867606 0.704006 0.152589 -0.395222
C11   C     C_R   0.064683 0.172304 0.806594 0.446358
C12   C     C_R   0.749600 0.934304 0.027766 -0.124596
C13   C     C_R   0.934299 0.812505 0.237443 0.463052
C14   C     C_R   0.405715 0.534323 0.069753 -0.212508
C15   C     C_R   0.591007 0.522005 0.168497 -0.237250
C16   C     C_R   0.802386 0.210225 0.300702 -0.078812
C17   C     C_R   0.251577 0.776633 0.686939 -0.117145
C18   C     C_R   0.507883 0.619509 0.104078 0.029335
C19   C     C_R   0.490196 0.424967 0.097574 0.042836
C20   C     C_R   0.604100 0.615497 0.160328 0.075909
C21   C     C_R   0.393969 0.432863 0.052523 0.059098
C22   C     C_R   0.036197 0.477606 0.383565 -0.149246
C23   C     C_R   0.864314 0.305269 0.305377 0.033785
C24   C     C_R   0.117286 0.473239 0.576981 -0.160652
C25   C     C_R   0.129660 0.569039 0.476169 -0.158027
C26   C     C_R   0.023012 0.383473 0.485883 -0.158948
C27   C     C_R   0.163724 0.570420 0.575538 0.140601
C28   C     C_R   0.977456 0.387708 0.390521 0.135542
C29   C     C_R   0.558823 0.149626 0.606871 -0.452960
C30   C     C_R   0.433849 0.951444 0.410503 -0.454936
C31   C     C_R   0.556301 0.149960 0.514182 0.608288
C32   C     C_R   0.437246 0.950640 0.502188 0.553912
C33   C     C_R   0.492888 0.049990 0.416860 0.045891
C34   C     C_R   0.226293 0.674160 0.677095 0.024179
C35   C     C_R   0.499180 0.050611 0.599442 -0.002096
C36   C     C_R   0.967969 0.843305 0.948603 -0.151433
C37   C     C_R   0.866442 0.933504 0.842432 -0.157387
C38   C     C_R   0.876137 0.844627 0.950541 -0.155471
C39   C     C_R   0.959029 0.933315 0.841624 -0.162285
C40   C     C_R   0.406384 0.972200 0.219882 -0.276394
C41   C     C_R   0.592295 0.086275 0.788036 -0.221564
C42   C     C_R   0.833346 0.901482 0.908202 0.134350
C43   C     C_R   0.016380 0.898091 0.903593 0.128652
C44   C     C_R   0.589021 0.313933 0.066061 -0.082763
C45   C     C_R   0.497341 0.042191 0.322444 0.089667
C46   C     C_R   0.411837 0.699951 0.003894 -0.125418
C47   C     C_R   0.590125 0.057605 0.314006 0.531760
C48   C     C_R   0.409279 0.997880 0.698443 0.578426
C49   C     C_R   0.406228 0.218821 0.980034 -0.121600
C50   C     C_R   0.593777 0.790737 0.090737 -0.177032
C51   C     C_R   0.802259 0.302330 0.211337 -0.137660
C52   C     C_R   0.252779 0.685914 0.779191 -0.115281
C53   C     C_R   0.196862 0.904969 0.996903 -0.110971
C54   C     C_R   0.749491 0.025239 0.935875 -0.101773
C55   C     C_R   0.131587 0.932867 0.935150 0.047932
C56   C     C_R   0.500720 0.049258 0.693123 -0.011056
C57   C     C_R   0.774988 0.947681 0.951332 0.042319
C58   C     C_3   0.132338 0.110505 0.673595 -0.390139
C59   C     C_3   0.038800 0.991595 0.616367 -0.223006
C60   C     C_3   0.055567 0.909956 0.539710 -0.889416
C61   C     C_3   0.938799 0.988673 0.351762 -0.447602
C62   C     C_3   0.036164 0.056465 0.344123 -0.143332
C63   C     C_3   0.064617 0.175897 0.389810 -0.988981
C64   C     C_3   0.333026 0.333220 0.821609 -0.335427
C65   C     C_3   0.296969 0.396927 0.769339 -0.282082
C66   C     C_3   0.380578 0.455167 0.742925 -0.879067
C67   C     C_R   0.494779 0.322747 0.053680 0.054336
C68   C     C_3   0.741897 0.841329 0.350722 -0.383782
C69   C     C_3   0.731538 0.787701 0.420408 -0.256505
C70   C     C_3   0.694292 0.840206 0.495709 -0.856958
C71   C     C_R   0.505512 0.697658 0.064316 0.075886
C72   C     C_R   0.148915 0.191079 0.780061 0.068812
H1    H     H_    0.165274 0.017971 0.845676 0.091640
H2    H     H_    0.982055 0.315184 0.494609 0.130269
H3    H     H_    0.606279 0.225289 0.683926 0.165449
H4    H     H_    0.389008 0.874474 0.335009 0.156672
H5    H     H_    0.005968 0.809130 0.992043 0.108998
H6    H     H_    0.829115 0.969686 0.801390 0.113107
H7    H     H_    0.832810 0.177318 0.349799 0.104043
H8    H     H_    0.239550 0.796810 0.623367 0.165893
H9    H     H_    0.847535 0.811637 0.995461 0.118367
H10   H     H_    0.990789 0.970666 0.801591 0.132039
H11   H     H_    0.321050 0.936343 0.198712 0.148404
H12   H     H_    0.761295 0.882684 0.060943 0.095263
H13   H     H_    0.676666 0.140452 0.814717 0.135824
H14   H     H_    0.673738 0.378231 0.117237 0.116045
H15   H     H_    0.327899 0.649151 0.980336 0.080420
H16   H     H_    0.322100 0.191072 0.958498 0.118765
H17   H     H_    0.678458 0.826161 0.145715 0.111362
H18   H     H_    0.830293 0.355564 0.181159 0.098762
H19   H     H_    0.243940 0.623802 0.802218 0.093535
H20   H     H_    0.170998 0.844715 0.020577 0.082367
H21   H     H_    0.761559 0.057633 0.884444 0.091030
H22   H     H_    0.090258 0.944239 0.496601 0.293728
H23   H     H_    0.028365 0.211625 0.936618 0.169924
H24   H     H_    0.111397 0.887998 0.586499 0.295178
H25   H     H_    0.976512 0.833233 0.478680 0.238829
H26   H     H_    0.034005 0.966404 0.676131 0.201637
H27   H     H_    0.959199 0.985430 0.569795 0.239937
H28   H     H_    0.121414 0.143091 0.616903 0.174772
H29   H     H_    0.208676 0.104949 0.692876 0.215031
H30   H     H_    0.995796 0.182367 0.338693 0.269018
H31   H     H_    0.081524 0.211186 0.474704 0.261559
H32   H     H_    0.139157 0.223482 0.389183 0.275758
H33   H     H_    0.110494 0.054951 0.392587 0.240083
H34   H     H_    0.899758 0.666045 0.106506 0.168303
H35   H     H_    0.015580 0.023229 0.257970 0.224928
H36   H     H_    0.872101 0.006517 0.317161 0.171571
H37   H     H_    0.965460 0.019275 0.438357 0.200277
H38   H     H_    0.461464 0.515241 0.818290 0.263461
H39   H     H_    0.390396 0.394796 0.685610 0.265596
H40   H     H_    0.351641 0.499812 0.704726 0.253106
H41   H     H_    0.216018 0.340177 0.693413 0.194736
H42   H     H_    0.288004 0.459183 0.825692 0.198813
H43   H     H_    0.418312 0.389198 0.890385 0.195398
H44   H     H_    0.339196 0.269116 0.764653 0.175467
H45   H     H_    0.331115 0.537837 0.036062 0.130086
H46   H     H_    0.754376 0.928912 0.550920 0.286118
H47   H     H_    0.612320 0.829638 0.447597 0.265678
H48   H     H_    0.688234 0.800659 0.545630 0.250273
H49   H     H_    0.670800 0.699162 0.368738 0.213931
H50   H     H_    0.811516 0.796284 0.470274 0.201191
H51   H     H_    0.794675 0.930662 0.406194 0.189735
H52   H     H_    0.660175 0.829211 0.299764 0.192048
H53   H     H_    0.299705 0.400672 0.153584 0.323694
H54   H     H_    0.616933 0.522564 0.998352 0.314541
H55   H     H_    0.654791 0.307159 0.591446 0.317271
H56   H     H_    0.664380 0.519736 0.211772 0.137302
H57   H     H_    0.344329 0.791648 0.424805 0.316799
H58   H     H_    0.723444 0.051991 0.364129 0.282064
H59   H     H_    0.303881 0.998450 0.581125 0.318496
H60   H     H_    0.907886 0.103616 0.756949 0.310534
H61   H     H_    0.061187 0.820366 0.221294 0.313534
H62   H     H_    0.005999 0.481587 0.309846 0.117114
H63   H     H_    0.144587 0.469021 0.650645 0.109174
H64   H     H_    0.168137 0.641071 0.471184 0.135392
N1    N     N_R   0.293810 0.002730 0.945950 -0.039793
N2    N     N_R   0.443210 0.997250 0.791090 -0.080927
N3    N     N_R   0.443180 0.152110 0.945950 -0.049210
N4    N     N_R   0.556820 0.847890 0.054050 -0.040883
N5    N     N_R   0.706170 0.208950 0.152090 -0.041350
N6    N     N_R   0.293830 0.791050 0.847910 -0.042535
N7    N     N_R   0.293800 0.945910 0.002760 -0.034052
N8    N     N_R   0.706200 0.054090 0.997240 -0.038455
N9    N     N_R   0.706190 0.997270 0.054050 -0.044927
N10   N     N_R   0.706160 0.152130 0.208910 -0.051269
N11   N     N_R   0.293840 0.847870 0.791090 -0.039732
N12   N     N_R   0.443140 0.945920 0.152090 -0.063458
N13   N     N_R   0.556860 0.054080 0.847910 -0.068926
N14   N     N_R   0.556830 0.208940 0.002760 -0.049068
N15   N     N_R   0.443170 0.791060 0.997240 -0.035144
N16   N     N_R   0.556790 0.002750 0.208910 -0.118486
Ni1   Ni    Ni4+2 0.369690 0.999990 0.869700 0.245106
Ni2   Ni    Ni4+2 0.630310 0.000010 0.130300 0.190442
Ni3   Ni    Ni4+2 0.369670 0.869670 0.000000 0.207047
Ni4   Ni    Ni4+2 0.630330 0.130330 0.000000 0.217128
O1    O     O_3   0.219637 0.354994 0.101863 -0.741548
O2    O     O_3   0.695565 0.543489 0.028515 -0.756706
O3    O     O_3   0.614532 0.244950 0.516311 -0.738328
O4    O     O_3   0.384080 0.853757 0.499924 -0.770485
O5    O     O_3   0.690357 0.090398 0.397313 -0.748694
O6    O     O_3   0.304805 0.976934 0.636614 -0.812229
O7    O     O_3   0.956300 0.100578 0.725704 -0.786543
O8    O     O_3   0.043648 0.868396 0.267692 -0.790198

loop_
_geom_bond_atom_site_label_1
_geom_bond_atom_site_label_2
_ccdc_geom_bond_type
C54   N8    A    
C64   H44   S    
C59   H27   S    
C65   H42   S    
C14   C18   A    
C40   H11   S    
C24   C27   A    
C48   C56   A    
C61   H37   S    
C68   H52   S    
C62   H33   S    
C3    C64   S    
C15   C19   A    
C22   H62   S    
C14   C21   A    
C17   N11   A    
N13   Ni4   S    
C24   C26   A    
C38   C42   A    
C36   H5    S    
C51   H18   S    
H53   O1    S    
C41   N13   A    
N3    Ni1   S    
N2    Ni1   S    
C33   C45   S    
C12   H12   S    
C16   N10   A    
C45   C47   A    
C37   C42   A    
C61   H36   S    
C2    C13   A    
C54   H21   S    
C34   C52   A    
C25   H64   S    
N7    Ni3   S    
C70   H48   S    
C68   C69   S    
C22   C25   A    
C52   H19   S    
C31   C33   A    
C19   C67   S    
N12   Ni3   S    
N15   Ni3   S    
C66   H39   S    
C9    H23   S    
C18   C20   A    
C61   C62   S    
C2    C61   S    
C51   N5    A    
C46   N15   A    
N1    N7    A    
C8    O2    S    
C59   C60   S    
C27   C34   S    
C64   H43   S    
C22   C28   A    
C42   C57   S    
C49   H16   S    
C40   C45   A    
C63   H30   S    
C44   H14   S    
C68   H51   S    
C53   C55   A    
N2    N13   A    
C15   C20   A    
C40   N12   A    
C32   C35   A    
C58   H28   S    
C63   H31   S    
C60   H25   S    
C4    C68   S    
C11   C72   A    
C63   H32   S    
C39   C43   A    
C62   H35   S    
H59   O6    S    
C58   C59   S    
C48   O6    S    
C17   H8    S    
C44   N14   A    
C53   N7    A    
C12   N9    A    
N8    Ni4   S    
C2    C4    A    
C50   C71   A    
C41   C56   A    
C62   C63   S    
C50   H17   S    
C30   H4    S    
H54   O2    S    
C23   C51   A    
N10   Ni2   S    
C69   H49   S    
C70   H47   S    
C14   H45   S    
C53   H20   S    
C11   O7    S    
C36   C43   A    
N1    Ni1   S    
C58   H29   S    
C23   C28   S    
C66   H38   S    
C9    C11   A    
N4    N15   A    
C46   C71   A    
N5    N10   A    
C7    O1    S    
C12   C57   A    
C60   H24   S    
C24   H63   S    
C4    C6    A    
N16   Ni2   S    
C16   C23   A    
C15   H56   S    
C49   N3    A    
C38   H9    S    
N6    Ni3   S    
C10   H34   S    
C17   C34   A    
N9    Ni2   S    
H61   O8    S    
H55   O3    S    
C1    N1    A    
H58   O5    S    
C13   O8    S    
C5    C7    A    
C46   H15   S    
C43   C55   S    
C18   C71   S    
C7    C9    A    
C49   C67   A    
C30   C33   A    
C19   C21   A    
C35   C56   S    
C65   H41   S    
N6    N11   A    
C8    C10   A    
N12   N16   A    
C39   H10   S    
N8    N9    A    
C3    C5    A    
C10   C13   A    
C6    C8    A    
N5    Ni4   S    
C29   H3    S    
C25   C27   A    
C6    C20   S    
C37   H6    S    
C29   C35   A    
N3    N14   A    
C26   C28   A    
C48   N2    A    
C16   H7    S    
C1    H1    S    
C64   C65   S    
C36   C38   A    
C3    C72   A    
C1    C55   A    
H60   O7    S    
C29   C31   A    
C30   C32   A    
C58   C72   S    
C69   H50   S    
C70   H46   S    
C26   H2    S    
C50   N4    A    
C69   C70   S    
N11   Ni1   S    
C52   N6    A    
C47   O5    S    
C5    C21   S    
C47   N16   A    
C37   C39   A    
C65   C66   S    
C59   H26   S    
C44   C67   A    
N14   Ni4   S    
C66   H40   S    
H57   O4    S    
C31   O3    S    
C41   H13   S    
N4    Ni2   S    
C32   O4    S    
C54   C57   A    
C60   H22   S    
