data_mof_unit_62133.cif
_audit_creation_date              2012-12-10T19:25:09-0500
_audit_creation_method            fapswitch 2.2
_symmetry_space_group_name_H-M    P1
_symmetry_Int_Tables_number       1
_space_group_crystal_system       triclinic
_cell_length_a                    18.740306
_cell_length_b                    18.794945
_cell_length_c                    18.704049
_cell_angle_alpha                 109.497952
_cell_angle_beta                  109.033905
_cell_angle_gamma                 109.663589
_cell_volume                      5084.9303494

loop_
_atom_site_label
_atom_site_type_symbol
_atom_type_description
_atom_site_fract_x
_atom_site_fract_y
_atom_site_fract_z
_atom_type_partial_charge
C1    C     C_R   0.879798 0.380175 0.000213 0.892792
C2    C     C_R   0.185794 0.502154 0.184277 -0.080203
C3    C     C_R   0.262948 0.513506 0.182084 -0.207387
C4    C     C_R   0.883476 0.502692 0.879958 0.980471
C5    C     C_R   0.327414 0.513798 0.246677 -0.175880
C6    C     C_R   0.313120 0.499945 0.311498 -0.051915
C7    C     C_R   0.235715 0.488071 0.310416 -0.124453
C8    C     C_3   0.183498 0.469557 0.354290 -0.323008
C9    C     C_3   0.113461 0.472500 0.284338 0.754270
C10   C     C_R   0.183372 0.756140 0.003742 0.155849
C11   C     C_R   0.191536 0.685071 0.003811 -0.228008
C12   C     C_R   0.816795 0.315892 0.004599 -0.091858
C13   C     C_R   0.259579 0.673525 0.994079 -0.038894
C14   C     C_R   0.320539 0.737622 0.989962 -0.161169
C15   C     C_R   0.313907 0.810963 0.995956 -0.218646
C16   C     C_R   0.123305 0.619902 0.002966 0.899311
C17   C     C_R   0.243293 0.817791 0.998403 0.213537
C18   C     C_3   0.244894 0.891581 0.063362 0.158004
C19   C     C_3   0.179933 0.824130 0.070815 -0.474080
C20   C     C_R   0.497157 0.379700 0.376751 0.870776
C21   C     C_R   0.616321 0.501877 0.618724 0.949285
C22   C     C_R   0.495499 0.619841 0.615951 0.899816
C23   C     C_R   0.826651 0.246295 0.008037 -0.163698
C24   C     C_R   0.377633 0.499871 0.377382 0.872568
C25   C     C_R   0.499985 0.879739 0.880723 0.907538
C26   C     C_R   0.620270 0.119604 0.999503 0.928267
C27   C     C_R   0.499988 0.120345 0.119477 0.891870
C28   C     C_R   0.119257 0.500342 0.119240 0.888615
C29   C     C_R   0.379995 0.879644 0.999638 0.874390
C30   C     C_R   0.575712 0.327071 0.310586 0.016426
C31   C     C_R   0.498707 0.312670 0.312997 -0.054684
C32   C     C_R   0.423949 0.229537 0.257239 -0.197182
C33   C     C_R   0.424097 0.165543 0.192934 -0.208751
C34   C     C_R   0.762436 0.182203 0.008389 -0.207172
C35   C     C_R   0.499467 0.184328 0.185991 -0.044589
C36   C     C_R   0.576192 0.262868 0.248020 -0.091352
C37   C     C_3   0.636970 0.327731 0.235841 0.369277
C38   C     C_3   0.636977 0.398841 0.306023 -0.472914
C39   C     C_R   0.562368 0.769691 0.732094 -0.095076
C40   C     C_2   0.762108 0.575936 0.741306 -0.236541
C41   C     C_R   0.493739 0.684689 0.681147 -0.214501
C42   C     C_R   0.422966 0.662920 0.697072 -0.137362
C43   C     C_R   0.422989 0.725815 0.763610 0.420807
C44   C     C_R   0.496164 0.811503 0.815031 -0.182049
C45   C     C_R   0.687593 0.186772 0.002210 -0.095274
C46   C     C_R   0.563691 0.830086 0.796827 0.089553
C47   C     C_3   0.652673 0.899732 0.826905 -0.329645
C48   C     C_3   0.651504 0.829452 0.751841 -0.086529
C49   C     C_2   0.680908 0.507849 0.692215 -0.345711
C50   C     C_2   0.828159 0.581503 0.815240 0.020835
C51   C     C_2   0.824081 0.507016 0.811262 -0.340584
C52   C     C_R   0.748588 0.325949 0.011494 0.179089
C53   C     C_2   0.226585 0.542015 0.446384 0.482941
C54   C     C_2   0.272710 0.600238 0.995836 0.444381
C55   C     C_2   0.723317 0.331140 0.261127 0.496517
C56   C     C_R   0.683826 0.261281 0.009097 0.189940
C57   C     C_2   0.899922 0.670317 0.886191 0.441206
C58   C     C_2   0.654441 0.977091 0.817656 0.423496
C59   C     C_2   0.649468 0.845915 0.677449 0.553914
C60   C     C_2   0.715045 0.799913 0.783991 0.440734
C61   C     C_3   0.613888 0.270482 0.952856 -0.437329
C62   C     C_3   0.685459 0.342265 0.955857 -0.532748
C63   C     C_R   0.175269 0.490851 0.250035 0.026663
H1    H     H_    0.780153 0.629766 0.728392 0.207888
H2    H     H_    0.115255 0.819797 0.047382 0.266034
H3    H     H_    0.364482 0.215439 0.260575 0.165108
H4    H     H_    0.365411 0.102694 0.147645 0.157927
H5    H     H_    0.700218 0.442429 0.368059 0.196142
H6    H     H_    0.606265 0.433448 0.281856 0.212997
H7    H     H_    0.368023 0.597149 0.658747 0.228818
H8    H     H_    0.700281 0.919314 0.893704 0.126429
H9    H     H_    0.777776 0.445120 0.751255 0.142101
H10   H     H_    0.882379 0.240609 0.008318 0.176911
H11   H     H_    0.768869 0.127132 0.008770 0.153785
H12   H     H_    0.694462 0.407846 0.992184 0.230588
H13   H     H_    0.569091 0.211976 0.886745 0.218290
H14   H     H_    0.581348 0.294609 0.987111 0.242036
H15   H     H_    0.682114 0.325677 0.891495 0.199196
H16   H     H_    0.260195 0.609646 0.462995 0.053487
H17   H     H_    0.006389 0.379572 0.257009 0.362362
H18   H     H_    0.147103 0.596595 0.338820 0.305513
H19   H     H_    0.237594 0.559243 0.015631 0.056102
H20   H     H_    0.208109 0.976477 0.070014 0.335622
H21   H     H_    0.732816 0.281992 0.274257 0.025417
H22   H     H_    0.542114 0.315625 0.138441 0.341095
H23   H     H_    0.273465 0.522624 0.131472 0.148421
H24   H     H_    0.889926 0.725576 0.894846 0.067876
H25   H     H_    0.362873 0.747970 0.829180 0.324777
H26   H     H_    0.714310 0.026255 0.828843 0.103108
H27   H     H_    0.589472 0.809972 0.615534 0.057078
H28   H     H_    0.721531 0.787502 0.837829 0.040373
H29   H     H_    0.387049 0.523144 0.245085 0.162509
H30   H     H_    0.163376 0.403773 0.347596 0.198930
H31   H     H_    0.375196 0.732607 0.985800 0.201282
H32   H     H_    0.309537 0.938009 0.123674 0.089124
H33   H     H_    0.659541 0.457529 0.709039 0.159714
H34   H     H_    0.207278 0.828630 0.135641 0.167226
O1    O     O_R   0.908050 0.460100 0.051390 -0.596579
O2    O     O_R   0.551950 0.908320 0.960240 -0.634939
O3    O     O_R   0.540220 0.091590 0.948580 -0.603229
O4    O     O_R   0.908730 0.356680 0.948620 -0.626056
O5    O     O_R   0.643000 0.091540 0.051310 -0.634541
O6    O     O_R   0.448050 0.091580 0.039660 -0.605024
O7    O     O_R   0.550830 0.091520 0.142390 -0.635832
O8    O     O_R   0.357000 0.908370 0.948590 -0.589315
O9    O     O_R   0.459780 0.908310 0.051320 -0.628926
O10   O     O_R   0.908630 0.551710 0.960350 -0.586473
O11   O     O_R   0.909310 0.448290 0.857570 -0.622882
O12   O     O_R   0.445680 0.356610 0.405790 -0.628263
O13   O     O_R   0.091270 0.643320 0.051380 -0.594347
O14   O     O_R   0.091950 0.539900 0.948610 -0.631385
O15   O     O_R   0.090690 0.551710 0.142430 -0.611921
O16   O     O_R   0.091370 0.448290 0.039650 -0.627233
O17   O     O_R   0.549120 0.460050 0.405790 -0.620865
O18   O     O_2   0.224158 0.525034 0.503345 -0.540710
O19   O     O_3   0.037458 0.391417 0.224745 -0.751050
O20   O     O_3   0.095341 0.539969 0.315807 -0.723946
O21   O     O_2   0.324215 0.585326 0.976104 -0.553455
O22   O     O_3   0.208361 0.931368 0.023707 -0.710377
O23   O     O_R   0.639540 0.551640 0.587850 -0.594009
O24   O     O_2   0.783288 0.388913 0.266276 -0.521234
O25   O     O_3   0.599495 0.319068 0.152543 -0.759990
O26   O     O_2   0.971568 0.683560 0.932313 -0.577997
O27   O     O_3   0.352054 0.700131 0.776422 -0.721581
O28   O     O_2   0.590292 0.985835 0.798544 -0.562223
O29   O     O_2   0.715183 0.900435 0.686668 -0.551934
O30   O     O_2   0.758901 0.788770 0.749987 -0.537875
O31   O     O_R   0.536110 0.448210 0.587860 -0.624784
O32   O     O_R   0.547900 0.643240 0.587840 -0.623919
O33   O     O_R   0.444470 0.539800 0.587850 -0.613418
O34   O     O_R   0.457480 0.551640 0.405780 -0.633164
O35   O     O_R   0.354050 0.448210 0.405780 -0.610476
O36   O     O_R   0.449170 0.908380 0.857510 -0.586924
Zn1   Zn    Zn3+2 0.999540 0.569060 0.068630 1.034292
Zn2   Zn    Zn3+2 0.000460 0.430940 0.931370 1.003714
Zn3   Zn    Zn3+2 0.565860 0.568990 0.496810 1.012906
Zn4   Zn    Zn3+2 0.427730 0.430860 0.496820 0.996924
Zn5   Zn    Zn3+2 0.431370 0.999990 0.931350 1.048569
Zn6   Zn    Zn3+2 0.568630 0.999910 0.068550 0.972262

loop_
_geom_bond_atom_site_label_1
_geom_bond_atom_site_label_2
_ccdc_geom_bond_type
C55   O24   D    
C9    O20   S    
C41   C42   A    
C35   C36   A    
H25   O27   S    
O2    Zn6   S    
C21   C49   S    
C19   H34   S    
C16   O13   A    
C7    C8    S    
C39   C41   A    
C28   O15   A    
C59   O29   D    
C4    O11   A    
C12   C23   A    
O12   Zn4   S    
C36   C37   S    
C53   H16   S    
O10   Zn1   S    
C30   C31   A    
C22   C41   S    
C10   C17   A    
C40   C49   D    
H18   O20   S    
C27   O7    A    
C42   H7    S    
C30   C38   S    
C17   C18   S    
C18   C19   S    
H20   O22   S    
C26   C45   S    
O8    Zn5   S    
C25   O2    A    
H17   O19   S    
C45   C56   A    
C61   H14   S    
C8    C9    S    
C15   C29   S    
C25   O36   A    
C38   H6    S    
O36   Zn5   S    
C13   C14   A    
C22   O33   A    
C3    H23   S    
C18   H32   S    
C50   C57   S    
C29   O8    A    
C1    C12   S    
C23   H10   S    
C25   C44   S    
C12   C52   A    
C44   C46   A    
C48   C60   S    
O4    Zn2   S    
C61   H13   S    
C4    O10   A    
C37   O25   S    
C4    C51   S    
O11   Zn2   S    
O34   Zn3   S    
C10   C11   A    
O6    Zn5   S    
C51   H9    S    
C27   C35   S    
O35   Zn4   S    
C57   H24   S    
O23   Zn3   S    
C59   H27   S    
C1    O1    A    
C43   C44   A    
C37   C38   S    
C57   O26   D    
O32   Zn3   S    
C11   C16   S    
C24   O35   A    
C47   C48   S    
C14   C15   A    
C10   C19   S    
C23   C34   A    
C6    C24   S    
C50   C51   D    
H22   O25   S    
C34   C45   A    
C21   O31   A    
O31   Zn4   S    
C7    C63   A    
O3    Zn5   S    
C34   H11   S    
C39   C46   A    
C38   H5    S    
C54   O21   D    
C22   O32   A    
C29   O9    A    
O13   Zn1   S    
C42   C43   A    
C47   H8    S    
C1    O4    A    
C54   H19   S    
C2    C63   A    
C33   H4    S    
C48   C59   S    
C32   H3    S    
C13   C54   S    
C60   H28   S    
C15   C17   A    
C46   C47   S    
C9    C63   S    
C9    O19   S    
C62   H15   S    
C31   C32   A    
C8    H30   S    
O15   Zn1   S    
C3    C5    A    
C8    C53   S    
C6    C7    A    
C21   O23   A    
O1    Zn1   S    
C40   H1    S    
O7    Zn6   S    
C30   C36   A    
C32   C33   A    
C27   O6    A    
C2    C3    A    
C52   C62   S    
C26   O5    A    
C47   C58   S    
C20   O17   A    
C11   C13   A    
C24   O34   A    
O14   Zn2   S    
O9    Zn6   S    
C5    C6    A    
C40   C50   S    
C18   O22   S    
C60   O30   D    
C33   C35   A    
C19   H2    S    
O5    Zn6   S    
C49   H33   S    
C61   C62   S    
C62   H12   S    
C58   H26   S    
C5    H29   S    
C28   O16   A    
C20   O12   A    
C37   C55   S    
C53   O18   D    
C58   O28   D    
O16   Zn2   S    
O17   Zn3   S    
C56   C61   S    
C2    C28   S    
C55   H21   S    
O33   Zn4   S    
C43   O27   S    
C14   H31   S    
C52   C56   A    
C16   O14   A    
C26   O3    A    
C39   C48   S    
C20   C31   S    
