data_mof_unit_31140.cif
_audit_creation_date              2012-12-11T14:05:38-0500
_audit_creation_method            fapswitch 2.2
_symmetry_space_group_name_H-M    P1
_symmetry_Int_Tables_number       1
_space_group_crystal_system       tetragonal
_cell_length_a                    17.638969
_cell_length_b                    17.63897
_cell_length_c                    17.638969
_cell_angle_alpha                 90.0
_cell_angle_beta                  90.0
_cell_angle_gamma                 90.0
_cell_volume                      5488.06966381

loop_
_atom_site_label
_atom_site_type_symbol
_atom_type_description
_atom_site_fract_x
_atom_site_fract_y
_atom_site_fract_z
_atom_type_partial_charge
C1    C     C_R   0.682179 0.779609 0.220391 0.093081
C2    C     C_R   0.317820 0.779609 0.220391 0.093082
C3    C     C_R   0.903343 0.815993 0.614602 0.675668
C4    C     C_R   0.096657 0.385398 0.815993 0.675668
C5    C     C_R   0.903343 0.614602 0.184007 0.675668
C6    C     C_R   0.096657 0.815993 0.614602 0.675668
C7    C     C_R   0.903343 0.184007 0.385398 0.675668
C8    C     C_R   0.815993 0.903343 0.614602 0.675668
C9    C     C_R   0.184007 0.096657 0.385398 0.675668
C10   C     C_R   0.614602 0.903343 0.184007 0.675668
C11   C     C_R   0.385398 0.096657 0.815993 0.675668
C12   C     C_R   0.184007 0.903343 0.385398 0.675668
C13   C     C_R   0.220391 0.317820 0.779609 0.093081
C14   C     C_R   0.815993 0.096657 0.614602 0.675668
C15   C     C_R   0.385397 0.903343 0.815993 0.675668
C16   C     C_R   0.614602 0.096657 0.184007 0.675668
C17   C     C_R   0.184007 0.096657 0.614602 0.675668
C18   C     C_R   0.815993 0.903343 0.385398 0.675668
C19   C     C_R   0.385398 0.096657 0.184007 0.675668
C20   C     C_R   0.614602 0.903343 0.815993 0.675668
C21   C     C_R   0.815993 0.096657 0.385398 0.675668
C22   C     C_R   0.184007 0.903343 0.614602 0.675668
C23   C     C_R   0.614602 0.096657 0.815993 0.675668
C24   C     C_R   0.779609 0.682179 0.220391 0.093082
C25   C     C_R   0.385398 0.903343 0.184007 0.675668
C26   C     C_R   0.317820 0.779609 0.779609 0.093082
C27   C     C_R   0.682179 0.220391 0.220391 0.093082
C28   C     C_R   0.779609 0.682179 0.779609 0.093081
C29   C     C_R   0.220391 0.317821 0.220391 0.093081
C30   C     C_R   0.220391 0.220391 0.682179 0.093082
C31   C     C_R   0.779609 0.779609 0.317820 0.093081
C32   C     C_R   0.220391 0.779609 0.317820 0.093082
C33   C     C_R   0.317820 0.220391 0.779609 0.093081
C34   C     C_R   0.779609 0.220391 0.682179 0.093081
C35   C     C_R   0.779609 0.220391 0.317820 0.093082
C36   C     C_R   0.220391 0.779609 0.682179 0.093082
C37   C     C_R   0.779609 0.779609 0.682179 0.093081
C38   C     C_R   0.220391 0.220391 0.317820 0.093081
C39   C     C_R   0.636732 0.829465 0.829465 -0.368490
C40   C     C_R   0.363268 0.170535 0.170535 -0.368490
C41   C     C_R   0.170535 0.636732 0.829465 -0.368490
C42   C     C_R   0.829465 0.363268 0.170535 -0.368490
C43   C     C_R   0.363268 0.170535 0.829465 -0.368490
C44   C     C_R   0.220391 0.682179 0.220391 0.093082
C45   C     C_R   0.636732 0.829465 0.170535 -0.368490
C46   C     C_R   0.829465 0.363268 0.829465 -0.368490
C47   C     C_R   0.170535 0.636732 0.170535 -0.368490
C48   C     C_R   0.636732 0.170535 0.170535 -0.368490
C49   C     C_R   0.363268 0.829465 0.829465 -0.368490
C50   C     C_R   0.170535 0.363268 0.170535 -0.368490
C51   C     C_R   0.829465 0.636732 0.829465 -0.368490
C52   C     C_R   0.363268 0.829465 0.170535 -0.368490
C53   C     C_R   0.636732 0.170535 0.829465 -0.368490
C54   C     C_R   0.829465 0.636732 0.170535 -0.368490
C55   C     C_R   0.779609 0.317820 0.779609 0.093082
C56   C     C_R   0.170535 0.363268 0.829465 -0.368490
C57   C     C_R   0.829465 0.170535 0.636732 -0.368490
C58   C     C_R   0.170535 0.829465 0.363268 -0.368490
C59   C     C_R   0.829465 0.829465 0.363268 -0.368490
C60   C     C_R   0.170535 0.170535 0.636732 -0.368490
C61   C     C_R   0.170535 0.170535 0.363268 -0.368490
C62   C     C_R   0.829465 0.829465 0.636732 -0.368490
C63   C     C_R   0.170535 0.829465 0.636732 -0.368490
C64   C     C_R   0.829465 0.170535 0.363268 -0.368490
C65   C     C_R   0.712949 0.712949 0.190650 -0.080232
C66   C     C_R   0.317820 0.220391 0.220391 0.093081
C67   C     C_R   0.287051 0.287051 0.809350 -0.080232
C68   C     C_R   0.287051 0.712949 0.190650 -0.080232
C69   C     C_R   0.712949 0.287051 0.809350 -0.080232
C70   C     C_R   0.287051 0.287051 0.190650 -0.080232
C71   C     C_R   0.712949 0.712949 0.809350 -0.080232
C72   C     C_R   0.712949 0.287051 0.190650 -0.080233
C73   C     C_R   0.287051 0.712949 0.809350 -0.080233
C74   C     C_R   0.190650 0.712949 0.712949 -0.080233
C75   C     C_R   0.809350 0.287051 0.287051 -0.080233
C76   C     C_R   0.190650 0.287051 0.712949 -0.080232
C77   C     C_R   0.682179 0.779609 0.779609 0.093081
C78   C     C_R   0.809350 0.712949 0.287051 -0.080232
C79   C     C_R   0.190650 0.287051 0.287051 -0.080232
C80   C     C_R   0.809350 0.712949 0.712949 -0.080232
C81   C     C_R   0.190650 0.712949 0.287051 -0.080233
C82   C     C_R   0.809350 0.287051 0.712949 -0.080233
C83   C     C_R   0.712949 0.190650 0.712949 -0.080232
C84   C     C_R   0.287051 0.809350 0.287051 -0.080233
C85   C     C_R   0.712949 0.190650 0.287051 -0.080233
C86   C     C_R   0.287051 0.809350 0.712949 -0.080232
C87   C     C_R   0.287051 0.190650 0.287051 -0.080232
C88   C     C_R   0.779609 0.317821 0.220391 0.093082
C89   C     C_R   0.712949 0.809350 0.712949 -0.080232
C90   C     C_R   0.287051 0.190650 0.712949 -0.080233
C91   C     C_R   0.712949 0.809350 0.287051 -0.080232
C92   C     C_R   0.614602 0.815993 0.903343 0.675668
C93   C     C_R   0.385398 0.184007 0.096657 0.675668
C94   C     C_R   0.184007 0.614602 0.903343 0.675668
C95   C     C_R   0.815993 0.385398 0.096657 0.675668
C96   C     C_R   0.385398 0.184007 0.903343 0.675668
C97   C     C_R   0.614602 0.815993 0.096657 0.675668
C98   C     C_R   0.815993 0.385398 0.903343 0.675668
C99   C     C_R   0.220391 0.682179 0.779609 0.093082
C100  C     C_R   0.184007 0.614602 0.096657 0.675668
C101  C     C_R   0.614602 0.184007 0.096657 0.675668
C102  C     C_R   0.385397 0.815993 0.903343 0.675668
C103  C     C_R   0.184007 0.385398 0.096657 0.675668
C104  C     C_R   0.815993 0.614602 0.903343 0.675668
C105  C     C_R   0.385398 0.815993 0.096657 0.675668
C106  C     C_R   0.614602 0.184007 0.903343 0.675668
C107  C     C_R   0.815993 0.614602 0.096657 0.675668
C108  C     C_R   0.184007 0.385398 0.903343 0.675668
C109  C     C_R   0.903343 0.614602 0.815993 0.675668
C110  C     C_R   0.682179 0.220391 0.779609 0.093081
C111  C     C_R   0.096657 0.385398 0.184007 0.675668
C112  C     C_R   0.903343 0.184007 0.614602 0.675668
C113  C     C_R   0.096657 0.815993 0.385398 0.675668
C114  C     C_R   0.903343 0.385398 0.184007 0.675668
C115  C     C_R   0.096657 0.614602 0.815993 0.675668
C116  C     C_R   0.903343 0.815993 0.385398 0.675668
C117  C     C_R   0.096657 0.184007 0.614602 0.675668
C118  C     C_R   0.096657 0.614602 0.184007 0.675668
C119  C     C_R   0.903343 0.385398 0.815993 0.675668
C120  C     C_R   0.096657 0.184007 0.385398 0.675668
F1    F     F_    0.597624 0.746469 0.930707 -0.540635
F2    F     F_    0.402376 0.746469 0.930707 -0.540635
F3    F     F_    0.253531 0.402376 0.069293 -0.540635
F4    F     F_    0.746469 0.597624 0.930707 -0.540635
F5    F     F_    0.402376 0.746469 0.069293 -0.540635
F6    F     F_    0.597624 0.253531 0.930707 -0.540635
F7    F     F_    0.746469 0.597624 0.069293 -0.540635
F8    F     F_    0.253531 0.402376 0.930707 -0.540635
F9    F     F_    0.930707 0.597624 0.746469 -0.540635
F10   F     F_    0.069293 0.402376 0.253531 -0.540635
F11   F     F_    0.930707 0.253531 0.597624 -0.540635
F12   F     F_    0.402376 0.253531 0.069293 -0.540635
F13   F     F_    0.069293 0.746469 0.402376 -0.540635
F14   F     F_    0.930707 0.402376 0.253531 -0.540635
F15   F     F_    0.069293 0.597624 0.746469 -0.540635
F16   F     F_    0.930707 0.746469 0.402376 -0.540635
F17   F     F_    0.069293 0.253531 0.597624 -0.540635
F18   F     F_    0.069293 0.597624 0.253531 -0.540635
F19   F     F_    0.930707 0.402376 0.746469 -0.540635
F20   F     F_    0.069293 0.253531 0.402376 -0.540635
F21   F     F_    0.930707 0.746469 0.597624 -0.540635
F22   F     F_    0.069293 0.402376 0.746469 -0.540635
F23   F     F_    0.253531 0.597624 0.930707 -0.540635
F24   F     F_    0.930707 0.597624 0.253531 -0.540635
F25   F     F_    0.069293 0.746469 0.597624 -0.540635
F26   F     F_    0.930707 0.253531 0.402376 -0.540634
F27   F     F_    0.746469 0.930707 0.597624 -0.540635
F28   F     F_    0.253531 0.069293 0.402376 -0.540635
F29   F     F_    0.597624 0.930707 0.253531 -0.540635
F30   F     F_    0.402376 0.069293 0.746469 -0.540635
F31   F     F_    0.253531 0.930707 0.402376 -0.540635
F32   F     F_    0.746469 0.069293 0.597624 -0.540635
F33   F     F_    0.402376 0.930707 0.746469 -0.540634
F34   F     F_    0.746469 0.402376 0.069293 -0.540635
F35   F     F_    0.597624 0.069293 0.253531 -0.540635
F36   F     F_    0.253531 0.069293 0.597624 -0.540635
F37   F     F_    0.746469 0.930707 0.402376 -0.540635
F38   F     F_    0.402376 0.069293 0.253531 -0.540635
F39   F     F_    0.597624 0.930707 0.746469 -0.540635
F40   F     F_    0.746469 0.069293 0.402376 -0.540635
F41   F     F_    0.253531 0.930707 0.597624 -0.540635
F42   F     F_    0.597624 0.069293 0.746469 -0.540635
F43   F     F_    0.402376 0.930707 0.253531 -0.540635
F44   F     F_    0.402376 0.253531 0.930707 -0.540635
F45   F     F_    0.597624 0.746469 0.069293 -0.540635
F46   F     F_    0.746469 0.402376 0.930707 -0.540635
F47   F     F_    0.253531 0.597624 0.069293 -0.540635
F48   F     F_    0.597624 0.253531 0.069293 -0.540635
H1    H     H_    0.691547 0.691547 0.138172 0.260987
H2    H     H_    0.861828 0.308453 0.308453 0.260987
H3    H     H_    0.138172 0.308453 0.691547 0.260987
H4    H     H_    0.861828 0.691547 0.308453 0.260987
H5    H     H_    0.138172 0.308453 0.308453 0.260987
H6    H     H_    0.861828 0.691547 0.691547 0.260987
H7    H     H_    0.138172 0.691547 0.308453 0.260987
H8    H     H_    0.861828 0.308453 0.691547 0.260987
H9    H     H_    0.691547 0.138172 0.691547 0.260987
H10   H     H_    0.308453 0.861828 0.308453 0.260987
H11   H     H_    0.691547 0.138172 0.308453 0.260987
H12   H     H_    0.308453 0.308453 0.861828 0.260987
H13   H     H_    0.308453 0.861828 0.691547 0.260987
H14   H     H_    0.308453 0.138172 0.308453 0.260987
H15   H     H_    0.691547 0.861828 0.691547 0.260987
H16   H     H_    0.308453 0.138172 0.691547 0.260987
H17   H     H_    0.691547 0.861828 0.308453 0.260987
H18   H     H_    0.308453 0.691547 0.138172 0.260987
H19   H     H_    0.691547 0.308453 0.861828 0.260987
H20   H     H_    0.308453 0.308453 0.138172 0.260987
H21   H     H_    0.691547 0.691547 0.861828 0.260987
H22   H     H_    0.691547 0.308453 0.138172 0.260987
H23   H     H_    0.308453 0.691547 0.861828 0.260987
H24   H     H_    0.138172 0.691547 0.691547 0.260987
N1    N     N_R   0.584840 0.879720 0.932190 -0.176550
N2    N     N_R   0.415160 0.879720 0.932190 -0.176550
N3    N     N_R   0.120280 0.415160 0.067810 -0.176550
N4    N     N_R   0.879720 0.584840 0.932190 -0.176550
N5    N     N_R   0.415160 0.879720 0.067810 -0.176550
N6    N     N_R   0.584840 0.120280 0.932190 -0.176550
N7    N     N_R   0.879720 0.584840 0.067810 -0.176550
N8    N     N_R   0.120280 0.415160 0.932190 -0.176550
N9    N     N_R   0.932190 0.584840 0.879720 -0.176550
N10   N     N_R   0.067810 0.415160 0.120280 -0.176550
N11   N     N_R   0.932190 0.120280 0.584840 -0.176550
N12   N     N_R   0.415160 0.120280 0.067810 -0.176550
N13   N     N_R   0.067810 0.879720 0.415160 -0.176550
N14   N     N_R   0.932190 0.415160 0.120280 -0.176550
N15   N     N_R   0.067810 0.584840 0.879720 -0.176550
N16   N     N_R   0.932190 0.879720 0.415160 -0.176550
N17   N     N_R   0.067810 0.120280 0.584840 -0.176550
N18   N     N_R   0.067810 0.584840 0.120280 -0.176550
N19   N     N_R   0.932190 0.415160 0.879720 -0.176550
N20   N     N_R   0.067810 0.120280 0.415160 -0.176550
N21   N     N_R   0.932190 0.879720 0.584840 -0.176550
N22   N     N_R   0.067810 0.415160 0.879720 -0.176550
N23   N     N_R   0.120280 0.584840 0.932190 -0.176550
N24   N     N_R   0.932190 0.584840 0.120280 -0.176550
N25   N     N_R   0.067810 0.879720 0.584840 -0.176550
N26   N     N_R   0.932190 0.120280 0.415160 -0.176550
N27   N     N_R   0.879720 0.932190 0.584840 -0.176550
N28   N     N_R   0.120280 0.067810 0.415160 -0.176550
N29   N     N_R   0.584840 0.932190 0.120280 -0.176550
N30   N     N_R   0.415160 0.067810 0.879720 -0.176550
N31   N     N_R   0.120280 0.932190 0.415160 -0.176550
N32   N     N_R   0.879720 0.067810 0.584840 -0.176550
N33   N     N_R   0.415160 0.932190 0.879720 -0.176550
N34   N     N_R   0.879720 0.415160 0.067810 -0.176550
N35   N     N_R   0.584840 0.067810 0.120280 -0.176550
N36   N     N_R   0.120280 0.067810 0.584840 -0.176550
N37   N     N_R   0.879720 0.932190 0.415160 -0.176550
N38   N     N_R   0.415160 0.067810 0.120280 -0.176550
N39   N     N_R   0.584840 0.932190 0.879720 -0.176550
N40   N     N_R   0.879720 0.067810 0.415160 -0.176550
N41   N     N_R   0.120280 0.932190 0.584840 -0.176550
N42   N     N_R   0.584840 0.067810 0.879720 -0.176550
N43   N     N_R   0.415160 0.932190 0.120280 -0.176550
N44   N     N_R   0.415160 0.120280 0.932190 -0.176550
N45   N     N_R   0.584840 0.879720 0.067810 -0.176550
N46   N     N_R   0.879720 0.415160 0.932190 -0.176550
N47   N     N_R   0.120280 0.584840 0.067810 -0.176550
N48   N     N_R   0.584840 0.120280 0.067810 -0.176550
Ni1   Ni    Ni4+2 0.500000 0.880920 0.000000 0.355373
Ni2   Ni    Ni4+2 0.119080 0.000000 0.500000 0.355373
Ni3   Ni    Ni4+2 0.500000 0.000000 0.119080 0.355373
Ni4   Ni    Ni4+2 0.500000 0.000000 0.880920 0.355373
Ni5   Ni    Ni4+2 0.500000 0.119080 0.000000 0.355373
Ni6   Ni    Ni4+2 0.119080 0.500000 0.000000 0.355373
Ni7   Ni    Ni4+2 0.880920 0.500000 0.000000 0.355373
Ni8   Ni    Ni4+2 0.000000 0.500000 0.880920 0.355373
Ni9   Ni    Ni4+2 0.000000 0.500000 0.119080 0.355373
Ni10  Ni    Ni4+2 0.000000 0.119080 0.500000 0.355373
Ni11  Ni    Ni4+2 0.000000 0.880920 0.500000 0.355373
Ni12  Ni    Ni4+2 0.880920 0.000000 0.500000 0.355373

loop_
_geom_bond_atom_site_label_1
_geom_bond_atom_site_label_2
_ccdc_geom_bond_type
C53   C110  S    
C120  N20   A    
C16   N35   A    
C108  N8    A    
N2    Ni1   S    
C115  N15   A    
C101  F48   S    
C79   H5    S    
C2    C84   A    
C3    F21   S    
C32   C58   S    
C40   C93   A    
C30   C90   A    
C103  F3    S    
N15   Ni8   S    
C16   C48   A    
C87   H14   S    
C37   C62   S    
N21   N27   A    
N34   Ni7   S    
N3    N10   A    
C22   F41   S    
N33   Ni4   S    
C32   C81   A    
N30   N44   A    
C94   N23   A    
C54   C107  A    
C15   N33   A    
C100  F47   S    
C9    C61   A    
C94   F23   S    
C81   H7    S    
N2    N33   A    
C14   N32   A    
C25   F43   S    
C29   C70   A    
C2    C68   A    
C67   H12   S    
C10   F29   S    
N35   Ni3   S    
C28   C51   S    
C57   C112  A    
C38   C79   A    
C48   C101  A    
N31   Ni2   S    
C24   C54   S    
C22   N41   A    
C26   C73   A    
C11   N30   A    
C100  N47   A    
C6    C63   A    
C31   C59   S    
C27   C85   A    
N14   Ni9   S    
N5    Ni1   S    
C56   C108  A    
C21   C64   A    
N38   Ni3   S    
C111  F10   S    
C10   N29   A    
C22   C63   A    
C23   N42   A    
C53   C106  A    
C42   C114  A    
C47   C118  A    
C41   C94   A    
C8    C62   A    
N24   Ni9   S    
C20   F39   S    
C30   C60   S    
N46   Ni7   S    
N14   N34   A    
C34   C57   S    
N8    N22   A    
C41   C99   S    
C11   C43   A    
C35   C64   S    
N40   Ni12  S    
N17   N36   A    
C36   C63   S    
C69   H19   S    
N18   Ni9   S    
C118  F18   S    
N12   Ni5   S    
C44   C47   S    
C70   H20   S    
N17   Ni10  S    
C106  N6    A    
C7    F26   S    
C12   C58   A    
C105  N5    A    
C46   C98   A    
C68   H18   S    
C50   C103  A    
C51   C109  A    
C20   N39   A    
C113  F13   S    
C4    C56   A    
C101  N48   A    
C92   F1    S    
N26   Ni10  S    
C12   F31   S    
C21   N40   A    
C103  N3    A    
C41   C115  A    
C102  N2    A    
C111  N10   A    
C72   H22   S    
C72   C88   A    
N29   Ni3   S    
C23   C53   A    
C29   C50   S    
N5    N43   A    
C32   C84   A    
N3    Ni6   S    
C83   C110  A    
C4    N22   A    
C75   C88   A    
C83   H9    S    
C42   C95   A    
C33   C43   S    
C5    C54   A    
C14   F32   S    
C98   F46   S    
C104  F4    S    
C44   C81   A    
N6    N42   A    
C26   C49   S    
N25   N41   A    
C49   C102  A    
C6    F25   S    
N30   Ni4   S    
C59   C116  A    
C5    F24   S    
C18   F37   S    
C26   C86   A    
N20   N28   A    
C36   C86   A    
C51   C104  A    
C5    N24   A    
N28   Ni2   S    
N13   N31   A    
C71   H21   S    
C47   C100  A    
C96   F44   S    
N29   N45   A    
N16   Ni11  S    
C113  N13   A    
N19   Ni8   S    
C46   C55   S    
C76   H3    S    
C12   N31   A    
C37   C80   A    
N13   Ni11  S    
C58   C113  A    
C6    N25   A    
C30   C76   A    
C69   C110  A    
N41   Ni2   S    
C11   F30   S    
C1    C65   A    
N7    N24   A    
C29   C79   A    
C86   H13   S    
C85   H11   S    
C4    F22   S    
C77   C89   A    
C16   F35   S    
N15   N23   A    
C43   C96   A    
C104  N4    A    
N19   N46   A    
N36   Ni2   S    
C60   C117  A    
C73   H23   S    
C108  F8    S    
C55   C82   A    
C84   H10   S    
C93   N12   A    
N43   Ni3   S    
C55   C69   A    
C75   H2    S    
C36   C74   A    
C24   C65   A    
C120  F20   S    
C9    N28   A    
C24   C78   A    
C82   H8    S    
C52   C105  A    
C92   N1    A    
C31   C91   A    
N27   Ni12  S    
N47   Ni6   S    
N4    Ni7   S    
C109  F9    S    
N48   Ni5   S    
C21   F40   S    
C74   H24   S    
C44   C68   A    
C8    F27   S    
C42   C88   S    
C34   C83   A    
N1    N39   A    
N8    Ni6   S    
C93   F12   S    
C89   H15   S    
C39   C92   A    
C71   C77   A    
C97   N45   A    
C96   N44   A    
C31   C78   A    
C114  F14   S    
C13   C67   A    
C3    C62   A    
C73   C99   A    
C14   C57   A    
C25   N43   A    
C34   C82   A    
C19   F38   S    
N1    Ni1   S    
N44   Ni5   S    
C117  F17   S    
C35   C75   A    
C90   H16   S    
C18   N37   A    
N45   Ni1   S    
N22   Ni8   S    
C7    N26   A    
C38   C61   S    
C74   C99   A    
C116  F16   S    
N7    Ni7   S    
C3    N21   A    
C13   C76   A    
N25   Ni11  S    
C106  F6    S    
C9    F28   S    
C119  N19   A    
C2    C52   S    
C105  F5    S    
C38   C87   A    
C118  N18   A    
C95   F34   S    
C119  F19   S    
N18   N47   A    
C13   C56   S    
C117  N17   A    
N39   Ni4   S    
C20   C39   A    
C25   C52   A    
C80   H6    S    
C33   C67   A    
C45   C97   A    
C33   C90   A    
N9    Ni8   S    
C107  N7    A    
N4    N9    A    
C35   C85   A    
C1    C45   S    
C15   F33   S    
C66   C70   A    
N11   Ni10  S    
C115  F15   S    
C66   C87   A    
C97   F45   S    
N35   N48   A    
C109  N9    A    
C50   C111  A    
C17   N36   A    
C37   C89   A    
C46   C119  A    
N21   Ni11  S    
C15   C49   A    
C27   C48   S    
N12   N38   A    
N26   N40   A    
C28   C80   A    
C19   N38   A    
C7    C64   A    
C95   N34   A    
N37   Ni12  S    
C19   C40   A    
N32   Ni12  S    
C17   C60   A    
C107  F7    S    
C28   C71   A    
C114  N14   A    
C18   C59   A    
N10   Ni9   S    
C112  F11   S    
C116  N16   A    
N23   Ni6   S    
C39   C77   S    
N11   N32   A    
C1    C91   A    
C10   C45   A    
C65   H1    S    
C8    N27   A    
C98   N46   A    
C40   C66   S    
N6    Ni5   S    
C112  N11   A    
C91   H17   S    
C78   H4    S    
C102  F2    S    
C17   F36   S    
N20   Ni10  S    
C23   F42   S    
C27   C72   A    
N16   N37   A    
N42   Ni4   S    
C61   C120  A    
