data_mof_unit_63558.cif
_audit_creation_date              2012-12-10T20:48:20-0500
_audit_creation_method            fapswitch 2.2
_symmetry_space_group_name_H-M    P1
_symmetry_Int_Tables_number       1
_space_group_crystal_system       triclinic
_cell_length_a                    16.049558
_cell_length_b                    19.224352
_cell_length_c                    19.258724
_cell_angle_alpha                 94.608351
_cell_angle_beta                  95.104229
_cell_angle_gamma                 90.512898
_cell_volume                      5898.65909264

loop_
_atom_site_label
_atom_site_type_symbol
_atom_type_description
_atom_site_fract_x
_atom_site_fract_y
_atom_site_fract_z
_atom_type_partial_charge
C1    C     C_R   0.509450 0.310692 0.492435 0.521916
C2    C     C_R   0.429592 0.803072 0.547298 -0.137975
C3    C     C_R   0.441222 0.121753 0.475928 -0.087357
C4    C     C_R   0.490862 0.689360 0.506636 0.518351
C5    C     C_R   0.440193 0.194060 0.473571 -0.151796
C6    C     C_R   0.516604 0.088120 0.494814 0.215952
C7    C     C_R   0.513798 0.234086 0.490522 0.020147
C8    C     C_R   0.589837 0.200126 0.507758 -0.038513
C9    C     C_R   0.590351 0.127661 0.509423 -0.098558
C10   C     C_R   0.489716 0.488219 0.233253 0.028763
C11   C     C_R   0.535597 0.537055 0.201127 -0.145474
C12   C     C_1   0.111456 0.481260 0.482466 -0.042450
C13   C     C_R   0.534995 0.533576 0.128653 -0.071883
C14   C     C_R   0.488247 0.480767 0.086689 0.231839
C15   C     C_R   0.442892 0.431966 0.118906 -0.101707
C16   C     C_R   0.508492 0.507887 0.689762 0.554117
C17   C     C_R   0.443257 0.435631 0.191585 -0.139260
C18   C     C_R   0.503611 0.454710 0.873705 -0.110051
C19   C     C_R   0.499762 0.449883 0.800769 0.008775
C20   C     C_R   0.517014 0.519197 0.913393 0.172896
C21   C     C_R   0.511425 0.511150 0.766423 -0.025765
C22   C     C_R   0.526905 0.576103 0.805773 -0.086033
C23   C     C_1   0.888601 0.516559 0.516542 -0.020168
C24   C     C_R   0.530336 0.580187 0.879597 0.047473
C25   C     C_R   0.491580 0.491958 0.309926 0.513687
C26   C     C_R   0.723998 0.509999 0.510021 0.512330
C27   C     C_R   0.276025 0.490031 0.490105 0.515624
C28   C     C_1   0.813416 0.513734 0.513821 0.043547
C29   C     C_2   0.978679 0.519320 0.519025 -0.123185
C30   C     C_2   0.021639 0.475857 0.477821 -0.007285
C31   C     C_1   0.980546 0.423149 0.428298 0.242117
C32   C     C_2   0.480439 0.380204 0.762727 0.594207
C33   C     C_1   0.538196 0.638699 0.769962 0.268820
C34   C     C_1   0.186629 0.485554 0.486167 0.024168
C35   C     C_2   0.546699 0.648050 0.922154 0.601258
C36   C     C_1   0.668613 0.237799 0.522036 0.233001
C37   C     C_1   0.556800 0.904428 0.398561 0.241695
C38   C     C_R   0.482701 0.765415 0.504503 0.018520
C39   C     C_R   0.525194 0.800331 0.456561 -0.149778
C40   C     C_R   0.515583 0.871883 0.451569 0.009843
C41   C     C_R   0.463781 0.909921 0.496239 0.212878
C42   C     C_R   0.419940 0.874685 0.542766 -0.109574
H1    H     H_    0.564907 0.771684 0.421980 0.146619
H2    H     H_    0.379137 0.903141 0.576415 0.138895
H3    H     H_    0.395315 0.777198 0.584077 0.154823
H4    H     H_    0.648589 0.101520 0.522520 0.138849
H5    H     H_    0.486509 0.275487 0.764296 0.350672
H6    H     H_    0.519726 0.711696 0.005446 0.345747
H7    H     H_    0.494974 0.407706 0.899885 0.189269
H8    H     H_    0.406838 0.391068 0.087440 0.135504
H9    H     H_    0.407553 0.397159 0.215098 0.147894
H10   H     H_    0.571280 0.572147 0.105840 0.164258
H11   H     H_    0.572070 0.578110 0.231980 0.147440
H12   H     H_    0.011696 0.558283 0.555658 0.134600
H13   H     H_    0.381331 0.218950 0.460025 0.145221
H14   H     H_    0.383217 0.092495 0.463012 0.150228
N1    N     N_2   0.453830 0.983004 0.494990 -0.244533
N2    N     N_2   0.522262 0.014785 0.497842 -0.217188
N3    N     N_2   0.485005 0.474907 0.012480 -0.235563
N4    N     N_2   0.520574 0.523987 0.987667 -0.187599
N5    N     N_1   0.947649 0.380977 0.388683 -0.263379
N6    N     N_1   0.547122 0.688526 0.741278 -0.245793
N7    N     N_1   0.731738 0.267928 0.533442 -0.249554
N8    N     N_1   0.589820 0.930479 0.356075 -0.261908
O1    O     O_3   0.500000 0.500000 0.500000 -0.452643
O2    O     O_R   0.688130 0.469010 0.547620 -0.525923
O3    O     O_R   0.315580 0.449250 0.449280 -0.532875
O4    O     O_R   0.680710 0.547310 0.468650 -0.536833
O5    O     O_R   0.315580 0.534430 0.534450 -0.531959
O6    O     O_2   0.442591 0.375289 0.704511 -0.505464
O7    O     O_R   0.503515 0.319652 0.794826 -0.690049
O8    O     O_2   0.598859 0.689347 0.906362 -0.490107
O9    O     O_R   0.502765 0.664486 0.980700 -0.666115
O10   O     O_R   0.456860 0.545290 0.655940 -0.526596
O11   O     O_R   0.446440 0.450430 0.339790 -0.543635
O12   O     O_R   0.557290 0.347960 0.537250 -0.511293
O13   O     O_R   0.539410 0.656320 0.467010 -0.546087
O14   O     O_R   0.456880 0.340240 0.450910 -0.542513
O15   O     O_R   0.446420 0.655480 0.544820 -0.538281
O16   O     O_R   0.557280 0.467820 0.657110 -0.508233
O17   O     O_R   0.539420 0.536460 0.347160 -0.544549
Zn1   Zn    Zn3+2 0.430910 0.557800 0.557800 0.979595
Zn2   Zn    Zn3+2 0.574380 0.447110 0.559460 1.010894
Zn3   Zn    Zn3+2 0.563780 0.559000 0.446630 0.950481
Zn4   Zn    Zn3+2 0.430930 0.436090 0.436110 0.962571

loop_
_geom_bond_atom_site_label_1
_geom_bond_atom_site_label_2
_ccdc_geom_bond_type
C16   C21   S    
O17   Zn3   S    
C41   C42   A    
C31   N5    T    
C3    C6    A    
C17   H9    S    
C6    C9    A    
N1    N2    D    
C7    C8    A    
C14   N3    S    
C16   O10   A    
C23   C29   S    
C19   C21   A    
C37   C40   S    
C38   C39   A    
O1    Zn2   S    
C29   H12   S    
C10   C17   A    
C18   C19   A    
C8    C36   S    
C15   H8    S    
C6    N2    S    
O5    Zn1   S    
O2    Zn2   S    
O11   Zn4   S    
C20   C24   A    
C33   N6    T    
C20   N4    S    
C36   N7    T    
C11   H11   S    
N3    N4    D    
C27   C34   S    
C13   C14   A    
C25   O17   A    
C1    O14   A    
C42   H2    S    
O10   Zn1   S    
O16   Zn2   S    
C19   C32   S    
O12   Zn2   S    
C32   O7    S    
C2    H3    S    
O3    Zn4   S    
C24   C35   S    
O4    Zn3   S    
C4    O15   A    
C39   C40   A    
C5    C7    A    
C8    C9    A    
O1    Zn3   S    
C39   H1    S    
O13   Zn3   S    
C16   O16   A    
C26   O2    A    
C29   C30   D    
C13   H10   S    
C3    H14   S    
C2    C38   A    
C23   C28   T    
H5    O7    S    
C10   C25   S    
C40   C41   A    
C4    C38   S    
C35   O8    D    
C22   C24   A    
C12   C34   T    
C37   N8    T    
O14   Zn4   S    
C15   C17   A    
C22   C33   S    
C35   O9    S    
C12   C30   S    
C1    C7    S    
C1    O12   A    
H6    O9    S    
C5    H13   S    
C3    C5    A    
C27   O5    A    
O15   Zn1   S    
C32   O6    D    
O1    Zn4   S    
C26   C28   S    
C26   O4    A    
C41   N1    S    
C4    O13   A    
C11   C13   A    
O1    Zn1   S    
C30   C31   S    
C2    C42   A    
C18   C20   A    
C27   O3    A    
C10   C11   A    
C9    H4    S    
C14   C15   A    
C25   O11   A    
C21   C22   A    
C18   H7    S    
