data_mof_unit_17440.cif
_audit_creation_date              2012-12-11T14:49:39-0500
_audit_creation_method            fapswitch 2.2
_symmetry_space_group_name_H-M    P1
_symmetry_Int_Tables_number       1
_space_group_crystal_system       triclinic
_cell_length_a                    16.387933
_cell_length_b                    7.092067
_cell_length_c                    17.308928
_cell_angle_alpha                 90.000127
_cell_angle_beta                  100.746537
_cell_angle_gamma                 89.999941
_cell_volume                      1976.43618501

loop_
_atom_site_label
_atom_site_type_symbol
_atom_type_description
_atom_site_fract_x
_atom_site_fract_y
_atom_site_fract_z
_atom_type_partial_charge
O1    O     O_R   0.579510 0.506290 0.439030 -0.529008
O2    O     O_R   0.420490 0.006290 0.560970 -0.529008
O3    O     O_R   0.412540 0.170090 0.405290 -0.525493
O4    O     O_R   0.587460 0.670090 0.594710 -0.525494
C1    C     C_R   0.386988 0.347282 0.380295 0.678630
C2    C     C_R   0.613012 0.847282 0.619705 0.678630
O5    O     O_R   0.578390 0.176230 0.429330 -0.526478
O6    O     O_R   0.421610 0.676230 0.570670 -0.526479
O7    O     O_R   0.587530 0.011250 0.585190 -0.515015
O8    O     O_R   0.412470 0.511250 0.414810 -0.515015
C3    C     C_R   0.605321 0.345766 0.413359 0.736069
C4    C     C_R   0.394679 0.845766 0.586641 0.736068
O9    O     O_3   0.502800 0.340940 0.551110 -0.360426
O10   O     O_3   0.497200 0.840940 0.448890 -0.360425
V1    V     V_3+5 0.499480 0.064020 0.490520 1.555445
V2    V     V_3+5 0.500520 0.564020 0.509480 1.555444
C5    C     C_R   0.172691 0.906679 0.867652 -0.052607
C6    C     C_R   0.827308 0.406681 0.132348 -0.052603
C7    C     C_R   0.330843 0.860512 0.638966 -0.102430
C8    C     C_R   0.669157 0.360511 0.361034 -0.102429
C9    C     C_R   0.193934 0.965735 0.659995 -0.172247
C10   C     C_R   0.806069 0.465720 0.340006 -0.172245
C11   C     C_R   0.249671 0.929034 0.610008 0.199515
C12   C     C_R   0.750330 0.429023 0.389993 0.199516
C13   C     C_R   0.351411 0.818200 0.720316 -0.273885
C14   C     C_R   0.648587 0.318212 0.279683 -0.273884
C15   C     C_R   0.293015 0.848043 0.770613 0.159703
C16   C     C_R   0.706983 0.348054 0.229385 0.159702
C17   C     C_R   0.214484 0.926842 0.739850 0.104149
C18   C     C_R   0.785517 0.426834 0.260151 0.104150
C19   C     C_R   0.155748 0.959113 0.788392 -0.192448
C20   C     C_R   0.844254 0.459097 0.211609 -0.192444
C21   C     C_R   0.250354 0.825162 0.898387 -0.175559
C22   C     C_R   0.749640 0.325191 0.101609 -0.175564
C23   C     C_R   0.310501 0.799174 0.850784 -0.159646
C24   C     C_R   0.689493 0.299205 0.149212 -0.159644
H1    H     H_    0.095362 0.017789 0.763756 0.118023
H2    H     H_    0.904644 0.517757 0.236247 0.118019
H3    H     H_    0.264392 0.781395 0.959387 0.100147
H4    H     H_    0.735599 0.281443 0.040607 0.100145
H5    H     H_    0.132567 0.019454 0.635627 0.163566
H6    H     H_    0.867437 0.519432 0.364374 0.163566
H7    H     H_    0.369846 0.737251 0.876270 0.109792
H8    H     H_    0.630144 0.237303 0.123724 0.109791
H9    H     H_    0.412619 0.763406 0.744369 0.108675
H10   H     H_    0.587377 0.263432 0.255628 0.108672
C25   C     C_3   0.749218 0.742379 0.828285 -0.317537
C26   C     C_3   0.250784 0.242385 0.171713 -0.317538
H11   H     H_    0.782625 0.605902 0.827700 0.169574
H12   H     H_    0.217378 0.105905 0.172294 0.169571
H13   H     H_    0.729823 0.754350 0.886359 0.130457
H14   H     H_    0.270181 0.254365 0.113640 0.130456
C27   C     C_3   0.670665 0.740313 0.761711 -0.433326
C28   C     C_3   0.329335 0.240316 0.238289 -0.433324
H15   H     H_    0.616067 0.788605 0.786236 0.135220
H16   H     H_    0.383935 0.288607 0.213766 0.135219
H17   H     H_    0.654925 0.595394 0.742832 0.193125
H18   H     H_    0.345074 0.095396 0.257167 0.193124
H19   H     H_    0.887159 0.755629 0.748460 0.143368
H20   H     H_    0.112845 0.255610 0.251538 0.143370
H21   H     H_    0.772599 0.673064 0.660490 0.168217
H22   H     H_    0.227402 0.173064 0.339512 0.168216
C29   C     C_3   0.841700 0.873925 0.740188 -0.343191
C30   C     C_3   0.158299 0.373915 0.259811 -0.343189
C31   C     C_3   0.754436 0.089551 0.806154 -0.350134
C32   C     C_3   0.245560 0.589555 0.193849 -0.350129
C33   C     C_3   0.808246 0.909098 0.816807 0.049915
C34   C     C_3   0.191754 0.409098 0.183193 0.049916
H23   H     H_    0.794547 0.214733 0.803290 0.173763
H24   H     H_    0.205448 0.714732 0.196717 0.173766
H25   H     H_    0.725112 0.110069 0.858610 0.113539
H26   H     H_    0.274883 0.610085 0.141392 0.113536
C35   C     C_3   0.683217 0.871602 0.692567 0.020433
C36   C     C_3   0.316783 0.371603 0.307433 0.020429
C37   C     C_3   0.769973 0.826177 0.671206 0.082459
C38   C     C_3   0.230026 0.326177 0.328794 0.082460
C39   C     C_3   0.685569 0.074358 0.731090 0.074994
C40   C     C_3   0.314429 0.574359 0.268911 0.074996
H27   H     H_    0.624439 0.102235 0.748105 0.087360
H28   H     H_    0.375559 0.602235 0.251895 0.087361
H29   H     H_    0.875560 0.001661 0.726202 0.183836
H30   H     H_    0.124434 0.501643 0.273796 0.183829
O11   O     O_R   0.087500 0.266000 0.085220 -0.541111
O12   O     O_R   0.912500 0.766000 0.914780 -0.541111
O13   O     O_R   0.921600 0.589950 0.070670 -0.536135
O14   O     O_R   0.078400 0.089950 0.929330 -0.536136
C41   C     C_R   0.893003 0.421155 0.083874 0.690567
C42   C     C_R   0.106996 0.921154 0.916125 0.690568
O15   O     O_R   0.087460 0.596020 0.094710 -0.541418
O16   O     O_R   0.912540 0.096020 0.905290 -0.541418
O17   O     O_R   0.079520 0.760970 0.939020 -0.532051
O18   O     O_R   0.920480 0.260970 0.060980 -0.532050
C43   C     C_R   0.118840 0.426474 0.114550 0.670880
C44   C     C_R   0.881159 0.926474 0.885449 0.670881
O19   O     O_3   0.997180 0.425140 0.948910 -0.369958
O20   O     O_3   0.002820 0.925140 0.051090 -0.369958
V3    V     V_3+5 0.000520 0.702080 0.009480 1.410371
V4    V     V_3+5 0.999480 0.202080 0.990520 1.410371
I1    I     I_    0.700132 0.306930 0.658136 -0.394282
I2    I     I_    0.299871 0.806933 0.341866 -0.394276
I3    I     I_    0.795065 0.945949 0.563277 -0.290932
I4    I     I_    0.204932 0.445957 0.436721 -0.290935
I5    I     I_    0.196565 0.959381 0.491727 -0.296475
I6    I     I_    0.803437 0.459369 0.508274 -0.296474

loop_
_geom_bond_atom_site_label_1
_geom_bond_atom_site_label_2
_ccdc_geom_bond_type
C32   C34   S    
C15   C17   A    
C5    C42   S    
O1    C3    A    
O2    C4    A    
C2    O7    A    
O19   V4    S    
O18   V4    S    
C25   H11   S    
C10   H6    S    
H21   C37   S    
O5    C3    A    
C21   H3    S    
C36   C38   S    
C29   H29   S    
C22   H4    S    
O12   V3    S    
C30   C34   S    
O14   C42   A    
O11   C43   A    
C1    C36   S    
C28   C36   S    
C11   I5    S    
C8    C12   A    
C32   H26   S    
C31   C33   S    
O11   V4    S    
O20   V4    S    
C33   C44   S    
C20   H2    S    
C23   H7    S    
C22   C24   A    
C25   C27   S    
O5    V1    S    
O6    V2    S    
C41   O18   A    
C35   C37   S    
H22   C38   S    
C5    C21   A    
O14   V4    S    
C25   C33   S    
O16   C44   A    
C29   C33   S    
C27   H15   S    
C38   I4    S    
C32   C40   S    
C28   H16   S    
C3    C8    S    
C31   C39   S    
O13   C41   A    
O4    C2    A    
C26   C28   S    
C27   H17   S    
C25   H13   S    
C15   C23   A    
C31   H25   S    
C9    C17   A    
O17   V3    S    
C19   H1    S    
O15   V3    S    
C12   I6    S    
O4    V2    S    
C7    C11   A    
C42   O17   A    
O6    C4    A    
O20   V3    S    
C30   C38   S    
C39   H27   S    
O1    V2    S    
O12   C44   A    
C26   C34   S    
O2    V1    S    
C6    C22   A    
C30   H30   S    
C9    H5    S    
C9    C11   A    
C40   I2    S    
C5    C19   A    
C10   C12   A    
C24   H8    S    
C6    C20   A    
C13   H9    S    
O3    V1    S    
C29   C37   S    
C2    C35   S    
C28   H18   S    
C10   C18   A    
C14   C16   A    
C27   C35   S    
C6    C41   S    
O3    C1    A    
O19   V3    S    
C13   C15   A    
H19   C29   S    
C34   C43   S    
H20   C30   S    
C16   C18   A    
O7    V1    S    
C1    O8    A    
C17   C19   A    
O8    V2    S    
C18   C20   A    
C32   H24   S    
C8    C14   A    
C31   H23   S    
C4    C7    S    
C26   H12   S    
C21   C23   A    
C39   I1    S    
C40   H28   S    
O15   C43   A    
C7    C13   A    
O13   V3    S    
C14   H10   S    
C26   H14   S    
C16   C24   A    
C36   C40   S    
O9    V2    S    
C37   I3    S    
C35   C39   S    
O10   V1    S    
O16   V4    S    
