data_mof_unit_61456.cif
_audit_creation_date              2012-10-26T21:11:24-0400
_audit_creation_method            fapswitch 2.2
_symmetry_space_group_name_H-M    P1
_symmetry_Int_Tables_number       1
_space_group_crystal_system       triclinic
_cell_length_a                    15.944525
_cell_length_b                    14.432732
_cell_length_c                    13.145887
_cell_angle_alpha                 90.0
_cell_angle_beta                  90.00861
_cell_angle_gamma                 90.000067
_cell_volume                      3025.17165864

loop_
_atom_site_label
_atom_site_type_symbol
_atom_type_description
_atom_site_fract_x
_atom_site_fract_y
_atom_site_fract_z
_atom_type_partial_charge
C1    C     C_1   0.500000 0.227121 0.500000 -0.045230
C2    C     C_R   0.500000 0.671298 0.500000 0.552114
C3    C     C_R   0.337652 0.500000 0.499974 0.560855
C4    C     C_R   0.662347 0.500000 0.500026 0.560855
C5    C     C_1   0.500000 0.142309 0.500000 -0.041222
C6    C     C_1   0.500000 0.857691 0.500000 -0.041222
C7    C     C_1   0.500014 0.500000 0.173629 0.123176
C8    C     C_1   0.499986 0.500000 0.826371 0.123176
C9    C     C_1   0.500000 0.042405 0.500000 0.000397
C10   C     C_1   0.500000 0.957595 0.500000 0.000397
C11   C     C_3   0.972127 0.424377 0.549054 -0.099523
C12   C     C_1   0.500000 0.772879 0.500000 -0.045230
C13   C     C_3   0.027873 0.575623 0.450946 -0.099523
C14   C     C_3   0.027873 0.423500 0.452613 -0.099534
C15   C     C_3   0.972127 0.576500 0.547387 -0.099534
C16   C     C_1   0.500004 0.500000 0.050681 -0.046366
C17   C     C_1   0.499996 0.500000 0.949319 -0.046366
C18   C     C_1   0.248423 0.500000 0.499956 -0.036559
C19   C     C_1   0.751576 0.500000 0.500044 -0.036560
C20   C     C_3   0.027919 0.500877 0.596418 -0.098929
C21   C     C_3   0.972081 0.499123 0.403582 -0.098929
C22   C     C_3   0.082125 0.500000 0.499976 0.051359
C23   C     C_3   0.917875 0.500000 0.500024 0.051359
C24   C     C_1   0.173269 0.500000 0.499957 -0.058822
C25   C     C_1   0.826731 0.500000 0.500042 -0.058822
C26   C     C_R   0.499999 0.328702 0.500000 0.552114
Cu1   Cu    Cu3+1 0.499990 0.500000 0.592680 0.982937
Cu2   Cu    Cu3+1 0.500010 0.500000 0.407320 0.982937
H1    H     H_    0.052144 0.360715 0.413720 0.110248
H2    H     H_    0.947856 0.639285 0.586280 0.110248
H3    H     H_    0.947856 0.362310 0.589315 0.110266
H4    H     H_    0.052143 0.637689 0.410685 0.110266
H5    H     H_    0.947772 0.498404 0.324450 0.111043
H6    H     H_    0.052228 0.501596 0.675550 0.111043
N1    N     N_1   0.500020 0.500000 0.268070 -0.165786
N2    N     N_1   0.499980 0.500000 0.731930 -0.165786
O1    O     O_R   0.499990 0.376050 0.578280 -0.472408
O2    O     O_R   0.500010 0.623950 0.421720 -0.472408
O3    O     O_R   0.500010 0.376050 0.421720 -0.472408
O4    O     O_R   0.499990 0.623950 0.578280 -0.472408
O5    O     O_R   0.379070 0.500000 0.578250 -0.482809
O6    O     O_R   0.620930 0.500000 0.421750 -0.482809
O7    O     O_R   0.379080 0.500000 0.421720 -0.482799
O8    O     O_R   0.620920 0.500000 0.578280 -0.482798

loop_
_geom_bond_atom_site_label_1
_geom_bond_atom_site_label_2
_ccdc_geom_bond_type
C6    C10   S    
C26   O1    A    
C5    C9    S    
Cu1   N2    S    
C9    C10   T    
Cu1   O5    S    
Cu2   O7    S    
C8    C17   S    
Cu2   O2    S    
Cu1   O4    S    
C2    C12   S    
C14   C22   S    
C23   C25   S    
C13   H4    S    
C11   H3    S    
C8    N2    T    
C3    O7    A    
C1    C26   S    
C4    O6    A    
Cu1   O1    S    
C18   C24   T    
Cu1   O8    S    
C14   C21   S    
C15   C23   S    
C7    C16   S    
C11   C23   S    
C20   C22   S    
C13   C22   S    
C22   C24   S    
C13   C15   S    
C21   C23   S    
C6    C12   T    
C15   C20   S    
C19   C25   T    
C11   C14   S    
C1    C5    T    
C26   O3    A    
C21   H5    S    
C14   H1    S    
C13   C21   S    
C20   H6    S    
C2    O4    A    
C3    C18   S    
C15   H2    S    
Cu2   O6    S    
Cu1   Cu2   S    
C2    O2    A    
C3    O5    A    
C4    O8    A    
Cu2   O3    S    
C4    C19   S    
C7    N1    T    
C11   C20   S    
Cu2   N1    S    
C16   C17   T    
