data_mof_unit_37165.cif
_audit_creation_date              2012-12-11T16:08:45-0500
_audit_creation_method            fapswitch 2.2
_symmetry_space_group_name_H-M    P1
_symmetry_Int_Tables_number       1
_space_group_crystal_system       triclinic
_cell_length_a                    12.955239
_cell_length_b                    13.288504
_cell_length_c                    27.717794
_cell_angle_alpha                 95.170766
_cell_angle_beta                  90.117779
_cell_angle_gamma                 119.13247
_cell_volume                      4145.37870448

loop_
_atom_site_label
_atom_site_type_symbol
_atom_type_description
_atom_site_fract_x
_atom_site_fract_y
_atom_site_fract_z
_atom_type_partial_charge
C1    C     C_R   0.627808 0.894374 0.427580 0.551476
C2    C     C_R   0.191122 0.752918 0.297308 0.012490
C3    C     C_3   0.177148 0.484700 0.648363 -0.496691
C4    C     C_R   0.178788 0.747788 0.196778 0.012833
C5    C     C_R   0.600956 0.221702 0.440516 0.542709
C6    C     C_R   0.190848 0.662005 0.217871 -0.132397
C7    C     C_R   0.194931 0.663465 0.267974 -0.127836
C8    C     C_R   0.162189 0.739569 0.146951 -0.127088
C9    C     C_R   0.129970 0.813361 0.126252 -0.003585
C10   C     C_R   0.201427 0.941408 0.356450 -0.138168
C11   C     C_R   0.183998 0.934552 0.306167 0.013022
C12   C     C_R   0.183156 0.841961 0.276517 0.061651
C13   C     C_R   0.569273 0.292669 0.223846 0.302048
C14   C     C_R   0.172595 0.020681 0.284777 -0.134486
C15   C     C_R   0.158254 0.013771 0.234358 -0.111807
C16   C     C_R   0.158434 0.922404 0.204773 0.027626
C17   C     C_R   0.269733 0.876277 0.425382 0.546513
C18   C     C_R   0.174561 0.838117 0.226010 0.061936
C19   C     C_R   0.135230 0.909044 0.154651 -0.118392
C20   C     C_R   0.214822 0.855048 0.376761 -0.007659
C21   C     C_R   0.754721 0.928116 0.358868 -0.178495
C22   C     C_R   0.761512 0.918657 0.309007 0.000635
C23   C     C_R   0.766178 0.911301 0.208366 0.016306
C24   C     C_R   0.560524 0.276347 0.273448 -0.091038
C25   C     C_R   0.859719 0.001606 0.237321 -0.124963
C26   C     C_R   0.858194 0.004366 0.287465 -0.115173
C27   C     C_R   0.770857 0.905075 0.158448 -0.125772
C28   C     C_R   0.687211 0.806002 0.129356 -0.003479
C29   C     C_R   0.626965 0.899100 0.565099 0.539267
C30   C     C_R   0.561337 0.752948 0.352369 0.255069
C31   C     C_R   0.567873 0.742232 0.301758 0.032751
C32   C     C_R   0.666667 0.827378 0.280160 0.018718
C33   C     C_R   0.475182 0.651376 0.272047 -0.122608
C34   C     C_R   0.480869 0.644523 0.221707 -0.155670
C35   C     C_R   0.662605 0.316972 0.303700 -0.006496
C36   C     C_R   0.577919 0.729679 0.200161 0.018628
C37   C     C_R   0.669962 0.822836 0.229561 0.066750
C38   C     C_R   0.587796 0.720854 0.149934 -0.132900
C39   C     C_R   0.651016 0.852939 0.380227 -0.013378
C40   C     C_R   0.743774 0.304950 0.650803 -0.137563
C41   C     C_R   0.603558 0.228276 0.578186 0.546699
C42   C     C_R   0.758178 0.329412 0.701254 0.010398
C43   C     C_R   0.773096 0.356779 0.803177 0.010221
C44   C     C_R   0.864133 0.352414 0.777368 -0.133986
C45   C     C_R   0.856088 0.337430 0.726677 -0.134767
C46   C     C_R   0.681607 0.345279 0.204303 0.048330
C47   C     C_R   0.780798 0.373982 0.853877 -0.134668
C48   C     C_R   0.689656 0.380677 0.878804 -0.003602
C49   C     C_R   0.561866 0.316145 0.651869 -0.133850
C50   C     C_R   0.571667 0.334552 0.702017 0.009326
C51   C     C_R   0.668750 0.338636 0.726998 0.061175
C52   C     C_R   0.481431 0.340738 0.727538 -0.143546
C53   C     C_R   0.272007 0.879792 0.563484 0.546607
C54   C     C_R   0.485173 0.346934 0.777835 -0.144338
C55   C     C_R   0.580866 0.350352 0.802981 0.008559
C56   C     C_R   0.674355 0.348589 0.777736 0.060921
C57   C     C_1   0.693251 0.368275 0.154106 -0.010198
C58   C     C_R   0.586881 0.361049 0.853164 -0.130863
C59   C     C_R   0.641798 0.291362 0.626531 -0.006610
C60   C     C_1   0.223633 0.864135 0.610438 -0.018472
C61   C     C_R   0.074750 0.752721 0.718231 -0.126940
C62   C     C_R   0.059681 0.741795 0.767788 -0.117235
C63   C     C_R   0.244487 0.920560 0.786794 -0.081085
C64   C     C_R   0.259657 0.931380 0.737209 -0.072995
C65   C     C_1   0.632925 0.268349 0.394751 -0.023835
C66   C     C_R   0.174849 0.847525 0.702826 0.036568
C67   C     C_R   0.144639 0.825476 0.802175 0.037187
C68   C     C_1   0.650695 0.295337 0.353938 -0.060466
C69   C     C_1   0.126500 0.813420 0.853013 -0.059527
C70   C     C_1   0.196167 0.855254 0.652003 -0.061643
C71   C     C_1   0.101801 0.796726 0.894516 -0.014812
C72   C     C_1   0.641970 0.864743 0.611064 -0.007654
C73   C     C_R   0.753893 0.841857 0.724976 -0.175307
C74   C     C_R   0.758748 0.832398 0.774551 -0.170262
C75   C     C_R   0.547890 0.766942 0.777408 0.297924
C76   C     C_R   0.543296 0.777086 0.727335 0.299464
C77   C     C_R   0.774179 0.371459 0.284245 -0.123340
C78   C     C_R   0.647288 0.816494 0.701334 -0.009564
C79   C     C_1   0.703400 0.395469 0.113273 -0.002010
C80   C     C_R   0.657241 0.797797 0.801224 -0.006896
C81   C     C_1   0.668254 0.793843 0.852724 -0.034305
C82   C     C_1   0.646768 0.840446 0.651604 -0.028424
C83   C     C_1   0.684709 0.787877 0.894963 -0.014756
C84   C     C_R   0.065948 0.773360 0.078917 0.547264
C85   C     C_R   0.717132 0.441651 0.067366 0.546750
C86   C     C_R   0.720881 0.782942 0.081114 0.547521
C87   C     C_R   0.056654 0.765989 0.941288 0.546453
C88   C     C_R   0.710396 0.434360 0.928819 0.546708
C89   C     C_R   0.783609 0.385507 0.234722 -0.161520
C90   C     C_R   0.201062 0.757381 0.347205 -0.120116
C91   C     C_R   0.716363 0.775857 0.942866 0.544701
C92   C     C_3   0.482722 0.601700 0.399611 0.022371
C93   C     C_3   0.448950 0.487766 0.368463 -0.293828
C94   C     C_3   0.455220 0.399919 0.398400 -0.461606
C95   C     C_3   0.411167 0.316231 0.205831 -0.132576
C96   C     C_3   0.401837 0.621956 0.815863 0.009915
C97   C     C_3   0.268713 0.568783 0.821662 -0.246759
C98   C     C_3   0.216325 0.446726 0.837111 -0.490951
C99   C     C_3   0.377367 0.641734 0.683317 0.017610
C100  C     C_3   0.251025 0.611482 0.668656 -0.242491
Cr1   Cr    Cr6+3 0.416430 0.829200 0.492370 1.032691
Cr2   Cr    Cr6+3 0.674630 0.087020 0.504170 1.017586
Cr3   Cr    Cr6+3 0.408920 0.083740 0.503490 1.012153
Cr4   Cr    Cr6+3 0.914010 0.832750 0.013970 1.024017
Cr5   Cr    Cr6+3 0.922310 0.578600 0.003000 1.019667
Cr6   Cr    Cr6+3 0.656280 0.574630 0.003870 1.020134
H1    H     H_    0.853676 0.402241 0.307222 0.120816
H2    H     H_    0.409231 0.572849 0.199647 0.093198
H3    H     H_    0.397724 0.585473 0.287471 0.138193
H4    H     H_    0.870567 0.428614 0.220193 0.118460
H5    H     H_    0.860156 0.388778 0.873587 0.125480
H6    H     H_    0.806944 0.288160 0.631092 0.123790
H7    H     H_    0.940683 0.359183 0.796347 0.106234
H8    H     H_    0.925739 0.331105 0.707407 0.107701
H9    H     H_    0.515420 0.364838 0.872062 0.132906
H10   H     H_    0.413924 0.350166 0.797081 0.099502
H11   H     H_    0.406400 0.337412 0.708571 0.099630
H12   H     H_    0.146441 0.079361 0.218536 0.097445
H13   H     H_    0.484540 0.308893 0.633161 0.130781
H14   H     H_    0.009510 0.686558 0.692020 0.110866
H15   H     H_    0.982014 0.667853 0.779305 0.118981
H16   H     H_    0.310548 0.985838 0.813006 0.119386
H17   H     H_    0.338137 0.004419 0.725659 0.127123
H18   H     H_    0.834200 0.872184 0.705350 0.132188
H19   H     H_    0.842725 0.854430 0.792381 0.137065
H20   H     H_    0.474089 0.231111 0.288264 0.115274
H21   H     H_    0.161334 0.667329 0.124980 0.131928
H22   H     H_    0.209678 0.689396 0.362552 0.154050
H23   H     H_    0.173586 0.092554 0.307015 0.094334
H24   H     H_    0.193524 0.591986 0.195636 0.099616
H25   H     H_    0.202430 0.595484 0.283797 0.106124
H26   H     H_    0.112437 0.967488 0.138518 0.123553
H27   H     H_    0.426588 0.582296 0.431438 0.153847
H28   H     H_    0.576142 0.642000 0.414444 0.106915
H29   H     H_    0.357299 0.450431 0.352537 0.157599
H30   H     H_    0.510117 0.504557 0.338417 0.156716
H31   H     H_    0.546296 0.434967 0.414483 0.157047
H32   H     H_    0.431046 0.318819 0.374731 0.152973
H33   H     H_    0.392342 0.379166 0.427918 0.147340
H34   H     H_    0.211319 0.016601 0.379256 0.120589
H35   H     H_    0.472631 0.410939 0.205990 0.118393
H36   H     H_    0.369899 0.296716 0.241357 0.097613
H37   H     H_    0.339053 0.291659 0.177970 0.136876
H38   H     H_    0.444411 0.624937 0.851180 0.145108
H39   H     H_    0.417222 0.564434 0.788410 0.100081
H40   H     H_    0.251802 0.623995 0.849489 0.185913
H41   H     H_    0.224280 0.565140 0.786681 0.170827
H42   H     H_    0.226251 0.388436 0.808448 0.139333
H43   H     H_    0.120835 0.412245 0.843086 0.143528
H44   H     H_    0.261281 0.447936 0.871504 0.151487
H45   H     H_    0.846997 0.972677 0.142826 0.131724
H46   H     H_    0.372870 0.579439 0.708680 0.115928
H47   H     H_    0.421959 0.632069 0.650333 0.127297
H48   H     H_    0.208468 0.628081 0.700870 0.185414
H49   H     H_    0.253370 0.667329 0.640711 0.186880
H50   H     H_    0.217370 0.465952 0.615845 0.149479
H51   H     H_    0.086382 0.466249 0.637800 0.144975
H52   H     H_    0.170924 0.427162 0.676233 0.139055
H53   H     H_    0.825467 0.002029 0.380412 0.139319
H54   H     H_    0.934708 0.069145 0.221178 0.094487
H55   H     H_    0.931136 0.075053 0.309388 0.101372
H56   H     H_    0.522449 0.644948 0.127447 0.122637
O1    O     O_R   0.296680 0.802170 0.437540 -0.505205
O2    O     O_R   0.637200 0.461990 0.052510 -0.503895
O3    O     O_R   0.664790 0.681920 0.057970 -0.500309
O4    O     O_R   0.525380 0.838530 0.443500 -0.456995
O5    O     O_R   0.815840 0.852920 0.961840 -0.504945
O6    O     O_R   0.012100 0.822630 0.963670 -0.493829
O7    O     O_R   0.037010 0.668460 0.953040 -0.512648
O8    O     O_R   0.813390 0.478970 0.949660 -0.501543
O9    O     O_R   0.632250 0.456930 0.945520 -0.522138
O10   O     O_R   0.660200 0.677230 0.958780 -0.500552
O11   O     O_3   0.830870 0.661990 0.006950 -0.243762
O12   O     O_R   0.662610 0.183990 0.557860 -0.500629
O13   O     O_R   0.702130 0.995190 0.446810 -0.528640
O14   O     O_R   0.661770 0.181390 0.458760 -0.491729
O15   O     O_R   0.499820 0.198480 0.455280 -0.518534
O16   O     O_R   0.311660 0.976250 0.449080 -0.503367
O17   O     O_R   0.297580 0.804960 0.544440 -0.514951
O18   O     O_R   0.526220 0.841130 0.542590 -0.502608
O19   O     O_R   0.703030 0.997990 0.553710 -0.511966
O20   O     O_3   0.459322 0.675180 0.373019 -0.564859
O21   O     O_3   0.468640 0.251189 0.193629 -0.554142
O22   O     O_3   0.446444 0.735807 0.802762 -0.538972
O23   O     O_R   0.500730 0.201280 0.562180 -0.522222
O24   O     O_3   0.438445 0.757284 0.705100 -0.535303
O25   O     O_R   0.312500 0.978850 0.548170 -0.493850
O26   O     O_3   0.499990 0.999990 0.500010 -0.241947
O27   O     O_R   0.820790 0.857990 0.068830 -0.523763
O28   O     O_R   0.016700 0.827330 0.062850 -0.502127
O29   O     O_R   0.041970 0.673520 0.060040 -0.520461
O30   O     O_R   0.817980 0.483660 0.048840 -0.497389

loop_
_geom_bond_atom_site_label_1
_geom_bond_atom_site_label_2
_ccdc_geom_bond_type
C17   O16   A    
C41   O12   A    
C95   H37   S    
C93   C94   S    
C30   O20   S    
C97   H40   S    
Cr5   O29   S    
C2    C7    A    
Cr3   O23   S    
C4    C8    A    
C93   H30   S    
C2    C12   A    
C63   H16   S    
C97   C98   S    
C40   H6    S    
C46   C89   A    
C66   C70   S    
C85   O30   A    
C96   H39   S    
C77   C89   A    
Cr5   O7    S    
C91   O10   A    
C35   C68   S    
C91   O5    A    
C36   C37   A    
C76   C78   A    
C30   C31   A    
C99   O24   S    
C11   C14   A    
C74   H19   S    
Cr4   O6    S    
Cr2   O14   S    
C15   C16   A    
C87   O7    A    
C53   O17   A    
C17   C20   S    
C84   O29   A    
C2    C90   A    
C51   C56   A    
C73   C74   A    
C69   C71   T    
C57   C79   T    
C3    H50   S    
C17   O1    A    
C45   H8    S    
C9    C19   A    
C92   H27   S    
C10   C20   A    
C8    C9    A    
C13   O21   S    
C29   O18   A    
C54   H10   S    
C3    H52   S    
C50   C52   A    
C73   C78   A    
C31   C33   A    
C84   O28   A    
Cr6   O2    S    
Cr1   O26   S    
C75   C80   A    
C21   H53   S    
C7    H25   S    
C6    H24   S    
C42   C51   A    
C29   C72   S    
C4    C18   A    
C52   H11   S    
C65   C68   T    
C40   C42   A    
C88   O9    A    
Cr5   O11   S    
C21   C22   A    
C61   H14   S    
C24   H20   S    
C94   H33   S    
C97   H41   S    
Cr5   O30   S    
Cr1   O4    S    
C86   O3    A    
C10   H34   S    
C96   O22   S    
C75   O22   S    
C61   C66   A    
C81   C83   T    
C53   C60   S    
C52   C54   A    
C50   C51   A    
C63   C67   A    
C24   C35   A    
C88   O8    A    
Cr5   O8    S    
Cr6   O3    S    
Cr1   O1    S    
Cr3   O25   S    
C41   C59   S    
C4    C6    A    
C3    C100  S    
C25   C26   A    
C23   C37   A    
C20   C90   A    
C89   H4    S    
C35   C77   A    
Cr2   O26   S    
C13   C24   A    
C67   C69   S    
C42   C45   A    
C64   C66   A    
C75   C76   A    
Cr1   O17   S    
C96   H38   S    
C78   C82   S    
C8    H21   S    
C47   C48   A    
C21   C39   A    
C60   C70   T    
C73   H18   S    
Cr4   O28   S    
C96   C97   S    
C55   C56   A    
C48   C88   S    
C33   C34   A    
C41   O23   A    
C32   C37   A    
C77   H1    S    
C5    O15   A    
Cr4   O11   S    
C29   O19   A    
C71   C87   S    
C62   C67   A    
C100  H49   S    
C5    C65   S    
C44   H7    S    
C95   H35   S    
C23   C27   A    
C87   O6    A    
C28   C86   S    
C58   H9    S    
C94   H32   S    
C5    O14   A    
C33   H3    S    
Cr6   O9    S    
C79   C85   S    
C22   C32   A    
C76   O24   S    
C44   C45   A    
C3    H51   S    
C98   H44   S    
C100  H48   S    
C19   H26   S    
C85   O2    A    
C54   C55   A    
C1    O13   A    
C86   O27   A    
C27   H45   S    
C14   C15   A    
C25   H54   S    
Cr6   O10   S    
C31   C32   A    
C92   H28   S    
Cr3   O26   S    
C80   C81   S    
C93   H29   S    
C11   C12   A    
C15   H12   S    
C48   C58   A    
C6    C7    A    
Cr2   O12   S    
C64   H17   S    
C83   C91   S    
C99   H46   S    
C26   H55   S    
C49   C59   A    
C99   C100  S    
Cr3   O16   S    
C34   H2    S    
C36   C38   A    
C53   O25   A    
C46   C57   S    
Cr1   O18   S    
C92   O20   S    
Cr2   O19   S    
Cr4   O5    S    
C95   O21   S    
C49   H13   S    
C98   H42   S    
C1    O4    A    
C43   C44   A    
C16   C19   A    
C47   H5    S    
Cr4   O27   S    
C99   H47   S    
C92   C93   S    
Cr6   O11   S    
C30   C39   A    
C34   C36   A    
C23   C25   A    
C61   C62   A    
C10   C11   A    
C1    C39   S    
C9    C84   S    
C63   C64   A    
C43   C56   A    
C38   H56   S    
C95   H36   S    
C16   C18   A    
C49   C50   A    
C22   C26   A    
C55   C58   A    
C12   C18   A    
C27   C28   A    
C40   C59   A    
C94   H31   S    
C90   H22   S    
C13   C46   A    
C74   C80   A    
Cr3   O15   S    
C28   C38   A    
C43   C47   A    
C14   H23   S    
C62   H15   S    
C72   C82   T    
Cr2   O13   S    
C98   H43   S    
