data_mof_unit_10531.cif
_audit_creation_date              2012-10-26T20:34:02-0400
_audit_creation_method            fapswitch 2.2
_symmetry_space_group_name_H-M    P1
_symmetry_Int_Tables_number       1
_space_group_crystal_system       triclinic
_cell_length_a                    15.899606
_cell_length_b                    9.089362
_cell_length_c                    7.81838
_cell_angle_alpha                 89.987224
_cell_angle_beta                  89.768989
_cell_angle_gamma                 89.995223
_cell_volume                      1129.88175351

loop_
_atom_site_label
_atom_site_type_symbol
_atom_type_description
_atom_site_fract_x
_atom_site_fract_y
_atom_site_fract_z
_atom_type_partial_charge
C1    C     C_R   0.499997 0.220156 0.500011 0.546821
C2    C     C_3   0.049373 0.356650 0.413563 0.183680
C3    C     C_3   0.950144 0.504655 0.689778 0.179381
C4    C     C_3   0.950970 0.355703 0.415780 0.188370
C5    C     C_1   0.749700 0.499805 0.499027 -0.032378
C6    C     C_1   0.250295 0.499769 0.501453 -0.027652
C7    C     C_3   0.082589 0.498388 0.503225 0.048336
C8    C     C_3   0.917358 0.498843 0.501957 0.046354
C9    C     C_3   0.951861 0.634377 0.403469 -0.200087
C10   C     C_3   0.048932 0.636582 0.409411 -0.196214
C11   C     C_3   0.130655 0.226970 0.214079 -0.127115
C12   C     C_1   0.825155 0.499536 0.499794 -0.021724
C13   C     C_3   0.105009 0.596046 0.941025 -0.080955
C14   C     C_3   0.890414 0.202035 0.211056 -0.113510
C15   C     C_3   0.863270 0.602064 0.903779 -0.123366
C16   C     C_1   0.174841 0.499240 0.502528 -0.016008
C17   C     C_R   0.339855 0.500059 0.500366 0.537264
C18   C     C_R   0.660143 0.500007 0.499666 0.537413
C19   C     C_1   0.500000 0.934597 0.499981 -0.051583
C20   C     C_1   0.499998 0.065413 0.500013 -0.053110
C21   C     C_R   0.500002 0.779852 0.499988 0.550193
C22   C     C_3   0.048792 0.501889 0.689885 0.181170
Cu1   Cu    Cu3+1 0.500000 0.500010 0.669080 1.018350
Cu2   Cu    Cu3+1 0.500000 0.500010 0.330920 1.017851
H1    H     H_    0.070317 0.738491 0.474995 0.160321
H2    H     H_    0.094674 0.123743 0.235816 0.108923
H3    H     H_    0.187381 0.229669 0.296705 0.116928
H4    H     H_    0.050773 0.550141 0.013293 0.184909
H5    H     H_    0.125286 0.699423 0.003812 0.126337
H6    H     H_    0.159080 0.518425 0.943007 0.131548
H7    H     H_    0.833647 0.175942 0.288883 0.111913
H8    H     H_    0.940497 0.118955 0.233697 0.115872
H9    H     H_    0.872579 0.196059 0.074209 0.134026
H10   H     H_    0.805768 0.548292 0.853330 0.128343
H11   H     H_    0.844119 0.706105 0.966903 0.134182
H12   H     H_    0.074902 0.642208 0.278551 0.115446
H13   H     H_    0.892968 0.530967 0.001661 0.165015
H14   H     H_    0.926799 0.737863 0.460119 0.149552
H15   H     H_    0.930834 0.631986 0.268298 0.134140
H16   H     H_    0.928671 0.401928 0.756013 0.042215
H17   H     H_    0.929920 0.261754 0.498303 0.032360
H18   H     H_    0.069700 0.397188 0.752368 0.041665
H19   H     H_    0.070483 0.260173 0.491606 0.033041
H20   H     H_    0.152132 0.227571 0.078944 0.134795
N1    N     N_1   0.500000 0.499970 0.076820 -0.081236
N2    N     N_1   0.500000 0.499970 0.923180 -0.081226
O1    O     O_R   0.500000 0.288400 0.642760 -0.495638
O2    O     O_3   0.081491 0.628880 0.772307 -0.532713
O3    O     O_3   0.918935 0.345677 0.246549 -0.544966
O4    O     O_3   0.920444 0.635146 0.770857 -0.528486
O5    O     O_R   0.500000 0.288400 0.357240 -0.496389
O6    O     O_R   0.379440 0.500020 0.642850 -0.496290
O7    O     O_R   0.379440 0.500020 0.357150 -0.499153
O8    O     O_R   0.620560 0.500020 0.642850 -0.502734
O9    O     O_R   0.620560 0.500020 0.357150 -0.496390
O10   O     O_R   0.500000 0.711620 0.642810 -0.493737
O11   O     O_R   0.500000 0.711620 0.357190 -0.495519
O12   O     O_3   0.079717 0.351769 0.242157 -0.548534

loop_
_geom_bond_atom_site_label_1
_geom_bond_atom_site_label_2
_ccdc_geom_bond_type
C8    C9    S    
C7    C10   S    
C22   O2    S    
Cu1   Cu2   S    
C2    O12   S    
C13   H4    S    
C21   O11   A    
C8    C12   S    
C13   O2    S    
C11   O12   S    
C9    C10   S    
C2    H19   S    
C15   H10   S    
C2    C4    S    
C19   C20   T    
C11   H3    S    
C4    O3    S    
C4    C8    S    
C14   H9    S    
C11   H20   S    
Cu1   N2    S    
N1    N2    T    
Cu2   O9    S    
C1    O5    A    
C21   O10   A    
Cu1   O6    S    
C22   H18   S    
C18   O9    A    
Cu1   O8    S    
Cu2   N1    S    
C17   O6    A    
C15   H11   S    
C7    C16   S    
C19   C21   S    
C3    O4    S    
C3    H16   S    
C14   H7    S    
C14   O3    S    
Cu1   O1    S    
C4    H17   S    
C18   O8    A    
C6    C16   T    
C7    C22   S    
C9    H14   S    
C17   O7    A    
C13   H6    S    
Cu1   O10   S    
C10   H1    S    
C5    C12   T    
C3    C8    S    
C1    C20   S    
C15   O4    S    
C13   H5    S    
C6    C17   S    
C15   H13   S    
C3    C22   S    
C10   H12   S    
C5    C18   S    
C11   H2    S    
Cu2   O7    S    
C9    H15   S    
C1    O1    A    
C2    C7    S    
C14   H8    S    
Cu2   O11   S    
Cu2   O5    S    
