data_mof_unit_45933.cif
_audit_creation_date              2012-12-10T16:48:39-0500
_audit_creation_method            fapswitch 2.2
_symmetry_space_group_name_H-M    P1
_symmetry_Int_Tables_number       1
_space_group_crystal_system       triclinic
_cell_length_a                    7.765189
_cell_length_b                    8.585978
_cell_length_c                    10.732568
_cell_angle_alpha                 88.358426
_cell_angle_beta                  99.145635
_cell_angle_gamma                 93.3825
_cell_volume                      705.096945847

loop_
_atom_site_label
_atom_site_type_symbol
_atom_type_description
_atom_site_fract_x
_atom_site_fract_y
_atom_site_fract_z
_atom_type_partial_charge
C1    C     C_R   0.544636 0.794768 0.496732 0.971981
C2    C     C_2   0.431723 0.041856 0.504858 -0.391077
C3    C     C_3   0.217199 0.702854 0.075547 -0.251491
C4    C     C_3   0.847890 0.311161 0.928145 -0.262772
C5    C     C_R   0.455320 0.205225 0.503149 0.950610
C6    C     C_R   0.571419 0.485055 0.736283 0.816765
C7    C     C_R   0.426423 0.503656 0.263543 0.792655
C8    C     C_2   0.608087 0.450487 0.870919 0.326560
C9    C     C_2   0.380555 0.490571 0.127425 0.329539
C10   C     C_2   0.470927 0.423867 0.931955 -0.252856
C11   C     C_2   0.493336 0.421542 0.067531 -0.229644
C12   C     C_2   0.568178 0.958149 0.494873 -0.395477
H1    H     H_    0.614156 0.378193 0.118286 0.188484
H2    H     H_    0.302698 0.990955 0.514340 0.180783
H3    H     H_    0.985382 0.384683 0.407338 0.196345
H4    H     H_    0.014617 0.615293 0.592678 0.199107
H5    H     H_    0.337541 0.419391 0.881877 0.200334
H6    H     H_    0.336678 0.767333 0.051432 0.135595
H7    H     H_    0.196539 0.731624 0.172154 0.169413
H8    H     H_    0.104132 0.743956 0.008808 0.202150
H9    H     H_    0.859366 0.282845 0.829406 0.163215
H10   H     H_    0.768701 0.217144 0.970050 0.133031
H11   H     H_    0.981129 0.314110 0.983737 0.225545
H12   H     H_    0.697196 0.009055 0.485375 0.180238
N1    N     N_2   0.940600 0.458860 0.467170 -0.171292
N2    N     N_2   0.059400 0.541140 0.532830 -0.171524
O1    O     O_R   0.391630 0.738350 0.508060 -0.608613
O2    O     O_3   0.778274 0.458298 0.934395 -0.578619
O3    O     O_R   0.608370 0.261650 0.491940 -0.615350
O4    O     O_R   0.674540 0.711990 0.487010 -0.622470
O5    O     O_R   0.325460 0.288010 0.512990 -0.631228
O6    O     O_R   0.411370 0.508250 0.688780 -0.637848
O7    O     O_R   0.588630 0.491750 0.311220 -0.631086
O8    O     O_R   0.694270 0.481880 0.667740 -0.598707
O9    O     O_R   0.305730 0.518120 0.332260 -0.597959
O10   O     O_3   0.223706 0.540461 0.062185 -0.596490
Zn1   Zn    Zn3+2 0.311100 0.517600 0.514050 0.940254
Zn2   Zn    Zn3+2 0.688900 0.482400 0.485950 0.941897

loop_
_geom_bond_atom_site_label_1
_geom_bond_atom_site_label_2
_ccdc_geom_bond_type
O3    Zn2   S    
C9    O10   S    
C6    O6    A    
N2    Zn1   S    
C3    H7    S    
N1    Zn2   S    
C4    H10   S    
C12   H12   S    
O7    Zn2   S    
C2    C12   D    
C3    H8    S    
O6    Zn1   S    
C4    H9    S    
C7    O7    A    
C1    C12   S    
C3    O10   S    
O1    Zn1   S    
C2    H2    S    
C1    O4    A    
C4    O2    S    
C5    O3    A    
C9    C11   D    
H4    N2    S    
C8    O2    S    
H3    N1    S    
C2    C5    S    
C10   C11   S    
C10   H5    S    
C7    C9    S    
C11   H1    S    
O4    Zn2   S    
C3    H6    S    
C8    C10   D    
C1    O1    A    
C4    H11   S    
C6    C8    S    
O9    Zn1   S    
N1    N2    D    
O8    Zn2   S    
C7    O9    A    
C6    O8    A    
O5    Zn1   S    
C5    O5    A    
