data_mof_unit_57785.cif
_audit_creation_date              2012-12-10T20:27:51-0500
_audit_creation_method            fapswitch 2.2
_symmetry_space_group_name_H-M    P1
_symmetry_Int_Tables_number       1
_space_group_crystal_system       triclinic
_cell_length_a                    12.88134
_cell_length_b                    10.683583
_cell_length_c                    9.859416
_cell_angle_alpha                 90.037177
_cell_angle_beta                  97.100572
_cell_angle_gamma                 89.958605
_cell_volume                      1346.43505412

loop_
_atom_site_label
_atom_site_type_symbol
_atom_type_description
_atom_site_fract_x
_atom_site_fract_y
_atom_site_fract_z
_atom_type_partial_charge
C1    C     C_R   0.497302 0.260105 0.499672 0.892344
C2    C     C_R   0.028831 0.516909 0.563156 0.181058
C3    C     C_R   0.971101 0.482246 0.437577 0.183055
C4    C     C_R   0.864037 0.473546 0.428682 -0.277429
C5    C     C_R   0.870914 0.532359 0.668334 -0.154482
C6    C     C_R   0.978774 0.540869 0.678410 -0.204608
C7    C     C_R   0.498958 0.064174 0.622555 0.141033
C8    C     C_R   0.483727 0.128675 0.499234 -0.075065
C9    C     C_R   0.452116 0.064743 0.376889 -0.215159
C10   C     C_R   0.452743 0.935199 0.376929 -0.211499
C11   C     C_R   0.485490 0.871606 0.499158 -0.121070
C12   C     C_R   0.298140 0.500392 0.473347 0.903430
C13   C     C_R   0.501208 0.936649 0.622405 0.051888
C14   C     C_3   0.588765 0.931775 0.737978 -0.201858
C15   C     C_3   0.585730 0.074096 0.737887 -0.563783
C16   C     C_R   0.454747 0.403848 0.063932 0.203072
C17   C     C_R   0.553144 0.588410 0.080662 -0.124857
C18   C     C_R   0.553213 0.588323 0.936686 -0.123105
C19   C     C_R   0.454727 0.403856 0.921192 0.118816
C20   C     C_3   0.342466 0.366260 0.897507 -0.225041
C21   C     C_3   0.342680 0.365543 0.051945 -0.601151
C22   C     C_R   0.497958 0.739960 0.499727 0.884099
C23   C     C_R   0.701826 0.499536 0.526734 0.895080
C24   C     C_R   0.813930 0.500411 0.542864 -0.066948
C25   C     C_R   0.185991 0.499048 0.457577 -0.040016
C26   C     C_R   0.021142 0.457596 0.322544 -0.204689
C27   C     C_R   0.128951 0.465777 0.332660 -0.196700
C28   C     C_R   0.135867 0.526460 0.571660 -0.232831
H1    H     H_    0.819790 0.447028 0.332091 0.164662
H2    H     H_    0.558329 0.113752 0.831465 0.198225
H3    H     H_    0.656500 0.120457 0.706880 0.195867
H4    H     H_    0.594418 0.661173 0.141697 0.153493
H5    H     H_    0.594661 0.660764 0.889136 0.182331
H6    H     H_    0.291324 0.439999 0.845259 0.188057
H7    H     H_    0.292354 0.439938 0.087821 0.214910
H8    H     H_    0.332856 0.271639 0.097290 0.190245
H9    H     H_    0.832183 0.553070 0.757209 0.192549
H10   H     H_    0.022742 0.566851 0.775225 0.144352
H11   H     H_    0.167477 0.443818 0.244194 0.155304
H12   H     H_    0.180024 0.554360 0.667709 0.146997
H13   H     H_    0.432791 0.113978 0.281055 0.160567
H14   H     H_    0.433396 0.885750 0.281174 0.169200
N1    N     N_R   0.499290 0.499140 0.142710 -0.100114
N2    N     N_R   0.499290 0.499180 0.857070 -0.113848
O1    O     O_R   0.500010 0.316790 0.614690 -0.609022
O2    O     O_R   0.500000 0.316760 0.385350 -0.626855
O3    O     O_R   0.346360 0.499990 0.595720 -0.616630
O4    O     O_R   0.346350 0.499960 0.366370 -0.629253
O5    O     O_R   0.500000 0.683240 0.614650 -0.615152
O6    O     O_R   0.499990 0.683210 0.385310 -0.629481
O7    O     O_R   0.653650 0.500040 0.633630 -0.612420
O8    O     O_R   0.653640 0.500010 0.404280 -0.625566
Zn1   Zn    Zn3+2 0.500010 0.500020 0.653130 0.970717
Zn2   Zn    Zn3+2 0.499990 0.499980 0.346870 0.946669
C29   C     C_2   0.689261 0.879598 0.697895 0.447803
H15   H     H_    0.718476 0.911097 0.605009 0.065088
O9    O     O_2   0.738538 0.801477 0.769585 -0.598922
C30   C     C_2   0.328370 0.239127 0.832846 0.490533
H16   H     H_    0.372495 0.159473 0.877464 0.035921
O10   O     O_2   0.267212 0.224647 0.729238 -0.565416
H17   H     H_    0.977212 0.431089 0.225882 0.143591
H18   H     H_    0.564113 0.889928 0.832212 0.172012

loop_
_geom_bond_atom_site_label_1
_geom_bond_atom_site_label_2
_ccdc_geom_bond_type
C23   C24   S    
C6    H10   S    
C15   H3    S    
C16   C21   S    
C21   H7    S    
C18   N2    A    
C2    C3    A    
C10   H14   S    
C1    C8    S    
C9    C10   A    
C11   C22   S    
C23   O7    A    
C19   C20   S    
C22   O6    A    
C12   C25   S    
O3    Zn1   S    
C20   H6    S    
O2    Zn2   S    
C29   H15   S    
C7    C15   S    
C14   C29   S    
C23   O8    A    
O1    Zn1   S    
C7    C8    A    
C21   H8    S    
C2    C6    A    
C13   C14   S    
C19   N2    A    
C25   C28   A    
O4    Zn2   S    
C11   C13   A    
C16   N1    A    
C1    O1    A    
C26   C27   A    
O6    Zn2   S    
C5    C24   A    
C12   O3    A    
O5    Zn1   S    
C12   O4    A    
O8    Zn2   S    
C17   C18   A    
C5    H9    S    
C22   O5    A    
C16   C19   A    
C5    C6    A    
C4    C24   A    
C18   H5    S    
C1    O2    A    
C25   C27   A    
C10   C11   A    
C28   H12   S    
C30   O10   D    
C3    C4    A    
C14   H18   S    
C7    C13   A    
C20   C21   S    
C15   H2    S    
C9    H13   S    
C17   N1    A    
C17   H4    S    
C14   C15   S    
C2    C28   A    
N1    Zn2   S    
C30   H16   S    
C29   O9    D    
C20   C30   S    
N2    Zn1   S    
C26   H17   S    
C3    C26   A    
C4    H1    S    
C27   H11   S    
C8    C9    A    
O7    Zn1   S    
