data_mof_unit_13301.cif
_audit_creation_date              2012-12-10T17:39:20-0500
_audit_creation_method            fapswitch 2.2
_symmetry_space_group_name_H-M    P1
_symmetry_Int_Tables_number       1
_space_group_crystal_system       triclinic
_cell_length_a                    12.461486
_cell_length_b                    13.152384
_cell_length_c                    27.408566
_cell_angle_alpha                 76.141014
_cell_angle_beta                  101.585362
_cell_angle_gamma                 117.224227
_cell_volume                      3856.56980932

loop_
_atom_site_label
_atom_site_type_symbol
_atom_type_description
_atom_site_fract_x
_atom_site_fract_y
_atom_site_fract_z
_atom_type_partial_charge
C1    C     C_R   0.855084 0.286792 0.502467 0.791419
C2    C     C_R   0.009433 0.471177 0.734983 -0.136655
C3    C     C_R   0.033009 0.583619 0.738903 0.272838
C4    C     C_R   0.045616 0.632709 0.886880 -0.066661
C5    C     C_R   0.941145 0.617384 0.852226 -0.007277
C6    C     C_R   0.839175 0.615103 0.867302 -0.138026
C7    C     C_R   0.148635 0.633597 0.871750 -0.078640
C8    C     C_R   0.010705 0.524113 0.644029 -0.114194
C9    C     C_R   0.010105 0.520706 0.353100 -0.097264
C10   C     C_R   0.932930 0.622694 0.005407 0.027231
C11   C     C_R   0.153764 0.688298 0.019971 -0.020432
C12   C     C_R   0.999539 0.499833 0.592775 0.834606
C13   C     C_R   0.041462 0.651373 0.038709 0.052033
C14   C     C_R   0.822559 0.583320 0.025550 -0.236775
C15   C     C_R   0.816885 0.569115 0.077052 0.216486
C16   C     C_R   0.924437 0.594384 0.110912 -0.057107
C17   C     C_R   0.037586 0.640870 0.091043 -0.108947
C18   C     C_R   0.146951 0.675707 0.123537 -0.108834
C19   C     C_R   0.139657 0.645389 0.176167 0.596643
C20   C     C_R   0.924158 0.574100 0.163854 0.577699
C21   C     C_R   0.016193 0.463013 0.276012 0.185243
C22   C     C_R   0.010043 0.436897 0.328908 0.060933
C23   C     C_R   0.145306 0.714059 0.493110 0.809598
C24   C     C_R   0.020226 0.628407 0.325471 -0.203563
C25   C     C_R   0.030098 0.656469 0.273471 0.158384
C26   C     C_R   0.026226 0.572187 0.248727 0.222632
C27   C     C_R   0.937577 0.630909 0.953187 0.067620
C28   C     C_R   0.045088 0.644178 0.937029 0.077852
C29   C     C_R   0.150954 0.666179 0.971153 -0.003366
C30   C     C_R   0.837120 0.621569 0.916852 -0.208005
C31   C     C_R   0.248571 0.637667 0.908866 0.139070
C32   C     C_R   0.263029 0.749248 0.050180 0.069482
C33   C     C_R   0.258650 0.742733 0.102264 0.204370
C34   C     C_R   0.000401 0.501409 0.407405 0.812191
C35   C     C_R   0.246661 0.653808 0.957620 -0.192592
C36   C     C_R   0.275822 0.022640 0.426172 0.160127
C37   C     C_R   0.228777 0.837768 0.482169 -0.080029
C38   C     C_R   0.813613 0.078107 0.521489 -0.131946
C39   C     C_R   0.733249 0.961170 0.526206 -0.115263
C40   C     C_R   0.609751 0.928375 0.512374 -0.183416
C41   C     C_R   0.564895 0.012383 0.491790 0.098000
C42   C     C_R   0.649313 0.128730 0.478504 0.072835
C43   C     C_R   0.438609 0.982489 0.480750 0.014775
C44   C     C_R   0.400015 0.059002 0.443930 0.078547
C45   C     C_R   0.939632 0.602522 0.803235 0.525299
C46   C     C_R   0.486649 0.169269 0.425472 -0.165027
C47   C     C_R   0.608568 0.204741 0.443489 -0.193760
C48   C     C_R   0.349302 0.880241 0.505683 0.104453
C49   C     C_R   0.192757 0.910430 0.443468 -0.256020
C50   C     C_R   0.772389 0.163672 0.499627 -0.130759
C51   C     C_R   0.343501 0.321626 0.578429 -0.315157
C52   C     C_R   0.774042 0.663060 0.439957 0.059821
C53   C     C_R   0.701985 0.718878 0.438698 0.119570
C54   C     C_R   0.603375 0.664581 0.467043 -0.180397
C55   C     C_R   0.566376 0.548821 0.491939 -0.013754
C56   C     C_R   0.144042 0.625212 0.820441 0.528185
C57   C     C_R   0.654012 0.504426 0.498742 0.216182
C58   C     C_R   0.454516 0.481724 0.515274 -0.072668
C59   C     C_R   0.446033 0.382734 0.552256 0.050583
C60   C     C_R   0.539060 0.344737 0.562571 0.110268
C61   C     C_R   0.641549 0.408106 0.536343 -0.158057
C62   C     C_R   0.347411 0.502895 0.501502 0.261732
C63   C     C_R   0.246583 0.349922 0.566761 0.342054
C64   C     C_R   0.040330 0.667512 0.694960 0.189947
C65   C     C_R   0.027556 0.635473 0.647822 -0.238878
C66   C     C_R   0.995122 0.439895 0.688178 0.125882
Cu1   Cu    Cu3+1 0.098270 0.475420 0.511360 0.997019
Cu2   Cu    Cu3+1 0.901730 0.524580 0.488640 0.926298
H1    H     H_    0.021545 0.690548 0.345540 0.159912
H2    H     H_    0.317744 0.651383 0.986564 0.192520
H3    H     H_    0.099761 0.879498 0.426151 0.180069
H4    H     H_    0.461383 0.230042 0.397421 0.190965
H5    H     H_    0.996916 0.406123 0.768850 0.166438
H6    H     H_    0.907955 0.101182 0.535139 0.183855
H7    H     H_    0.549578 0.836809 0.517384 0.136505
H8    H     H_    0.766212 0.895719 0.542195 0.150464
H9    H     H_    0.670751 0.289906 0.426860 0.180383
H10   H     H_    0.335814 0.249220 0.608453 0.162542
H11   H     H_    0.853809 0.706905 0.419795 0.142192
H12   H     H_    0.759233 0.606485 0.840942 0.190950
H13   H     H_    0.560943 0.716437 0.471350 0.173980
H14   H     H_    0.714574 0.385028 0.548169 0.221298
H15   H     H_    0.737069 0.557316 0.002156 0.158354
H16   H     H_    0.755993 0.620823 0.925446 0.141763
H17   H     H_    0.028028 0.695931 0.613353 0.162200
N1    N     N_R   0.040309 0.607978 0.788222 -0.458149
N2    N     N_R   0.030118 0.597306 0.194836 -0.467966
N3    N     N_R   0.246290 0.438210 0.528570 -0.215262
N4    N     N_R   0.754320 0.561170 0.471730 -0.221630
O1    O     O_R   0.972510 0.318140 0.514280 -0.545730
O2    O     O_2   0.819711 0.529174 0.184914 -0.479370
O3    O     O_2   0.241508 0.634733 0.802226 -0.563758
O4    O     O_2   0.239756 0.658526 0.208798 -0.466336
O5    O     O_R   0.806530 0.359640 0.495100 -0.611574
O6    O     O_R   0.082990 0.479270 0.579320 -0.530254
O7    O     O_R   0.917010 0.520770 0.560140 -0.597803
O8    O     O_R   0.193470 0.640360 0.504900 -0.562328
O9    O     O_R   0.027490 0.681860 0.485720 -0.597465
O10   O     O_R   0.082990 0.479230 0.439860 -0.550863
O11   O     O_R   0.917010 0.520730 0.420680 -0.588087
O12   O     O_2   0.837672 0.581396 0.770802 -0.540175
I1    I     I_    0.924100 0.260212 0.689100 -0.355195
C67   C     C_3   0.062131 0.788516 0.700084 -0.366677
C68   C     C_3   0.056389 0.870803 0.650665 -0.831042
H18   H     H_    0.130308 0.890619 0.628199 0.249087
H19   H     H_    0.966863 0.832724 0.628237 0.257956
H20   H     H_    0.068156 0.953768 0.659359 0.271751
H21   H     H_    0.992877 0.780787 0.722386 0.236234
H22   H     H_    0.152492 0.829597 0.721529 0.212626
C69   C     C_3   0.353804 0.620491 0.897229 -0.315568
C70   C     C_3   0.445143 0.606613 0.941810 -0.878191
H23   H     H_    0.496219 0.687941 0.957761 0.254829
H24   H     H_    0.398501 0.532989 0.971473 0.272306
H25   H     H_    0.511754 0.588052 0.928429 0.251067
H26   H     H_    0.315419 0.540170 0.880535 0.241801
H27   H     H_    0.405800 0.695902 0.869378 0.244756
C71   C     C_3   0.377347 0.838389 0.025582 -0.388904
C72   C     C_3   0.484749 0.805827 0.040527 -0.749562
H28   H     H_    0.454540 0.711248 0.054077 0.261528
H29   H     H_    0.536421 0.832196 0.007539 0.228333
H30   H     H_    0.548636 0.852498 0.070739 0.278613
H31   H     H_    0.359288 0.853926 0.983819 0.206017
H32   H     H_    0.404475 0.924538 0.035540 0.225663
I2    I     I_    0.414002 0.856041 0.145580 -0.236674
C73   C     C_3   0.043901 0.774300 0.242918 -0.381352
C74   C     C_3   0.052535 0.862659 0.272873 -0.746165
H33   H     H_    0.967777 0.830589 0.290722 0.258280
H34   H     H_    0.131818 0.880920 0.302150 0.262202
H35   H     H_    0.064850 0.945271 0.246841 0.267852
H36   H     H_    0.127506 0.813606 0.223477 0.226715
H37   H     H_    0.965438 0.761144 0.213424 0.226398
I3    I     I_    0.205746 0.126532 0.370293 -0.364833
C75   C     C_3   0.375705 0.829958 0.560739 -0.416785
C76   C     C_3   0.300238 0.839924 0.595143 -0.821570
H38   H     H_    0.202949 0.797641 0.581804 0.233432
H39   H     H_    0.315718 0.797256 0.634343 0.263375
H40   H     H_    0.326244 0.932730 0.595243 0.250088
H41   H     H_    0.359709 0.738384 0.564719 0.231359
H42   H     H_    0.470599 0.878266 0.576314 0.218181
I4    I     I_    0.101349 0.236418 0.609059 -0.340545
C77   C     C_3   0.525533 0.234071 0.600660 -0.411957
C78   C     C_3   0.622298 0.191070 0.604451 -0.792502
H43   H     H_    0.626047 0.174476 0.567248 0.254218
H44   H     H_    0.711842 0.255586 0.618111 0.267285
H45   H     H_    0.599407 0.108551 0.631778 0.260914
H46   H     H_    0.523614 0.247885 0.638867 0.224766
H47   H     H_    0.437789 0.162023 0.589933 0.209667
I5    I     I_    0.333240 0.613509 0.430410 -0.304807
I6    I     I_    0.747811 0.888154 0.397678 -0.345723
C79   C     C_3   0.997921 0.319581 0.358935 -0.371956
C80   C     C_3   0.866684 0.239950 0.369195 -0.738891
H48   H     H_    0.831447 0.281068 0.388876 0.216246
H49   H     H_    0.808590 0.219908 0.333130 0.284361
H50   H     H_    0.861871 0.157836 0.393667 0.271371
H51   H     H_    0.029866 0.275693 0.339377 0.256771
H52   H     H_    0.057132 0.329763 0.395162 0.233640
I7    I     I_    0.004898 0.338882 0.234621 -0.237125
I8    I     I_    0.637386 0.509558 0.096393 -0.255738

loop_
_geom_bond_atom_site_label_1
_geom_bond_atom_site_label_2
_ccdc_geom_bond_type
C10   C27   A    
C58   C62   A    
C64   C67   S    
C53   I6    S    
C21   C26   A    
C22   C79   S    
C8    C66   A    
C1    O1    A    
C63   N3    A    
C41   C42   A    
C66   I1    S    
C70   H23   S    
C32   C71   S    
C71   H31   S    
C76   H40   S    
C68   H19   S    
C3    C64   A    
Cu1   N3    S    
Cu2   O7    S    
C57   N4    A    
C14   H15   S    
C28   C29   A    
C19   N2    A    
C61   H14   S    
C36   I3    S    
C38   H6    S    
C5    C6    A    
C9    C22   A    
C15   C16   A    
C20   N2    A    
C18   C19   A    
C63   I4    S    
C80   H50   S    
C25   C73   S    
C72   H28   S    
C69   C70   S    
C56   N1    A    
C73   H36   S    
C35   H2    S    
C16   C17   A    
C33   I2    S    
C34   O11   A    
C80   H48   S    
C12   O6    A    
C67   H21   S    
C52   H11   S    
C43   C48   A    
C46   H4    S    
C19   O4    S    
Cu1   O10   S    
C73   C74   S    
C75   H41   S    
C79   H52   S    
C21   C22   A    
C3    N1    S    
Cu1   O6    S    
C41   C43   A    
C78   H45   S    
C52   N4    A    
C7    C56   A    
C4    C7    A    
C68   H18   S    
C4    C28   A    
C44   C46   A    
C24   H1    S    
C17   C18   A    
C72   H29   S    
C20   O2    S    
C7    C31   A    
Cu1   Cu2   S    
C48   C75   S    
C51   C63   A    
C24   C25   A    
C15   I8    S    
C10   C14   A    
C39   C40   A    
C77   H47   S    
C26   N2    S    
C76   H39   S    
C74   H35   S    
C58   C59   A    
C23   C37   S    
C62   N3    A    
Cu1   O1    S    
Cu2   O5    S    
C60   C61   A    
C72   H30   S    
C43   C44   A    
Cu2   O11   S    
C30   H16   S    
C60   C77   S    
C37   C49   A    
C73   H37   S    
C6    H12   S    
C14   C15   A    
C56   O3    S    
C8    C12   S    
Cu2   N4    S    
C70   H24   S    
C16   C20   A    
C39   H8    S    
C68   H20   S    
C37   C48   A    
C57   C61   A    
C2    H5    S    
C45   O12   S    
C77   H46   S    
C42   C50   A    
C40   C41   A    
C23   O8    A    
C11   C32   A    
C75   H42   S    
C79   H51   S    
C55   C57   A    
C75   C76   S    
C31   C35   A    
C36   C44   A    
C51   C59   A    
C47   H9    S    
C53   C54   A    
C69   H27   S    
C67   C68   S    
C52   C53   A    
C1    C50   S    
C54   C55   A    
C46   C47   A    
C74   H34   S    
C6    C30   A    
C79   C80   S    
C21   I7    S    
C4    C5    A    
C2    C66   A    
C10   C13   A    
C1    O5    A    
C9    C24   A    
C65   H17   S    
C76   H38   S    
C38   C50   A    
C34   O10   A    
C29   C35   A    
C40   H7    S    
C13   C17   A    
C67   H22   S    
C32   C33   A    
C2    C3    A    
C25   C26   A    
C51   H10   S    
C77   C78   S    
C64   C65   A    
C11   C13   A    
C38   C39   A    
C5    C45   A    
C74   H33   S    
C31   C69   S    
C9    C34   S    
C45   N1    A    
C70   H25   S    
C78   H44   S    
C42   C47   A    
C80   H49   S    
C71   H32   S    
C18   C33   A    
Cu2   O9    S    
C8    C65   A    
Cu1   O8    S    
C59   C60   A    
C23   O9    A    
C11   C29   A    
C49   H3    S    
C55   C58   A    
C27   C28   A    
C78   H43   S    
C12   O7    A    
C62   I5    S    
C71   C72   S    
C69   H26   S    
C54   H13   S    
C36   C49   A    
C27   C30   A    
