data_mof_unit_11297.cif
_audit_creation_date              2012-12-10T17:19:22-0500
_audit_creation_method            fapswitch 2.2
_symmetry_space_group_name_H-M    P1
_symmetry_Int_Tables_number       1
_space_group_crystal_system       triclinic
_cell_length_a                    15.018424
_cell_length_b                    10.817579
_cell_length_c                    9.686279
_cell_angle_alpha                 89.706395
_cell_angle_beta                  89.743168
_cell_angle_gamma                 93.244946
_cell_volume                      1571.10014669

loop_
_atom_site_label
_atom_site_type_symbol
_atom_type_description
_atom_site_fract_x
_atom_site_fract_y
_atom_site_fract_z
_atom_type_partial_charge
C1    C     C_R   0.508173 0.263743 0.500832 0.796869
C2    C     C_R   0.908805 0.617234 0.515646 -0.222140
C3    C     C_R   0.944648 0.280613 0.475647 0.642732
C4    C     C_R   0.037975 0.279903 0.478022 -0.011113
C5    C     C_R   0.089268 0.393647 0.490607 0.074337
C6    C     C_R   0.046597 0.506982 0.501817 -0.045136
C7    C     C_R   0.097484 0.621861 0.512255 -0.080038
C8    C     C_R   0.051646 0.732197 0.527716 0.479122
C9    C     C_R   0.959074 0.729330 0.529515 0.629120
C10   C     C_R   0.182405 0.396535 0.492468 -0.214867
C11   C     C_R   0.232895 0.507958 0.500112 -0.043328
C12   C     C_R   0.329348 0.501215 0.500170 0.790903
C13   C     C_R   0.192037 0.622293 0.506076 0.128762
C14   C     C_R   0.554032 0.112210 0.754719 0.181802
C15   C     C_R   0.518840 0.061061 0.879402 0.128850
C16   C     C_R   0.458639 0.955268 0.874075 0.033511
C17   C     C_R   0.447394 0.891451 0.749180 0.586303
C18   C     C_R   0.487662 0.939437 0.626920 -0.149000
C19   C     C_R   0.521932 0.062583 0.628449 -0.008160
C20   C     C_R   0.520311 0.130280 0.503475 -0.152605
C21   C     C_R   0.516104 0.066680 0.379231 -0.252255
C22   C     C_R   0.509030 0.938976 0.377754 0.618613
C23   C     C_R   0.496244 0.737542 0.500180 0.916814
C24   C     C_R   0.493110 0.872851 0.501403 -0.175312
C25   C     C_R   0.619716 0.674736 0.134266 0.655630
C26   C     C_R   0.671677 0.759378 0.056000 -0.269531
C27   C     C_R   0.669545 0.756215 0.915013 0.510983
C28   C     C_R   0.615106 0.668102 0.850028 -0.203654
C29   C     C_R   0.556977 0.583216 0.923123 0.033119
C30   C     C_R   0.557903 0.584382 0.072504 -0.063095
C31   C     C_R   0.445257 0.421573 0.074405 0.669235
C32   C     C_R   0.445655 0.421372 0.927262 -0.104356
C33   C     C_R   0.670472 0.499383 0.499794 0.883249
C34   C     C_R   0.815370 0.614214 0.515706 0.696878
C35   C     C_R   0.766615 0.501800 0.499556 -0.207760
C36   C     C_R   0.809066 0.391549 0.484810 -0.275433
C37   C     C_R   0.902078 0.391951 0.487270 0.025042
C38   C     C_R   0.952636 0.505404 0.501723 -0.170048
Cu1   Cu    Cu3+1 0.499990 0.499990 0.640660 0.991374
Cu2   Cu    Cu3+1 0.500010 0.500010 0.359340 1.072534
H1    H     H_    0.716116 0.827300 0.106415 0.229229
H2    H     H_    0.622118 0.671076 0.741561 0.255109
H3    H     H_    0.769083 0.305715 0.472409 0.202028
H4    H     H_    0.400961 0.356341 0.873464 0.161905
H5    H     H_    0.217523 0.311989 0.486585 0.147526
H6    H     H_    0.519045 0.116730 0.283554 0.184984
N1    N     N_R   0.500860 0.501210 0.147910 -0.224263
N2    N     N_R   0.500890 0.501290 0.852040 -0.192950
O1    O     O_R   0.499990 0.319640 0.618810 -0.594992
O2    O     O_R   0.500000 0.319660 0.381240 -0.551132
O3    O     O_R   0.370250 0.499960 0.618800 -0.548757
O4    O     O_R   0.370260 0.499980 0.381230 -0.538573
O5    O     O_R   0.500000 0.680340 0.618760 -0.560363
O6    O     O_R   0.500010 0.680360 0.381190 -0.479682
O7    O     O_R   0.629740 0.500020 0.618770 -0.622075
O8    O     O_R   0.629750 0.500040 0.381200 -0.520903
F1    F     F_    0.771027 0.719668 0.530102 -0.563424
C39   C     C_3   0.634274 0.203937 0.755562 -0.684556
H7    H     H_    0.688790 0.165045 0.816205 0.252146
H8    H     H_    0.661298 0.222313 0.650254 0.211091
H9    H     H_    0.616969 0.293121 0.801848 0.228713
C40   C     C_3   0.544142 0.117960 0.015978 -0.807268
H10   H     H_    0.593095 0.198063 0.009537 0.221820
H11   H     H_    0.483593 0.152623 0.064661 0.248608
H12   H     H_    0.574177 0.046823 0.080950 0.282878
C41   C     C_3   0.407129 0.904684 0.998140 -0.632245
H13   H     H_    0.431648 0.813284 0.027484 0.261187
H14   H     H_    0.411334 0.966711 0.088417 0.247822
H15   H     H_    0.335262 0.892223 0.972030 0.239383
F2    F     F_    0.388376 0.791576 0.745418 -0.671936
F3    F     F_    0.515946 0.881294 0.254905 -0.687751
F4    F     F_    0.388127 0.341156 0.142783 -0.665851
F5    F     F_    0.636632 0.688323 0.268551 -0.591775
F6    F     F_    0.722284 0.837659 0.839942 -0.578403
F7    F     F_    0.894781 0.172335 0.462640 -0.619070
C42   C     C_3   0.081630 0.157615 0.466163 -0.625883
H16   H     H_    0.125235 0.158641 0.373237 0.212701
H17   H     H_    0.121944 0.141632 0.559728 0.232422
H18   H     H_    0.032568 0.077593 0.456329 0.327354
C43   C     C_3   0.248798 0.742740 0.500930 -0.628713
H19   H     H_    0.320076 0.729806 0.482624 0.176287
H20   H     H_    0.227326 0.801018 0.413859 0.242728
H21   H     H_    0.243386 0.792655 0.600101 0.299128
F8    F     F_    0.094590 0.844802 0.544241 -0.656214
F9    F     F_    0.918989 0.837993 0.544719 -0.516220

loop_
_geom_bond_atom_site_label_1
_geom_bond_atom_site_label_2
_ccdc_geom_bond_type
C33   O7    A    
Cu2   N1    S    
Cu1   O3    S    
C41   H14   S    
C19   C20   A    
C42   H18   S    
C7    C8    A    
C26   C27   A    
C37   C38   A    
C18   C24   A    
C36   C37   A    
C42   H17   S    
C18   C19   A    
C5    C6    A    
C41   H15   S    
C16   C17   A    
C39   H8    S    
C15   C16   A    
C34   C35   A    
C40   H11   S    
C9    F9    S    
Cu1   O7    S    
C40   H10   S    
C35   C36   A    
C8    C9    A    
Cu2   O8    S    
C34   F1    S    
C23   C24   S    
C6    C38   A    
C27   F6    S    
C3    F7    S    
C1    O2    A    
C2    C34   A    
C39   H9    S    
C41   H13   S    
C13   C43   S    
C17   F2    S    
C31   N1    A    
C21   C22   A    
C32   N2    A    
C43   H21   S    
C12   O4    A    
C23   O5    A    
C14   C39   S    
C29   N2    A    
C30   N1    A    
C42   H16   S    
C43   H20   S    
Cu1   Cu2   S    
C4    C5    A    
C25   C26   A    
Cu2   O4    S    
C29   C30   A    
C2    C38   A    
C31   C32   A    
C10   H5    S    
C17   C18   A    
C32   H4    S    
C31   F4    S    
Cu1   O1    S    
Cu2   O6    S    
C22   C24   A    
C16   C41   S    
C3    C4    A    
C22   F3    S    
C12   O3    A    
C23   O6    A    
C21   H6    S    
C25   C30   A    
C28   C29   A    
C1    C20   S    
C40   H12   S    
C8    F8    S    
C14   C19   A    
C43   H19   S    
C11   C12   S    
C6    C7    A    
C39   H7    S    
C5    C10   A    
C11   C13   A    
Cu1   O5    S    
C33   O8    A    
Cu2   O2    S    
C28   H2    S    
C33   C35   S    
C15   C40   S    
C25   F5    S    
C4    C42   S    
C10   C11   A    
C7    C13   A    
C20   C21   A    
C3    C37   A    
C27   C28   A    
C14   C15   A    
C36   H3    S    
C2    C9    A    
C1    O1    A    
C26   H1    S    
Cu1   N2    S    
