data_mof_unit_40882.cif
_audit_creation_date              2012-12-11T19:58:26-0500
_audit_creation_method            fapswitch 2.2
_symmetry_space_group_name_H-M    P1
_symmetry_Int_Tables_number       1
_space_group_crystal_system       triclinic
_cell_length_a                    8.301527
_cell_length_b                    16.176346
_cell_length_c                    22.865892
_cell_angle_alpha                 107.795981
_cell_angle_beta                  88.986701
_cell_angle_gamma                 84.01392
_cell_volume                      2903.76993314

loop_
_atom_site_label
_atom_site_type_symbol
_atom_type_description
_atom_site_fract_x
_atom_site_fract_y
_atom_site_fract_z
_atom_type_partial_charge
Ba1   Ba    Ba6+2 0.335320 0.541410 0.478120 1.631672
Ba2   Ba    Ba6+2 0.854470 0.458670 0.521900 1.638410
C1    C     C_3   0.086596 0.871541 0.400897 -0.360472
C2    C     C_R   0.611495 0.555303 0.944403 -0.024380
C3    C     C_R   0.558159 0.554745 0.885540 0.596091
C4    C     C_3   0.547186 0.774973 0.350500 0.356091
C5    C     C_R   0.481670 0.410838 0.868045 0.570483
C6    C     C_R   0.528774 0.411086 0.927484 -0.038494
C7    C     C_R   0.595187 0.483109 0.965696 -0.051450
C8    C     C_R   0.680864 0.626845 0.982565 -0.080367
C9    C     C_R   0.733497 0.626596 0.040120 -0.079020
C10   C     C_R   0.716690 0.555328 0.062184 -0.013108
C11   C     C_R   0.646043 0.483058 0.025141 -0.062784
C12   C     C_3   0.073552 0.776424 0.397625 0.332062
C13   C     C_R   0.510603 0.339740 0.948896 -0.065602
C14   C     C_R   0.556138 0.338107 0.007915 0.049749
C15   C     C_R   0.628342 0.410947 0.046990 -0.051079
C16   C     C_3   0.440184 0.762160 0.294268 -0.194513
C17   C     C_R   0.683306 0.414880 0.107048 0.578721
C18   C     C_R   0.767642 0.556469 0.120975 0.568899
C19   C     C_2   0.313368 0.443629 0.760913 -0.093233
C20   C     C_3   0.296830 0.416570 0.692202 -0.054215
C21   C     C_1   0.497994 0.515144 0.687375 0.036367
C22   C     C_2   0.547178 0.515203 0.742989 -0.110116
C23   C     C_3   0.062237 0.329787 0.324910 0.298998
C24   C     C_2   0.447252 0.480416 0.784670 0.191653
C25   C     C_R   0.916496 0.534115 0.236077 -0.118007
C26   C     C_R   0.941343 0.549764 0.298751 -0.010563
C27   C     C_R   0.705838 0.478055 0.310422 0.033536
C28   C     C_3   0.614071 0.727935 0.631245 0.315186
C29   C     C_R   0.674679 0.466521 0.247748 -0.113909
C30   C     C_R   0.778732 0.495768 0.209325 0.202788
C31   C     C_2   0.375473 0.473472 0.661793 -0.281477
C32   C     C_2   0.396862 0.242134 0.487326 -0.288268
C33   C     C_R   0.804658 0.750217 0.512836 -0.294899
C34   C     C_3   0.061508 0.304624 0.255172 -0.371866
C35   C     C_2   0.244927 0.123854 0.428546 -0.129775
C36   C     C_2   0.260867 0.209382 0.449514 0.047865
C37   C     C_2   0.507026 0.187251 0.502815 0.002799
C38   C     C_3   0.466280 0.096186 0.496321 -0.049836
C39   C     C_3   0.370520 0.057537 0.439652 0.002946
C40   C     C_3   0.586325 0.826508 0.661327 -0.382177
C41   C     C_2   0.607062 0.032836 0.498506 -0.088709
C42   C     C_2   0.579112 0.966222 0.518266 -0.087620
C43   C     C_R   0.848995 0.927208 0.551657 -0.012392
C44   C     C_R   0.709230 0.900128 0.521647 -0.034190
C45   C     C_3   0.658296 0.270351 0.655606 0.369281
C46   C     C_R   0.963878 0.866352 0.563706 -0.150664
C47   C     C_R   0.938447 0.778256 0.545901 0.066645
C48   C     C_R   0.688175 0.810857 0.501399 0.001341
C49   C     C_3   0.583071 0.273294 0.372418 0.312866
C50   C     C_3   0.615243 0.174516 0.343997 -0.381904
C51   C     C_3   0.135076 0.652762 0.668368 0.303580
C52   C     C_3   0.134070 0.674968 0.737999 -0.362269
C53   C     C_3   0.553395 0.185236 0.723527 -0.192292
C54   C     C_3   0.568161 0.096598 0.673713 -0.403467
C55   C     C_3   0.525416 0.259808 0.029243 -0.168094
C56   C     C_3   0.679426 0.243866 0.714113 -0.168320
C57   C     C_3   0.434721 0.189517 0.986309 -0.472992
C58   C     C_3   0.663866 0.843300 0.351393 -0.223440
C59   C     C_3   0.774283 0.820817 0.293014 -0.426928
C60   C     C_3   0.499006 0.682660 0.239498 -0.264437
C61   C     C_3   0.376714 0.667303 0.189188 -0.366509
C62   C     C_3   0.136941 0.227642 0.627849 0.360007
C63   C     C_3   0.124374 0.140835 0.639629 -0.381442
C64   C     C_R   0.835990 0.522367 0.335366 -0.288654
H1    H     H_    0.176193 0.756254 0.422320 0.131139
H2    H     H_    0.262111 0.637564 0.649609 0.012958
H3    H     H_    0.068886 0.594756 0.650119 0.077085
H4    H     H_    0.170410 0.876113 0.364125 0.135435
H5    H     H_    0.204814 0.730830 0.757443 0.130515
H6    H     H_    0.188874 0.617963 0.750925 0.070661
H7    H     H_    0.007427 0.692589 0.757833 0.135517
H8    H     H_    0.958946 0.773614 0.421468 -0.025133
H9    H     H_    0.934897 0.345101 0.343871 0.019956
H10   H     H_    0.127519 0.388485 0.341851 0.053740
H11   H     H_    0.994969 0.246694 0.237063 0.137972
H12   H     H_    0.660835 0.845897 0.702131 0.127260
H13   H     H_    0.001069 0.359334 0.241108 0.070993
H14   H     H_    0.967775 0.906730 0.397352 0.082663
H15   H     H_    0.714439 0.331801 0.661999 0.069457
H16   H     H_    0.527241 0.282580 0.648541 -0.072188
H17   H     H_    0.803747 0.211002 0.714073 0.130384
H18   H     H_    0.667234 0.304309 0.754046 0.093055
H19   H     H_    0.267022 0.238559 0.629674 -0.069426
H20   H     H_    0.095677 0.222394 0.580978 0.075888
H21   H     H_    0.208107 0.088668 0.606650 0.066690
H22   H     H_    0.617483 0.711503 0.348642 0.005834
H23   H     H_    0.620703 0.860670 0.628634 0.062354
H24   H     H_    0.158215 0.145309 0.687176 0.116341
H25   H     H_    0.458883 0.284962 0.918612 0.126275
H26   H     H_    0.786508 0.683326 0.067687 0.121604
H27   H     H_    0.005507 0.552415 0.208705 0.125109
H28   H     H_    0.695752 0.683377 0.967904 0.122499
H29   H     H_    0.662204 0.538343 0.757802 0.142033
H30   H     H_    0.230217 0.421933 0.788743 0.124981
H31   H     H_    0.568843 0.435799 0.229572 0.121217
H32   H     H_    0.858804 0.533157 0.383414 0.083291
H33   H     H_    0.351770 0.464621 0.613878 0.079266
H34   H     H_    0.456213 0.847134 0.675977 0.125394
H35   H     H_    0.149655 0.100818 0.397843 0.077179
H36   H     H_    0.068173 0.888418 0.589148 0.094645
H37   H     H_    0.415215 0.310393 0.497144 0.062316
H38   H     H_    0.786478 0.681765 0.499125 0.069855
H39   H     H_    0.727002 0.037271 0.480733 0.101079
H40   H     H_    0.456046 0.960160 0.531957 0.109243
H41   H     H_    0.320112 0.751253 0.307907 0.187221
H42   H     H_    0.744001 0.708353 0.617538 0.005235
H43   H     H_    0.539832 0.710388 0.590247 0.066933
H44   H     H_    0.132256 0.906773 0.446066 0.112277
H45   H     H_    0.454262 0.291746 0.387856 -0.002748
H46   H     H_    0.187922 0.288984 0.235025 0.125321
H47   H     H_    0.422930 0.822043 0.279766 0.086556
H48   H     H_    0.694847 0.064431 0.668078 0.146281
H49   H     H_    0.529735 0.105033 0.629540 0.151603
H50   H     H_    0.487313 0.053744 0.686607 0.114216
H51   H     H_    0.570916 0.174083 0.768720 0.141966
H52   H     H_    0.428957 0.218923 0.724970 0.148733
H53   H     H_    0.999224 0.122731 0.633282 0.149257
H54   H     H_    0.313798 0.218276 0.977347 0.144839
H55   H     H_    0.506898 0.156931 0.942408 0.138851
H56   H     H_    0.660925 0.293468 0.412065 0.074335
H57   H     H_    0.415712 0.138863 0.008543 0.143222
H58   H     H_    0.643903 0.226685 0.036641 0.161134
H59   H     H_    0.451856 0.284362 0.073475 0.151601
H60   H     H_    0.831086 0.752141 0.280234 0.181801
H61   H     H_    0.704492 0.830840 0.254328 0.132439
H62   H     H_    0.870907 0.864750 0.300192 0.144962
H63   H     H_    0.593904 0.908365 0.358500 0.122722
H64   H     H_    0.738778 0.848998 0.391382 0.084777
H65   H     H_    0.257702 0.657323 0.207341 0.165492
H66   H     H_    0.360484 0.724040 0.171295 0.133044
H67   H     H_    0.531992 0.151792 0.306375 0.125755
H68   H     H_    0.421163 0.607947 0.150675 0.117259
H69   H     H_    0.614261 0.693341 0.220365 0.176140
H70   H     H_    0.517737 0.623969 0.254822 0.148245
H71   H     H_    0.596247 0.141535 0.379026 0.059119
H72   H     H_    0.742674 0.155907 0.325112 0.125970
N1    N     N_R   0.495552 0.482360 0.847012 -0.418775
N2    N     N_R   0.742898 0.488986 0.144911 -0.413361
O1    O     O_2   0.414630 0.451750 0.353890 -0.463179
O2    O     O_2   0.842519 0.188515 0.494397 -0.486918
O3    O     O_3   0.736534 0.204185 0.605249 -0.604450
O4    O     O_3   0.654720 0.452660 0.425060 -0.497799
O5    O     O_3   0.021450 0.605740 0.544090 -0.489761
O6    O     O_2   0.953100 0.285520 0.441860 -0.457630
O7    O     O_3   0.140358 0.259309 0.340931 -0.639755
O8    O     O_2   0.955216 0.465071 0.704011 -0.494113
O9    O     O_3   0.039568 0.295341 0.672223 -0.595239
O10   O     O_2   0.565629 0.619488 0.869205 -0.597694
O11   O     O_2   0.429692 0.345777 0.834823 -0.638073
O12   O     O_3   0.060044 0.724902 0.653578 -0.632288
O13   O     O_2   0.682750 0.351356 0.125054 -0.620776
O14   O     O_2   0.833343 0.618780 0.150958 -0.634631
O15   O     O_3   0.116150 0.611500 0.411510 -0.491655
O16   O     O_2   0.274751 0.572643 0.303763 -0.496982
O17   O     O_3   0.617545 0.311866 0.327503 -0.628912
O18   O     O_3   0.076662 0.721085 0.336416 -0.635791
O19   O     O_2   0.236590 0.714510 0.558180 -0.458124
O20   O     O_3   0.511480 0.656670 0.446630 -0.474010
O21   O     O_2   0.363763 0.810487 0.513433 -0.499701
O22   O     O_3   0.441536 0.807985 0.403607 -0.621873
O23   O     O_2   0.775060 0.548280 0.646150 -0.459178
O24   O     O_3   0.534950 0.547420 0.574950 -0.500864
O25   O     O_3   0.073530 0.388570 0.588510 -0.474391
O26   O     O_3   0.569394 0.687886 0.674209 -0.625119
O27   O     O_3   0.168220 0.394330 0.455930 -0.477470
O28   O     O_3   0.678190 0.343400 0.553390 -0.488113
P1    P     P_3+3 0.594550 0.425840 0.359090 0.995542
P2    P     P_3+3 0.065650 0.701630 0.573510 0.980127
P3    P     P_3+3 0.504959 0.770508 0.464943 0.916727
P4    P     P_3+3 0.595130 0.574230 0.640920 0.991243
P5    P     P_3+3 0.691686 0.230168 0.538133 0.942447
P6    P     P_3+3 0.105577 0.611369 0.335760 0.927819
P7    P     P_3+3 0.133739 0.285680 0.421087 0.952810
P8    P     P_3+3 0.089367 0.394789 0.665714 0.946116

loop_
_geom_bond_atom_site_label_1
_geom_bond_atom_site_label_2
_ccdc_geom_bond_type
C57   H55   S    
C35   H35   S    
C53   C54   S    
O26   P4    S    
C57   H54   S    
O19   P2    D    
Ba2   O4    S    
Ba1   O5    S    
C19   C24   D    
C51   H3    S    
C5    C6    A    
C26   P6    S    
C43   C44   A    
O25   P8    S    
O16   P6    D    
C35   C36   D    
C18   O14   D    
C12   O18   S    
C12   H8    S    
C22   C24   S    
C30   N2    S    
C40   H34   S    
C34   H11   S    
C55   H59   S    
C47   P2    S    
O7    P7    S    
C55   C57   S    
Ba1   O27   S    
C1    H44   S    
C13   C14   A    
C45   O3    S    
Ba1   P2    S    
C4    H22   S    
Ba1   Ba2   S    
C41   H39   S    
C45   H16   S    
C60   H70   S    
Ba1   O15   S    
C51   H2    S    
C7    C11   A    
C16   H41   S    
C23   H9    S    
O17   P1    S    
C9    H26   S    
O18   P6    S    
C38   C41   S    
C21   P4    S    
C4    O22   S    
Ba1   O24   S    
C17   N2    Am   
C21   C31   D    
C34   H46   S    
C51   O12   S    
C50   H72   S    
C21   C22   D    
C3    N1    Am   
C59   H60   S    
C61   H65   S    
C37   P5    S    
C29   H31   S    
C19   C20   S    
C50   H67   S    
C63   H24   S    
C1    H14   S    
C16   H47   S    
C62   H20   S    
C42   C44   S    
C63   H21   S    
O2    P5    D    
C57   H57   S    
O28   P5    S    
C4    C16   S    
C52   H5    S    
C28   H43   S    
C32   C37   D    
C61   H68   S    
C4    C58   S    
Ba1   O19   S    
C1    H4    S    
C28   O26   S    
C23   O7    S    
C33   H38   S    
C22   H29   S    
Ba2   O24   S    
C37   C38   S    
C6    C7    A    
C51   C52   S    
O4    P1    S    
C49   O17   S    
C3    O10   D    
C49   C50   S    
C58   C59   S    
Ba2   O5    S    
C60   H69   S    
Ba2   O23   S    
C26   C64   A    
C41   C42   D    
C33   C47   A    
C60   C61   S    
C56   H18   S    
C52   H7    S    
O12   P2    S    
C29   C30   A    
C12   H1    S    
C46   H36   S    
O6    P7    D    
C10   C18   A    
C33   C48   A    
O1    P1    D    
C50   H71   S    
C54   H50   S    
C59   H61   S    
O8    P8    D    
C61   H66   S    
O23   P4    D    
O24   P4    S    
Ba2   O25   S    
C48   P3    S    
C1    C12   S    
C5    O11   D    
O15   P6    S    
C46   C47   A    
C24   N1    S    
C6    C13   A    
C17   O13   D    
C25   H27   S    
O3    P5    S    
C58   H64   S    
Ba2   O28   S    
C62   H19   S    
O20   P3    S    
O27   P7    S    
C53   H51   S    
C43   C46   A    
C20   C31   S    
O5    P2    S    
C38   C39   S    
C49   H45   S    
C28   H42   S    
C25   C30   A    
C32   C36   S    
Ba1   O20   S    
C16   C60   S    
C2    C3    A    
C34   H13   S    
C58   H63   S    
C20   P8    S    
C9    C10   A    
C40   H12   S    
C19   H30   S    
C42   H40   S    
Ba2   O6    S    
C40   H23   S    
C44   C48   A    
C32   H37   S    
C11   C15   A    
C62   O9    S    
O9    P8    S    
C27   P1    S    
C62   C63   S    
C18   N2    Am   
C27   C29   A    
Ba1   O4    S    
C56   H17   S    
C55   H58   S    
C5    N1    Am   
C64   H32   S    
C36   P7    S    
C14   C15   A    
Ba1   P1    S    
C15   C17   A    
C54   H49   S    
C59   H62   S    
C14   C55   S    
C45   H15   S    
C35   C39   S    
C63   H53   S    
Ba1   O1    S    
C8    C9    A    
C23   C34   S    
C13   H25   S    
C27   C64   A    
O21   P3    D    
C54   H48   S    
O22   P3    S    
C52   H6    S    
C10   C11   A    
C23   H10   S    
C53   C56   S    
C25   C26   A    
C49   H56   S    
C8    H28   S    
C28   C40   S    
C31   H33   S    
C2    C7    A    
C2    C8    A    
Ba2   O27   S    
Ba2   P4    S    
C45   C56   S    
C53   H52   S    
