data_mof_unit_27696.cif
_audit_creation_date              2012-12-11T15:48:06-0500
_audit_creation_method            fapswitch 2.2
_symmetry_space_group_name_H-M    P1
_symmetry_Int_Tables_number       1
_space_group_crystal_system       triclinic
_cell_length_a                    6.95289
_cell_length_b                    17.606182
_cell_length_c                    19.503417
_cell_angle_alpha                 108.543344
_cell_angle_beta                  89.48217
_cell_angle_gamma                 90.615763
_cell_volume                      2263.36740346

loop_
_atom_site_label
_atom_site_type_symbol
_atom_type_description
_atom_site_fract_x
_atom_site_fract_y
_atom_site_fract_z
_atom_type_partial_charge
O1    O     O_R   0.494330 0.415710 0.413720 -0.538902
O2    O     O_R   0.819360 0.430070 0.560210 -0.534458
O3    O     O_R   0.994320 0.584290 0.586280 -0.536860
C1    C     C_R   0.649861 0.416567 0.583225 0.717823
O4    O     O_R   0.823740 0.406290 0.412670 -0.555797
O5    O     O_R   0.998730 0.560340 0.437690 -0.540160
C2    C     C_R   0.655247 0.383838 0.384750 0.692809
O6    O     O_R   0.489920 0.439660 0.562310 -0.541297
O7    O     O_3   0.662330 0.550570 0.508380 -0.357335
V1    V     V_3+5 0.935370 0.490620 0.498440 1.498722
O8    O     O_R   0.328720 0.569930 0.439790 -0.515716
C3    C     C_R   0.161074 0.584832 0.418011 0.790305
O9    O     O_R   0.324340 0.593710 0.587330 -0.529978
C4    C     C_R   0.154949 0.618622 0.613955 0.754144
V2    V     V_3+5 0.435940 0.509380 0.501560 1.554861
O10   O     O_3   0.159110 0.449430 0.491620 -0.382248
C5    C     C_R   0.287930 0.749925 0.700862 0.009298
C6    C     C_R   0.278031 0.810603 0.768392 -0.185854
H1    H     H_    0.388559 0.856789 0.782616 0.142482
C7    C     C_R   0.121095 0.815790 0.815464 -0.074945
C8    C     C_R   0.974080 0.757946 0.794577 -0.106172
H2    H     H_    0.850763 0.760477 0.829540 0.124824
C9    C     C_R   0.986476 0.695045 0.729091 -0.114654
H3    H     H_    0.872912 0.650226 0.715946 0.143214
C10   C     C_R   0.143597 0.689185 0.681521 -0.131398
C11   C     C_R   0.292716 0.622822 0.311631 -0.039667
C12   C     C_R   0.154659 0.634488 0.368299 -0.202125
C13   C     C_R   0.009120 0.692934 0.377068 -0.027592
C14   C     C_R   0.995503 0.736644 0.327426 0.037572
C15   C     C_R   0.137748 0.726852 0.272893 0.027067
C16   C     C_R   0.288934 0.671452 0.265854 0.029728
C17   C     C_R   0.845315 0.791590 0.331742 -0.139383
C18   C     C_R   0.833627 0.834357 0.282808 -0.189884
C19   C     C_R   0.974712 0.825962 0.229560 0.089987
C20   C     C_R   0.128757 0.772956 0.224951 0.073146
C21   C     C_R   0.273915 0.766247 0.172367 0.094760
C22   C     C_R   0.423984 0.712383 0.166500 -0.189661
C23   C     C_R   0.429878 0.664762 0.211536 -0.143947
C24   C     C_R   0.965109 0.870490 0.181357 -0.202531
C25   C     C_R   0.111454 0.865074 0.129941 -0.077349
C26   C     C_R   0.266291 0.813214 0.126154 -0.220881
H4    H     H_    0.734070 0.802230 0.372615 0.162001
H5    H     H_    0.714795 0.875055 0.287353 0.133413
H6    H     H_    0.846214 0.911014 0.185080 0.132328
H7    H     H_    0.379167 0.808359 0.086281 0.127554
H8    H     H_    0.536287 0.706206 0.126227 0.132658
H9    H     H_    0.547074 0.622970 0.203074 0.161646
C27   C     C_R   0.469431 0.186848 0.869939 -0.209439
C28   C     C_R   0.623698 0.136053 0.870666 -0.083865
C29   C     C_R   0.782004 0.132816 0.824341 -0.206832
C30   C     C_R   0.784378 0.178383 0.776702 0.089111
C31   C     C_R   0.628686 0.229279 0.776505 0.066873
C32   C     C_R   0.471990 0.233908 0.823947 0.090391
C33   C     C_R   0.939227 0.173740 0.729001 -0.183861
C34   C     C_R   0.939851 0.218864 0.681512 -0.164897
C35   C     C_R   0.786459 0.270058 0.681236 0.088711
C36   C     C_R   0.630050 0.275785 0.729069 0.038689
C37   C     C_R   0.476753 0.328632 0.730457 0.019617
C38   C     C_R   0.323145 0.333013 0.779472 -0.160012
C39   C     C_R   0.320231 0.285739 0.824902 -0.185497
C40   C     C_R   0.788026 0.315534 0.633926 -0.167991
C41   C     C_R   0.638796 0.369131 0.634563 -0.146729
C42   C     C_R   0.483555 0.377035 0.684370 -0.051136
H10   H     H_    0.347405 0.190416 0.905821 0.139646
H11   H     H_    0.901250 0.093594 0.824225 0.127389
H12   H     H_    0.060107 0.135185 0.728407 0.136469
H13   H     H_    0.061530 0.214220 0.645325 0.135961
H14   H     H_    0.202902 0.372558 0.783135 0.161497
H15   H     H_    0.198886 0.290088 0.861199 0.139422
C43   C     C_R   0.812989 0.287921 0.275883 -0.207870
H16   H     H_    0.951246 0.315416 0.294639 0.131684
C44   C     C_R   0.804874 0.221903 0.212528 0.024296
C45   C     C_R   0.626823 0.184157 0.186394 -0.120646
C46   C     C_R   0.464466 0.210802 0.229780 -0.122822
H17   H     H_    0.333846 0.178305 0.217054 0.154946
C47   C     C_R   0.471546 0.276204 0.292986 -0.105360
C48   C     C_R   0.646017 0.315965 0.316542 -0.050747
O11   O     O_R   0.774940 0.060470 0.937800 -0.538656
O12   O     O_R   0.440880 0.093730 0.087350 -0.540406
O13   O     O_R   0.266130 0.939630 0.062280 -0.550109
C49   C     C_R   0.610520 0.116005 0.116401 0.709593
O14   O     O_R   0.445480 0.069960 0.939820 -0.542754
O15   O     O_R   0.270770 0.915690 0.913690 -0.542756
C50   C     C_R   0.614928 0.085435 0.918656 0.720216
O16   O     O_R   0.770300 0.084410 0.086380 -0.524984
O17   O     O_3   0.602600 0.949510 0.991670 -0.376827
V3    V     V_3+5 0.329470 0.009370 0.001550 1.442812
O18   O     O_R   0.940760 0.906160 0.912560 -0.543787
C51   C     C_R   0.109878 0.883118 0.884770 0.684764
O19   O     O_R   0.936150 0.929930 0.060100 -0.540450
C52   C     C_R   0.104107 0.914459 0.081137 0.705638
V4    V     V_3+5 0.828930 0.990450 0.998310 1.450423
O20   O     O_3   0.105670 0.050490 0.008320 -0.359828
C53   C     C_2   0.439552 0.756931 0.649426 0.749609
O21   O     O_2   0.601953 0.778705 0.671031 -0.575024
O22   O     O_R   0.393522 0.743018 0.576829 -0.639136
H18   H     H_    0.505278 0.754549 0.547995 0.318209
H19   H     H_    0.907043 0.309160 0.596260 0.152414
C54   C     C_2   0.339315 0.440760 0.693058 0.743255
O23   O     O_2   0.171983 0.423204 0.675992 -0.574863
O24   O     O_R   0.396463 0.520969 0.720984 -0.665636
H20   H     H_    0.284579 0.559029 0.727478 0.277583
C55   C     C_2   0.985912 0.185918 0.180829 0.736270
O25   O     O_2   0.086827 0.218128 0.146268 -0.549046
O26   O     O_R   0.032075 0.110984 0.186645 -0.678581
H21   H     H_    0.140090 0.083607 0.153306 0.295394
H22   H     H_    0.340867 0.294028 0.324414 0.121055
C56   C     C_2   0.432905 0.556269 0.297683 0.770730
O27   O     O_2   0.374487 0.487189 0.282887 -0.569646
O28   O     O_R   0.630371 0.572628 0.302674 -0.648579
H23   H     H_    0.710330 0.522455 0.293106 0.288595
C57   C     C_2   0.879406 0.711103 0.441040 0.764421
O29   O     O_2   0.705832 0.701089 0.433076 -0.553772
O30   O     O_R   0.958346 0.736790 0.510407 -0.652998
H24   H     H_    0.857579 0.745055 0.549885 0.308313

loop_
_geom_bond_atom_site_label_1
_geom_bond_atom_site_label_2
_ccdc_geom_bond_type
O15   V3    S    
C34   C35   A    
O24   H20   S    
C45   C46   A    
C40   H19   S    
C1    O6    A    
O12   V3    S    
O30   H24   S    
C36   C37   A    
C35   C36   A    
C13   C14   A    
C11   C12   A    
C41   C42   A    
C46   C47   A    
C15   C20   A    
C28   C50   S    
C21   C22   A    
C22   C23   A    
C6    H1    S    
O13   V3    S    
O5    C3    A    
C15   C16   A    
C27   H10   S    
O14   V3    S    
C1    C41   S    
C56   O27   D    
C19   C20   A    
C45   C49   S    
O28   H23   S    
C42   C54   S    
C29   C30   A    
O8    V2    S    
C32   C39   A    
O18   V4    S    
C9    H3    S    
C43   H16   S    
O1    V2    S    
O7    V1    S    
C2    C48   S    
C38   C39   A    
C25   C52   S    
O9    C4    A    
C43   C48   A    
C21   C26   A    
C53   O21   D    
C57   O30   S    
C57   O29   D    
O16   V4    S    
C18   C19   A    
C27   C32   A    
O15   C51   A    
C43   C44   A    
C46   H17   S    
C3    C12   S    
C30   C31   A    
C18   H5    S    
C47   C48   A    
C11   C56   S    
C24   C25   A    
O12   C49   A    
O17   V3    S    
O11   V4    S    
C37   C38   A    
C13   C57   S    
C19   C24   A    
C20   C21   A    
O2    C1    A    
C14   C15   A    
C38   H14   S    
O19   V4    S    
C54   O23   D    
O22   H18   S    
C5    C6    A    
C55   O26   S    
O18   C51   A    
C53   O22   S    
C23   H9    S    
O3    C4    A    
C27   C28   A    
C54   O24   S    
O6    V2    S    
O14   C50   A    
C8    C9    A    
O2    V1    S    
C12   C13   A    
C31   C32   A    
O4    C2    A    
O26   H21   S    
C37   C42   A    
C33   C34   A    
C25   C26   A    
C26   H7    S    
O1    C2    A    
C44   C45   A    
O5    V1    S    
C34   H13   S    
O8    C3    A    
C24   H6    S    
C33   H12   S    
C44   C55   S    
C47   H22   S    
C7    C51   S    
C16   C23   A    
C30   C33   A    
C5    C10   A    
C17   C18   A    
O13   C52   A    
O9    V2    S    
O7    V2    S    
O4    V1    S    
O3    V1    S    
O17   V4    S    
O19   C52   A    
C39   H15   S    
V3    O20   S    
V4    O20   S    
C56   O28   S    
C6    C7    A    
C9    C10   A    
C4    C10   S    
C40   C41   A    
C29   H11   S    
C14   C17   A    
C31   C36   A    
O11   C50   A    
C11   C16   A    
C7    C8    A    
C28   C29   A    
C55   O25   D    
C17   H4    S    
C35   C40   A    
V1    O10   S    
C5    C53   S    
C22   H8    S    
C8    H2    S    
C49   O16   A    
V2    O10   S    
