data_mof_unit_26010.cif
_audit_creation_date              2012-12-11T16:06:24-0500
_audit_creation_method            fapswitch 2.2
_symmetry_space_group_name_H-M    P1
_symmetry_Int_Tables_number       1
_space_group_crystal_system       orthorhombic
_cell_length_a                    7.289744
_cell_length_b                    14.91289
_cell_length_c                    15.490283
_cell_angle_alpha                 90.0
_cell_angle_beta                  90.0
_cell_angle_gamma                 90.0
_cell_volume                      1683.96648495

loop_
_atom_site_label
_atom_site_type_symbol
_atom_type_description
_atom_site_fract_x
_atom_site_fract_y
_atom_site_fract_z
_atom_type_partial_charge
O1    O     O_R   0.388780 0.834790 0.412340 -0.540544
O2    O     O_R   0.111220 0.165210 0.912340 -0.540544
O3    O     O_R   0.888780 0.665210 0.587660 -0.540544
O4    O     O_R   0.611220 0.334790 0.087660 -0.540544
O5    O     O_R   0.059040 0.845930 0.587040 -0.536871
O6    O     O_R   0.440960 0.154070 0.087040 -0.536871
O7    O     O_R   0.559040 0.654070 0.412960 -0.536871
O8    O     O_R   0.940960 0.345930 0.912960 -0.536871
C1    C     C_R   0.227390 0.867735 0.615143 0.645349
C2    C     C_R   0.272610 0.132265 0.115143 0.645350
C3    C     C_R   0.727390 0.632265 0.384857 0.645350
C4    C     C_R   0.772610 0.367735 0.884857 0.645350
O9    O     O_R   0.059070 0.845930 0.412970 -0.528432
O10   O     O_R   0.440930 0.154070 0.912970 -0.528432
O11   O     O_R   0.559070 0.654070 0.587030 -0.528432
O12   O     O_R   0.940930 0.345930 0.087030 -0.528432
O13   O     O_R   0.888760 0.665210 0.412340 -0.535375
O14   O     O_R   0.611240 0.334790 0.912340 -0.535375
O15   O     O_R   0.388760 0.834790 0.587660 -0.535375
O16   O     O_R   0.111240 0.165210 0.087660 -0.535375
C5    C     C_R   0.228381 0.866523 0.383865 0.670332
C6    C     C_R   0.271619 0.133477 0.883865 0.670332
C7    C     C_R   0.728381 0.633477 0.616135 0.670332
C8    C     C_R   0.771619 0.366523 0.116135 0.670331
O17   O     O_3   0.222280 0.690700 0.500000 -0.368770
O18   O     O_3   0.277720 0.309300 0.000000 -0.368770
O19   O     O_3   0.722280 0.809300 0.500000 -0.368770
O20   O     O_3   0.777720 0.190700 0.000000 -0.368770
V1    V     V_3+5 0.947430 0.761000 0.500000 1.488183
V2    V     V_3+5 0.552570 0.239000 0.000000 1.488183
V3    V     V_3+5 0.447430 0.739000 0.500000 1.488183
V4    V     V_3+5 0.052570 0.261000 0.000000 1.488183
C9    C     C_3   0.926922 0.572090 0.740967 -0.145150
C10   C     C_3   0.573077 0.427910 0.240967 -0.145150
C11   C     C_3   0.426922 0.927910 0.259033 -0.145150
C12   C     C_3   0.073077 0.072090 0.759032 -0.145150
H1    H     H_    0.946403 0.642800 0.762036 0.110088
H2    H     H_    0.553597 0.357199 0.262036 0.110088
H3    H     H_    0.446403 0.857200 0.237964 0.110088
H4    H     H_    0.053597 0.142800 0.737964 0.110088
C13   C     C_3   0.917422 0.510718 0.823057 -0.393903
C14   C     C_3   0.582578 0.489281 0.323057 -0.393903
C15   C     C_3   0.417422 0.989282 0.176943 -0.393903
C16   C     C_3   0.082578 0.010718 0.676943 -0.393902
H5    H     H_    0.887288 0.552850 0.880665 0.142480
H6    H     H_    0.612712 0.447150 0.380665 0.142480
H7    H     H_    0.387288 0.947150 0.119335 0.142480
H8    H     H_    0.112712 0.052850 0.619335 0.142480
H9    H     H_    0.052577 0.479865 0.836090 0.182659
H10   H     H_    0.447423 0.520135 0.336090 0.182659
H11   H     H_    0.552577 0.020134 0.163910 0.182659
H12   H     H_    0.947423 0.979865 0.663910 0.182659
H13   H     H_    0.824812 0.459864 0.592439 0.129256
H14   H     H_    0.675188 0.540136 0.092439 0.129256
H15   H     H_    0.324812 0.040136 0.407561 0.129256
H16   H     H_    0.175188 0.959864 0.907561 0.129256
H17   H     H_    0.940455 0.382322 0.711571 0.150373
H18   H     H_    0.559545 0.617678 0.211571 0.150373
H19   H     H_    0.440455 0.117678 0.288429 0.150373
H20   H     H_    0.059545 0.882322 0.788429 0.150373
C17   C     C_3   0.733427 0.466433 0.649634 -0.357780
C18   C     C_3   0.766573 0.533567 0.149634 -0.357780
C19   C     C_3   0.233427 0.033567 0.350366 -0.357780
C20   C     C_3   0.266573 0.966433 0.850366 -0.357780
C21   C     C_3   0.585942 0.573537 0.754857 -0.359594
C22   C     C_3   0.914057 0.426463 0.254857 -0.359594
C23   C     C_3   0.085943 0.926463 0.245143 -0.359593
C24   C     C_3   0.414057 0.073537 0.745143 -0.359593
C25   C     C_3   0.743363 0.563128 0.687937 0.029656
C26   C     C_3   0.756637 0.436872 0.187938 0.029656
C27   C     C_3   0.243363 0.936872 0.312062 0.029656
C28   C     C_3   0.256637 0.063128 0.812062 0.029656
H21   H     H_    0.452757 0.587025 0.724041 0.196354
H22   H     H_    0.047243 0.412975 0.224041 0.196354
H23   H     H_    0.952757 0.912975 0.275959 0.196354
H24   H     H_    0.547243 0.087025 0.775959 0.196354
H25   H     H_    0.616761 0.633286 0.795044 0.179638
H26   H     H_    0.883239 0.366714 0.295044 0.179638
H27   H     H_    0.116761 0.866714 0.204956 0.179638
H28   H     H_    0.383239 0.133286 0.704956 0.179638
C29   C     C_3   0.762948 0.438217 0.812624 0.014074
C30   C     C_3   0.737052 0.561783 0.312625 0.014074
C31   C     C_3   0.262948 0.061783 0.187375 0.014075
C32   C     C_3   0.237052 0.938217 0.687375 0.014074
C33   C     C_3   0.791956 0.396925 0.719914 -0.159701
C34   C     C_3   0.708044 0.603074 0.219914 -0.159701
C35   C     C_3   0.291956 0.103074 0.280086 -0.159701
C36   C     C_3   0.208044 0.896926 0.780086 -0.159701
C37   C     C_3   0.576032 0.490625 0.815523 -0.163046
C38   C     C_3   0.923968 0.509374 0.315522 -0.163046
C39   C     C_3   0.076032 0.009374 0.184477 -0.163046
C40   C     C_3   0.423968 0.990625 0.684477 -0.163046
H29   H     H_    0.550294 0.514711 0.882460 0.105159
H30   H     H_    0.949706 0.485289 0.382460 0.105159
H31   H     H_    0.050294 0.985289 0.117540 0.105159
H32   H     H_    0.449706 0.014711 0.617540 0.105159
H33   H     H_    0.591304 0.453346 0.626431 0.177823
H34   H     H_    0.908696 0.546654 0.126431 0.177823
H35   H     H_    0.091304 0.046654 0.373569 0.177823
H36   H     H_    0.408696 0.953346 0.873569 0.177823
C41   C     C_1   0.084964 0.547763 0.685700 0.346099
N1    N     N_1   0.202355 0.527776 0.639262 -0.366100
C42   C     C_1   0.415035 0.452237 0.185700 0.346099
N2    N     N_1   0.297645 0.472224 0.139262 -0.366100
C43   C     C_1   0.584964 0.952237 0.314300 0.346099
N3    N     N_1   0.702355 0.972224 0.360738 -0.366100
C44   C     C_1   0.915035 0.047763 0.814300 0.346099
N4    N     N_1   0.797645 0.027776 0.860738 -0.366100
C45   C     C_1   0.420617 0.431856 0.791703 0.369338
N5    N     N_1   0.302635 0.383665 0.773094 -0.380639
C46   C     C_1   0.079383 0.568144 0.291703 0.369338
N6    N     N_1   0.197365 0.616334 0.273094 -0.380639
C47   C     C_1   0.920617 0.068144 0.208297 0.369338
N7    N     N_1   0.802635 0.116334 0.226906 -0.380639
C48   C     C_1   0.579383 0.931855 0.708297 0.369338
N8    N     N_1   0.697365 0.883665 0.726906 -0.380639
C49   C     C_1   0.701993 0.310484 0.705009 0.295535
N9    N     N_1   0.634020 0.242011 0.691813 -0.396493
C50   C     C_1   0.798007 0.689516 0.205010 0.295535
N10   N     N_1   0.865979 0.757989 0.191813 -0.396493
C51   C     C_1   0.201993 0.189516 0.294990 0.295535
N11   N     N_1   0.134020 0.257988 0.308187 -0.396493
C52   C     C_1   0.298007 0.810484 0.794990 0.295535
N12   N     N_1   0.365979 0.742011 0.808187 -0.396493

loop_
_geom_bond_atom_site_label_1
_geom_bond_atom_site_label_2
_ccdc_geom_bond_type
C24   H28   S    
C31   C35   S    
O1    C5    A    
C41   N1    T    
O19   V1    S    
C15   C31   S    
C7    C25   S    
O3    C7    A    
C46   N6    T    
C10   C14   S    
C40   H32   S    
O4    V2    S    
O15   V3    S    
H20   C36   S    
C8    C26   S    
C52   N12   T    
C22   C38   S    
C21   C37   S    
C14   C30   S    
C18   C34   S    
C5    C27   S    
C9    C41   S    
O9    V1    S    
C11   H3    S    
O4    C8    A    
C48   N8    T    
C22   H22   S    
C37   C45   S    
C2    C31   S    
O1    V3    S    
O13   V1    S    
C18   C26   S    
O2    V4    S    
C14   H6    S    
C6    C28   S    
O3    V1    S    
C19   H35   S    
C18   H34   S    
H13   C17   S    
C1    O15   A    
C2    O16   A    
H15   C19   S    
O2    C6    A    
C44   N4    T    
H16   C20   S    
C34   C50   S    
O14   V2    S    
C11   C15   S    
C10   C26   S    
C9    C25   S    
C29   C37   S    
C16   H12   S    
O11   C7    A    
C11   C27   S    
O12   C8    A    
C12   C44   S    
C38   C46   S    
O10   V2    S    
C36   C52   S    
H18   C34   S    
C13   H9    S    
C38   H30   S    
O5    V1    S    
C3    C30   S    
C22   H26   S    
O7    V3    S    
O8    V4    S    
C12   H4    S    
C21   H25   S    
C21   H21   S    
C35   C51   S    
O18   V4    S    
H14   C18   S    
C30   C34   S    
C9    H1    S    
C39   C47   S    
C24   C28   S    
O7    C3    A    
O5    C1    A    
C11   C43   S    
O8    C4    A    
C13   C29   S    
C23   C39   S    
O9    C5    A    
C24   H24   S    
C33   C49   S    
C51   N11   T    
C17   C33   S    
C14   H10   S    
O6    V2    S    
C19   C27   S    
C12   C16   S    
C23   H23   S    
C47   N7    T    
O16   V4    S    
C17   C25   S    
C3    O13   A    
C19   C35   S    
C10   H2    S    
O17   V3    S    
C17   H33   S    
C32   C36   S    
C16   C32   S    
O6    C2    A    
C50   N10   T    
O11   V3    S    
O12   V4    S    
C31   C39   S    
C43   N3    T    
C10   C42   S    
C30   C38   S    
C9    C13   S    
O10   C6    A    
O20   V2    S    
C45   N5    T    
C15   H11   S    
C22   C26   S    
C21   C25   S    
C24   C40   S    
H17   C33   S    
C4    C29   S    
C23   C27   S    
C20   C28   S    
C37   H29   S    
C40   C48   S    
H19   C35   S    
C1    C32   S    
C39   H31   S    
C16   H8    S    
C20   H36   S    
C4    O14   A    
C42   N2    T    
C13   H5    S    
C32   C40   S    
C49   N9    T    
C15   H7    S    
C20   C36   S    
C23   H27   S    
C29   C33   S    
C12   C28   S    
