data_mof_unit_32321.cif
_audit_creation_date              2013-03-05T15:52:13-0500
_audit_creation_method            fapswitch 2.2
_symmetry_space_group_name_H-M    P1
_symmetry_Int_Tables_number       1
_space_group_crystal_system       triclinic
_cell_length_a                    23.522975
_cell_length_b                    10.89021
_cell_length_c                    9.568115
_cell_angle_alpha                 90.431777
_cell_angle_beta                  90.017326
_cell_angle_gamma                 92.732184
_cell_volume                      2448.20904832

loop_
_atom_site_label
_atom_site_type_symbol
_atom_site_description
_atom_site_fract_x
_atom_site_fract_y
_atom_site_fract_z
_atom_type_partial_charge
O1    O     O_R   0.500000 0.319640 0.618810 -0.587833
O2    O     O_R   0.500000 0.319660 0.381240 -0.579268
C1    C     C_R   0.504421 0.263045 0.500282 0.810673
O3    O     O_R   0.417880 0.499950 0.618810 -0.579015
O4    O     O_R   0.417880 0.499980 0.381240 -0.576341
C2    C     C_R   0.390969 0.499418 0.500002 0.833985
Cu1   Cu    Cu3+1 0.500000 0.499990 0.640660 0.929166
Cu2   Cu    Cu3+1 0.500000 0.500010 0.359340 0.940195
O5    O     O_R   0.500000 0.680340 0.618760 -0.613622
O6    O     O_R   0.500000 0.680360 0.381190 -0.597770
O7    O     O_R   0.582120 0.500020 0.618760 -0.605003
O8    O     O_R   0.582120 0.500050 0.381190 -0.599126
C3    C     C_R   0.497070 0.737688 0.501630 0.786150
C4    C     C_R   0.609051 0.501179 0.500008 0.776010
C5    C     C_R   0.883272 0.610780 0.538630 0.567053
N1    N     N_R   0.851969 0.506832 0.500378 -0.471326
C6    C     C_R   0.877579 0.401299 0.463017 0.565800
C7    C     C_R   0.937144 0.397573 0.463185 -0.062595
C8    C     C_R   0.970164 0.503555 0.501869 -0.008480
C9    C     C_R   0.942993 0.611179 0.540036 -0.064896
C10   C     C_R   0.963991 0.289431 0.429091 -0.190379
C11   C     C_R   0.023238 0.284736 0.433083 0.327733
C12   C     C_R   0.057175 0.392703 0.464918 -0.118392
C13   C     C_R   0.030247 0.501814 0.502609 -0.079490
C14   C     C_R   0.063177 0.609011 0.541556 -0.114256
C15   C     C_R   0.035241 0.718296 0.574725 0.328291
C16   C     C_R   0.975786 0.717229 0.576340 -0.181759
C17   C     C_R   0.117136 0.396807 0.457579 0.630156
N2    N     N_R   0.148142 0.498877 0.501947 -0.471745
C18   C     C_R   0.122837 0.601680 0.548532 0.618125
O9    O     O_2   0.856670 0.713586 0.574100 -0.520954
O10   O     O_2   0.845432 0.299966 0.427155 -0.522271
H1    H     H_    0.938854 0.206088 0.404518 0.220468
O11   O     O_2   0.144625 0.301224 0.404235 -0.433047
O12   O     O_2   0.155652 0.695101 0.602861 -0.445004
H2    H     H_    0.955321 0.801607 0.601804 0.221665
C19   C     C_R   0.239349 0.521474 0.375569 0.323365
C20   C     C_R   0.298685 0.521116 0.375822 -0.229566
H3    H     H_    0.321467 0.539535 0.279261 0.184203
C21   C     C_R   0.328374 0.498866 0.499923 -0.098057
C22   C     C_R   0.297758 0.476321 0.623930 -0.189260
H4    H     H_    0.319533 0.458525 0.720967 0.172467
C23   C     C_R   0.238502 0.475641 0.623643 -0.113357
H5    H     H_    0.215299 0.457884 0.719733 0.178165
C24   C     C_R   0.209085 0.498189 0.499936 0.270346
C25   C     C_R   0.761133 0.502185 0.373585 -0.095431
H6    H     H_    0.783929 0.498783 0.275430 0.146858
C26   C     C_R   0.701832 0.500412 0.373344 -0.216545
H7    H     H_    0.679671 0.495777 0.274069 0.164798
C27   C     C_R   0.671690 0.503927 0.500074 -0.038989
C28   C     C_R   0.701989 0.510559 0.626827 -0.222311
H8    H     H_    0.679949 0.513889 0.726048 0.163484
C29   C     C_R   0.761303 0.512663 0.626706 -0.096625
H9    H     H_    0.784215 0.516858 0.724933 0.146742
C30   C     C_R   0.791039 0.507992 0.500189 0.345997
H10   H     H_    0.496610 0.108900 0.279351 0.162421
C31   C     C_R   0.537851 0.123365 0.754249 -0.150659
H11   H     H_    0.560685 0.211808 0.752725 0.164149
C32   C     C_R   0.531960 0.065732 0.883210 -0.153623
H12   H     H_    0.547424 0.111960 0.977329 0.139188
C33   C     C_R   0.504227 0.950698 0.891252 -0.132282
H13   H     H_    0.496528 0.908567 0.992065 0.141997
C34   C     C_R   0.487723 0.888142 0.769123 -0.147334
H14   H     H_    0.464053 0.801878 0.782733 0.175532
C35   C     C_R   0.499302 0.939855 0.635688 0.094757
C36   C     C_R   0.516015 0.065794 0.630698 0.098265
C37   C     C_R   0.509494 0.129339 0.502956 -0.117948
C38   C     C_R   0.500301 0.062792 0.378664 -0.196425
H15   H     H_    0.491664 0.887119 0.281305 0.165026
C39   C     C_R   0.495730 0.935728 0.380288 -0.197761
C40   C     C_R   0.495047 0.872366 0.507263 -0.108904
H16   H     H_    0.435816 0.360002 0.128221 0.146810
C41   C     C_R   0.575846 0.663898 0.145632 -0.164763
H17   H     H_    0.579655 0.671675 0.255801 0.203090
C42   C     C_R   0.612838 0.743899 0.073805 -0.216759
H18   H     H_    0.641728 0.806562 0.130612 0.166427
C43   C     C_R   0.612889 0.743633 0.929834 -0.191237
H19   H     H_    0.641699 0.806302 0.873917 0.168105
C44   C     C_R   0.575854 0.663562 0.856871 -0.159042
H20   H     H_    0.579240 0.671659 0.746796 0.204144
C45   C     C_R   0.537255 0.580569 0.925750 0.193710
C46   C     C_R   0.537244 0.580614 0.075531 0.209138
N3    N     N_R   0.500540 0.501210 0.147910 -0.200311
C47   C     C_R   0.464702 0.423032 0.073303 -0.062177
H21   H     H_    0.435855 0.360018 0.869097 0.149940
C48   C     C_R   0.464718 0.423062 0.925194 -0.060475
N4    N     N_R   0.500560 0.501290 0.852040 -0.205373
N5    N     N_R   0.047479 0.167179 0.417259 0.174078
O13   O     O_R   0.078413 0.126087 0.517756 -0.219117
O14   O     O_R   0.028840 0.091392 0.319997 -0.289987
N6    N     N_R   0.066050 0.833462 0.597165 0.180234
O15   O     O_R   0.099534 0.877474 0.499563 -0.205083
O16   O     O_R   0.052068 0.904811 0.700001 -0.278760
Br1   Br    Br    0.200807 0.556180 0.204819 -0.408170

loop_
_geom_bond_atom_site_label_1
_geom_bond_atom_site_label_2
_geom_bond_distance
_ccdc_geom_bond_type
C34   C35   1.420483 A    
C7    C10   1.399072 A    
C22   C23   1.393553 A    
C41   H17   1.060288 S    
C8    C9    1.407368 A    
C31   C36   1.418504 A    
C42   H18   1.083011 S    
C45   C46   1.433119 A    
Cu1   Cu2   2.691703 S    
C4    C27   1.472323 S    
H21   C48   1.081763 S    
Cu1   O7    1.943086 S    
C15   C16   1.398151 A    
N2    C18   1.364750 A    
C18   O12   1.348344 S    
C17   N2    1.364966 A    
C47   C48   1.417121 A    
C20   H3    1.083452 S    
O7    C4    1.300919 A    
C31   C32   1.392533 A    
C10   H1    1.083607 S    
C5    N1    1.368114 A    
Cu2   N3    2.023168 S    
C7    C8    1.407230 A    
C22   H4    1.083445 S    
C33   C34   1.393850 A    
O5    C3    1.290500 A    
Cu1   N4    2.022486 S    
C29   H9    1.082857 S    
N1    C6    1.368022 A    
C25   C30   1.400143 A    
C12   C13   1.417259 A    
C39   C40   1.401425 A    
C11   N5    1.433101 S    
C43   H19   1.083015 S    
C29   C30   1.400075 A    
C36   C37   1.420943 A    
C17   O11   1.348512 S    
C32   H12   1.082711 S    
C10   C11   1.397560 A    
C41   C42   1.387676 A    
C33   H13   1.082869 S    
O3    Cu1   1.942903 S    
C27   C28   1.406163 A    
C43   C44   1.387337 A    
C5    C9    1.404666 A    
C25   C26   1.394150 A    
C32   C33   1.387240 A    
C37   C38   1.399352 A    
C13   C14   1.417315 A    
O3    C2    1.300818 A    
N6    O15   1.301309 A    
C44   C45   1.416577 A    
C48   N4    1.366523 A    
C3    C40   1.470293 S    
C15   N6    1.433008 S    
H10   C38   1.083485 S    
C28   H8    1.083036 S    
N2    C24   1.434076 S    
C28   C29   1.394336 A    
C23   H5    1.083284 S    
C19   C20   1.395957 A    
N6    O16   1.301197 A    
C42   C43   1.377513 A    
N3    C47   1.366443 A    
Cu2   O8    1.942903 S    
C6    C7    1.403673 A    
H16   C47   1.081739 S    
C12   C17   1.410846 A    
C23   C24   1.400074 A    
C45   N4    1.381049 A    
Cu2   O6    1.973578 S    
C26   H7    1.083064 S    
N5    O14   1.301214 A    
C35   C36   1.409768 A    
C2    C21   1.472144 S    
C44   H20   1.060267 S    
C19   C24   1.405330 A    
C41   C46   1.417379 A    
C14   C18   1.411028 A    
Cu1   O5    1.976766 S    
C25   H6    1.082866 S    
C21   C22   1.405268 A    
O1    Cu1   1.973576 S    
C1    C37   1.467040 S    
O8    C4    1.300984 A    
O6    C3    1.309895 A    
O4    Cu2   1.943089 S    
C5    O9    1.349606 S    
C9    C16   1.399415 A    
C16   H2    1.083669 S    
O2    C1    1.305723 A    
C14   C15   1.420552 A    
N1    C30   1.433911 S    
C35   C40   1.428079 A    
C20   C21   1.405835 A    
C31   H11   1.080402 S    
O4    C2    1.300833 A    
C26   C27   1.406029 A    
C19   Br1   1.917031 S    
C8    C13   1.414382 A    
H15   C39   1.083465 S    
C34   H14   1.077747 S    
N5    O13   1.300553 A    
C38   C39   1.383008 A    
C46   N3    1.382391 A    
O2    Cu2   1.976764 S    
C6    O10   1.349789 S    
C11   C12   1.420384 A    
O1    C1    1.293242 A    
