data_mof_unit_36344.cif
_audit_creation_date              2012-12-11T15:57:06-0500
_audit_creation_method            fapswitch 2.2
_symmetry_space_group_name_H-M    P1
_symmetry_Int_Tables_number       1
_space_group_crystal_system       triclinic
_cell_length_a                    17.42023
_cell_length_b                    24.305391
_cell_length_c                    15.029765
_cell_angle_alpha                 90.021293
_cell_angle_beta                  126.238388
_cell_angle_gamma                 89.968776
_cell_volume                      5132.72132455

loop_
_atom_site_label
_atom_site_type_symbol
_atom_type_description
_atom_site_fract_x
_atom_site_fract_y
_atom_site_fract_z
_atom_type_partial_charge
C1    C     C_R   0.307922 0.123559 0.906496 -0.140061
C2    C     C_R   0.307914 0.876474 0.906586 -0.138246
C3    C     C_R   0.807923 0.623561 0.906497 -0.139869
C4    C     C_R   0.807922 0.376462 0.906585 -0.138233
C5    C     C_R   0.649039 0.152258 0.092162 -0.153810
C6    C     C_R   0.648851 0.847659 0.092043 -0.153377
C7    C     C_R   0.149037 0.652258 0.092164 -0.153837
C8    C     C_R   0.148845 0.347657 0.092042 -0.153368
C9    C     C_R   0.556674 0.847449 0.908749 -0.162426
C10   C     C_R   0.556918 0.152517 0.908843 -0.161123
C11   C     C_R   0.056668 0.347448 0.908750 -0.162422
C12   C     C_R   0.056922 0.652518 0.908846 -0.161119
C13   C     C_R   0.536547 0.999808 0.711493 -0.002133
C14   C     C_R   0.036552 0.499809 0.711499 -0.002148
C15   C     C_R   0.824236 0.999736 0.270046 0.030330
C16   C     C_R   0.324223 0.499757 0.269956 0.030252
C17   C     C_R   0.617741 0.184170 0.000649 0.020013
C18   C     C_R   0.617346 0.815731 0.000459 0.019722
C19   C     C_R   0.117744 0.684171 0.000654 0.020024
C20   C     C_R   0.117336 0.315728 0.000459 0.019706
C21   C     C_3   0.022512 0.959239 0.510185 -0.163911
C22   C     C_3   0.029307 0.048733 0.494513 -0.168400
C23   C     C_3   0.522719 0.458752 0.509502 -0.164315
C24   C     C_3   0.528844 0.548430 0.495387 -0.168317
C25   C     C_3   0.952993 0.007490 0.471734 -0.125104
C26   C     C_3   0.452823 0.506747 0.471826 -0.124713
C27   C     C_3   0.925376 0.999636 0.354841 0.171429
C28   C     C_3   0.425342 0.499668 0.354838 0.171444
C29   C     C_3   0.994319 0.951206 0.392547 -0.175897
C30   C     C_3   0.000861 0.040983 0.376542 -0.156138
C31   C     C_3   0.494642 0.451496 0.391745 -0.175191
C32   C     C_3   0.500541 0.541459 0.377332 -0.157107
C33   C     C_3   0.072448 0.992476 0.416681 -0.102602
C34   C     C_3   0.572488 0.493217 0.416670 -0.102393
C35   C     C_R   0.400822 0.877144 0.091716 -0.143691
C36   C     C_R   0.400629 0.122819 0.091566 -0.142067
C37   C     C_R   0.900823 0.377139 0.091714 -0.143685
C38   C     C_R   0.900631 0.622820 0.091568 -0.142140
C39   C     C_3   0.098424 0.000409 0.532581 0.177626
C40   C     C_3   0.598336 0.500369 0.532669 0.177551
C41   C     C_3   0.258548 0.819533 0.106329 -0.399838
C42   C     C_3   0.256823 0.179856 0.105044 -0.404189
C43   C     C_3   0.758491 0.319550 0.106282 -0.399838
C44   C     C_3   0.756831 0.679859 0.105050 -0.404177
C45   C     C_3   0.698077 0.272026 0.101934 -0.410569
C46   C     C_3   0.696506 0.727487 0.100743 -0.411690
C47   C     C_3   0.198129 0.772012 0.101981 -0.410573
C48   C     C_3   0.196514 0.227488 0.100751 -0.411650
C49   C     C_3   0.796810 0.265885 0.993416 -0.448263
C50   C     C_3   0.797383 0.734038 0.994863 -0.448268
C51   C     C_3   0.296770 0.765894 0.993347 -0.448272
C52   C     C_3   0.297392 0.234039 0.994881 -0.448225
C53   C     C_3   0.145003 0.822610 0.896072 0.068925
C54   C     C_3   0.145058 0.177874 0.894538 0.068132
C55   C     C_3   0.645018 0.322583 0.896016 0.068907
C56   C     C_3   0.645050 0.677865 0.894557 0.068145
C57   C     C_3   0.252329 0.820259 0.998587 0.311389
C58   C     C_3   0.251988 0.179666 0.998181 0.313548
C59   C     C_3   0.752329 0.320252 0.998576 0.311388
C60   C     C_3   0.751988 0.679666 0.998183 0.313686
C61   C     C_3   0.662986 0.234993 0.000149 0.374258
C62   C     C_3   0.662545 0.764903 0.999820 0.375048
C63   C     C_3   0.162990 0.734996 0.000160 0.374243
C64   C     C_3   0.162537 0.264900 0.999820 0.374998
C65   C     C_3   0.748860 0.216289 0.002465 -0.391825
C66   C     C_3   0.749130 0.783595 0.003616 -0.391264
C67   C     C_3   0.248833 0.716295 0.002411 -0.391800
C68   C     C_3   0.249111 0.283594 0.003593 -0.391253
C69   C     C_3   0.594494 0.269851 0.894432 -0.504640
C70   C     C_3   0.594423 0.730454 0.893380 -0.503381
C71   C     C_3   0.094480 0.769872 0.894477 -0.504655
C72   C     C_3   0.094408 0.230443 0.893396 -0.503228
C73   C     C_3   0.600092 0.053145 0.627358 -0.440618
C74   C     C_3   0.611503 0.950592 0.635867 -0.420343
C75   C     C_3   0.100147 0.553130 0.627400 -0.440549
C76   C     C_3   0.111460 0.450574 0.635834 -0.420381
C77   C     C_R   0.552633 0.045763 0.305589 -0.144556
C78   C     C_R   0.552921 0.954541 0.305984 -0.146067
C79   C     C_R   0.052636 0.545762 0.305592 -0.144541
C80   C     C_R   0.052921 0.454539 0.305983 -0.146093
C81   C     C_3   0.617831 0.051591 0.538933 -0.400477
C82   C     C_3   0.615467 0.948194 0.536730 -0.404733
C83   C     C_3   0.117847 0.551584 0.538943 -0.400444
C84   C     C_3   0.115457 0.448186 0.536721 -0.404737
C85   C     C_3   0.447016 0.996068 0.506786 0.367233
C86   C     C_3   0.947016 0.496103 0.506788 0.367226
C87   C     C_3   0.547905 0.999769 0.622232 0.276598
C88   C     C_3   0.047909 0.499770 0.622235 0.276605
C89   C     C_3   0.568066 0.000369 0.464565 0.339921
C90   C     C_3   0.068070 0.500366 0.464567 0.339918
C91   C     C_3   0.460994 0.001569 0.415687 -0.459561
C92   C     C_3   0.960998 0.501572 0.415687 -0.459527
C93   C     C_R   0.239551 0.954121 0.696677 -0.128320
C94   C     C_R   0.239393 0.046171 0.697355 -0.118872
C95   C     C_R   0.739503 0.454106 0.696750 -0.127928
C96   C     C_R   0.739352 0.546157 0.697368 -0.119252
C97   C     C_R   0.310355 0.135774 0.998519 0.024889
C98   C     C_R   0.310576 0.864150 0.998758 0.025058
C99   C     C_R   0.810358 0.635776 0.998520 0.024860
C100  C     C_R   0.810580 0.364141 0.998753 0.025051
C101  C     C_R   0.571473 0.000267 0.369834 0.018301
C102  C     C_R   0.071477 0.500265 0.369835 0.018252
C103  C     C_R   0.190127 0.000251 0.638070 0.062732
C104  C     C_R   0.690044 0.500226 0.638154 0.062602
C105  C     C_R   0.513674 0.046138 0.745325 -0.077586
C106  C     C_R   0.513020 0.953666 0.744701 -0.074399
C107  C     C_R   0.013678 0.546139 0.745331 -0.077564
C108  C     C_R   0.013025 0.453666 0.744706 -0.074386
C109  C     C_R   0.769203 0.953672 0.247100 -0.129916
C110  C     C_R   0.769291 0.046043 0.246541 -0.139325
C111  C     C_R   0.269202 0.453686 0.247038 -0.130374
C112  C     C_R   0.269279 0.546052 0.246524 -0.138870
H1    H     H_    0.251800 0.132241 0.821272 0.089960
H2    H     H_    0.251601 0.867929 0.821326 0.089128
H3    H     H_    0.751805 0.632248 0.821273 0.089822
H4    H     H_    0.751624 0.367902 0.821329 0.089100
H5    H     H_    0.032830 0.925947 0.566906 0.109573
H6    H     H_    0.044646 0.088591 0.538148 0.107984
H7    H     H_    0.533250 0.425068 0.565633 0.109403
H8    H     H_    0.543894 0.588031 0.539738 0.108032
H9    H     H_    0.977668 0.911501 0.348114 0.114913
H10   H     H_    0.989209 0.074138 0.318968 0.118440
H11   H     H_    0.478268 0.412045 0.346600 0.115097
H12   H     H_    0.488683 0.575011 0.320363 0.118299
H13   H     H_    0.124698 0.986408 0.397945 0.162974
H14   H     H_    0.624820 0.487748 0.397896 0.163176
H15   H     H_    0.333131 0.812568 0.179294 0.165008
H16   H     H_    0.331188 0.186328 0.178843 0.161782
H17   H     H_    0.833066 0.312605 0.179282 0.165002
H18   H     H_    0.831196 0.686340 0.178844 0.161787
H19   H     H_    0.235659 0.859452 0.119650 0.168104
H20   H     H_    0.233042 0.139909 0.116914 0.165340
H21   H     H_    0.735561 0.359471 0.119539 0.168082
H22   H     H_    0.733056 0.639912 0.116926 0.165413
H23   H     H_    0.136153 0.788662 0.096940 0.160024
H24   H     H_    0.133995 0.210936 0.094603 0.159407
H25   H     H_    0.636078 0.288673 0.096847 0.160018
H26   H     H_    0.633978 0.710931 0.094571 0.159402
H27   H     H_    0.742727 0.248667 0.180320 0.156932
H28   H     H_    0.740846 0.750547 0.179552 0.154598
H29   H     H_    0.242791 0.748640 0.180349 0.156931
H30   H     H_    0.240867 0.250550 0.179556 0.154592
H31   H     H_    0.874478 0.263998 0.061353 0.172288
H32   H     H_    0.874822 0.735664 0.063719 0.172208
H33   H     H_    0.374447 0.763997 0.061243 0.172295
H34   H     H_    0.374823 0.235668 0.063763 0.172203
H35   H     H_    0.801110 0.193914 0.080715 0.162166
H36   H     H_    0.800997 0.805776 0.082271 0.161826
H37   H     H_    0.301100 0.693910 0.080641 0.162160
H38   H     H_    0.300969 0.305795 0.082225 0.161808
H39   H     H_    0.139613 0.822058 0.818569 0.099575
H40   H     H_    0.140771 0.179163 0.817755 0.100644
H41   H     H_    0.639668 0.322006 0.818538 0.099562
H42   H     H_    0.640734 0.679112 0.817754 0.100585
H43   H     H_    0.429826 0.870325 0.177051 0.098895
H44   H     H_    0.429504 0.129751 0.176827 0.096038
H45   H     H_    0.929826 0.370317 0.177048 0.098878
H46   H     H_    0.929506 0.629752 0.176828 0.096064
H47   H     H_    0.028797 0.779913 0.887635 0.162675
H48   H     H_    0.028437 0.220248 0.885780 0.163000
H49   H     H_    0.528793 0.279896 0.887548 0.162671
H50   H     H_    0.528419 0.720285 0.885709 0.162969
H51   H     H_    0.572003 0.245951 0.819549 0.147313
H52   H     H_    0.572443 0.754678 0.819042 0.149309
H53   H     H_    0.071959 0.745986 0.819568 0.147333
H54   H     H_    0.072370 0.254669 0.819039 0.149253
H55   H     H_    0.788854 0.263419 0.914317 0.158055
H56   H     H_    0.790604 0.736808 0.916499 0.158212
H57   H     H_    0.288760 0.763442 0.914216 0.158057
H58   H     H_    0.290648 0.236808 0.916538 0.158192
H59   H     H_    0.725920 0.187523 0.933124 0.157280
H60   H     H_    0.726876 0.812534 0.934755 0.158053
H61   H     H_    0.225861 0.687537 0.933048 0.157280
H62   H     H_    0.226835 0.312519 0.934703 0.158037
H63   H     H_    0.556839 0.090265 0.612629 0.179399
H64   H     H_    0.584802 0.910458 0.642131 0.174504
H65   H     H_    0.056949 0.590267 0.612738 0.179397
H66   H     H_    0.084701 0.410446 0.642033 0.174502
H67   H     H_    0.669123 0.057693 0.710271 0.166159
H68   H     H_    0.684722 0.955576 0.713179 0.168663
H69   H     H_    0.169196 0.557644 0.710306 0.166162
H70   H     H_    0.184676 0.455524 0.713168 0.168648
H71   H     H_    0.695605 0.049997 0.578412 0.164308
H72   H     H_    0.690702 0.944869 0.565749 0.157764
H73   H     H_    0.195616 0.549993 0.578393 0.164285
H74   H     H_    0.190699 0.444864 0.565764 0.157748
H75   H     H_    0.590006 0.090495 0.491270 0.155581
H76   H     H_    0.577322 0.910501 0.488601 0.172265
H77   H     H_    0.090008 0.590489 0.491284 0.155613
H78   H     H_    0.077319 0.410495 0.488578 0.172202
H79   H     H_    0.565475 0.088394 0.330541 0.086579
H80   H     H_    0.566075 0.912008 0.331800 0.089821
H81   H     H_    0.065479 0.588392 0.330547 0.086594
H82   H     H_    0.066076 0.412006 0.331796 0.089805
H83   H     H_    0.429703 0.040830 0.369871 0.182444
H84   H     H_    0.422108 0.968358 0.353365 0.187555
H85   H     H_    0.929701 0.540823 0.369830 0.182459
H86   H     H_    0.922122 0.468346 0.353398 0.187536
H87   H     H_    0.225043 0.912169 0.666937 0.099896
H88   H     H_    0.225328 0.088190 0.668072 0.096946
H89   H     H_    0.725003 0.412152 0.667020 0.099741
H90   H     H_    0.725248 0.588171 0.668046 0.097134
H91   H     H_    0.518446 0.088849 0.729711 0.104994
H92   H     H_    0.517682 0.910921 0.729234 0.111427
H93   H     H_    0.018454 0.588849 0.729719 0.105031
H94   H     H_    0.017685 0.410921 0.729239 0.111389
H95   H     H_    0.792506 0.911325 0.263612 0.096318
H96   H     H_    0.792970 0.088318 0.262831 0.100323
H97   H     H_    0.292531 0.411342 0.263555 0.096526
H98   H     H_    0.292948 0.588328 0.262839 0.100200
H99   H     H_    0.691829 0.165054 0.177433 0.088513
H100  H     H_    0.691679 0.834807 0.177279 0.087311
H101  H     H_    0.191818 0.665054 0.177434 0.088519
H102  H     H_    0.191676 0.334807 0.177280 0.087319
H103  H     H_    0.513218 0.834707 0.823427 0.104115
H104  H     H_    0.513654 0.165297 0.823544 0.100501
H105  H     H_    0.013211 0.334707 0.823427 0.104093
H106  H     H_    0.013666 0.665299 0.823547 0.100518
H107  H     H_    0.902446 0.013598 0.493101 0.116329
H108  H     H_    0.402178 0.512249 0.493210 0.116301
N1    N     N_R   0.392450 0.103580 0.942190 -0.037172
N2    N     N_R   0.392450 0.896420 0.942190 -0.036990
N3    N     N_R   0.892450 0.603580 0.942190 -0.037170
N4    N     N_R   0.892450 0.396420 0.942190 -0.036997
N5    N     N_R   0.450490 0.896000 0.057360 -0.038109
N6    N     N_R   0.450490 0.104000 0.057360 -0.038023
N7    N     N_R   0.950490 0.396000 0.057360 -0.038106
N8    N     N_R   0.950490 0.604000 0.057360 -0.038024
N9    N     N_R   0.525490 0.028390 0.207550 -0.033675
N10   N     N_R   0.525490 0.971610 0.207550 -0.033943
N11   N     N_R   0.025490 0.528390 0.207550 -0.033676
N12   N     N_R   0.025490 0.471610 0.207550 -0.033935
N13   N     N_R   0.317450 0.971190 0.792000 -0.038169
N14   N     N_R   0.317450 0.028810 0.792000 -0.038475
N15   N     N_R   0.817450 0.471190 0.792000 -0.038163
N16   N     N_R   0.817450 0.528810 0.792000 -0.038429
N17   N     N_R   0.473900 0.028390 0.792280 -0.033811
N18   N     N_R   0.473900 0.971610 0.792280 -0.034720
N19   N     N_R   0.973900 0.528390 0.792280 -0.033813
N20   N     N_R   0.973900 0.471610 0.792280 -0.034727
N21   N     N_R   0.682310 0.971180 0.208170 -0.040368
N22   N     N_R   0.682310 0.028820 0.208170 -0.040000
N23   N     N_R   0.182310 0.471180 0.208170 -0.040364
N24   N     N_R   0.182310 0.528820 0.208170 -0.040028
N25   N     N_R   0.606470 0.103570 0.057210 -0.034417
N26   N     N_R   0.606470 0.896430 0.057210 -0.034627
N27   N     N_R   0.106470 0.603570 0.057210 -0.034427
N28   N     N_R   0.106470 0.396430 0.057210 -0.034612
N29   N     N_R   0.549740 0.896000 0.943240 -0.038271
N30   N     N_R   0.549740 0.104000 0.943240 -0.037987
N31   N     N_R   0.049740 0.396000 0.943240 -0.038272
N32   N     N_R   0.049740 0.604000 0.943240 -0.037989
Ni1   Ni    Ni4+2 0.433780 0.065390 0.868430 0.224740
Ni2   Ni    Ni4+2 0.433780 0.934610 0.868430 0.225689
Ni3   Ni    Ni4+2 0.933780 0.565390 0.868430 0.224772
Ni4   Ni    Ni4+2 0.933780 0.434610 0.868430 0.225714
Ni5   Ni    Ni4+2 0.565800 0.934190 0.131570 0.205183
Ni6   Ni    Ni4+2 0.565800 0.065810 0.131570 0.205156
Ni7   Ni    Ni4+2 0.065800 0.434190 0.131570 0.205159
Ni8   Ni    Ni4+2 0.065800 0.565810 0.131570 0.205167
N33   N     N_2   0.095103 0.870997 0.895605 -0.104999
H109  H     H_    0.089440 0.874959 0.959790 0.181588
C113  C     C_3   0.104463 0.922225 0.853811 -0.939964
H110  H     H_    0.045030 0.949927 0.831919 0.250557
H111  H     H_    0.100652 0.915274 0.778254 0.247184
H112  H     H_    0.172445 0.942770 0.917859 0.262470
N34   N     N_2   0.094307 0.129337 0.891605 -0.104951
H113  H     H_    0.088567 0.124358 0.955545 0.181017
C114  C     C_3   0.102150 0.078855 0.846436 -0.939025
H114  H     H_    0.042304 0.051289 0.823492 0.250158
H115  H     H_    0.169860 0.057539 0.908807 0.262898
H116  H     H_    0.097754 0.087025 0.770826 0.248726
N35   N     N_2   0.595081 0.370974 0.895459 -0.105028
H117  H     H_    0.589389 0.374963 0.959619 0.181566
C115  C     C_3   0.604416 0.422184 0.853594 -0.939863
H118  H     H_    0.544965 0.449881 0.831656 0.250539
H119  H     H_    0.600614 0.415202 0.778047 0.247287
H120  H     H_    0.672384 0.442747 0.917619 0.262483
N36   N     N_2   0.594297 0.629348 0.891702 -0.104974
H121  H     H_    0.588436 0.624462 0.955569 0.181034
C116  C     C_3   0.602348 0.578795 0.846893 -0.938930
H122  H     H_    0.542463 0.551242 0.823855 0.250163
H123  H     H_    0.670021 0.557522 0.909522 0.262833
H124  H     H_    0.598189 0.586857 0.771402 0.248692
I1    I     I_    0.346017 0.058907 0.478610 -0.505402
I2    I     I_    0.371698 0.919385 0.479655 -0.513217
I3    I     I_    0.846105 0.559000 0.478629 -0.505745
I4    I     I_    0.871594 0.419461 0.479639 -0.512979

loop_
_geom_bond_atom_site_label_1
_geom_bond_atom_site_label_2
_ccdc_geom_bond_type
N25   N30   A    
C55   C59   S    
C67   H37   S    
C15   C109  A    
C77   C101  A    
C42   C58   S    
N27   N32   A    
C116  H124  S    
C16   C112  A    
C46   C62   S    
N15   Ni4   S    
C8    H102  S    
C86   C88   S    
C51   H33   S    
C44   H18   S    
C29   C33   S    
C45   H27   S    
C62   C70   S    
C1    N1    A    
C43   H21   S    
C21   H5    S    
C17   C61   S    
C30   H10   S    
C19   C63   S    
C111  N23   A    
C79   C102  A    
C36   C97   A    
C51   C57   S    
C65   H35   S    
C66   H36   S    
C42   H16   S    
N30   Ni1   S    
C78   C101  A    
N22   Ni6   S    
C76   C84   S    
C1    H1    S    
C70   H50   S    
C12   H106  S    
C4    H4    S    
N2    Ni2   S    
C11   C20   A    
C24   H8    S    
C28   C32   S    
C56   H42   S    
C52   H58   S    
C41   H19   S    
C94   N14   A    
C54   H40   S    
C21   C29   S    
C32   C34   S    
C73   H63   S    
C24   C32   S    
C74   H64   S    
N9    N10   A    
N28   Ni7   S    
C91   H83   S    
C110  N22   A    
C90   C92   S    
C33   H13   S    
N25   Ni6   S    
C79   N11   A    
C52   C58   S    
C14   C107  A    
N18   Ni2   S    
C7    C19   A    
C114  H115  S    
N19   Ni3   S    
C53   C71   S    
N4    Ni4   S    
C113  H111  S    
C52   H34   S    
C89   C101  S    
C35   N5    A    
C72   H54   S    
C6    N26   A    
C13   C106  A    
C96   H90   S    
C47   H29   S    
C77   N9    A    
C54   N34   S    
C14   C88   S    
C4    N4    A    
C2    H2    S    
N31   Ni4   S    
N36   C116  S    
N16   Ni3   S    
C75   H65   S    
C107  H93   S    
C105  H91   S    
C61   C65   S    
C112  N24   A    
C80   C102  A    
C105  N17   A    
C23   C40   S    
C16   C111  A    
C27   C29   S    
C41   H15   S    
N24   Ni8   S    
C93   C103  A    
C9    H103  S    
C82   C89   S    
C64   C68   S    
C24   C26   S    
C23   H7    S    
N33   H109  S    
C7    N27   A    
C53   N33   S    
N21   N22   A    
C37   H45   S    
C90   C102  S    
N12   Ni7   S    
C74   C87   S    
C89   C91   S    
N13   N14   A    
C43   C59   S    
N9    Ni6   S    
N17   N18   A    
C59   C100  S    
C84   C90   S    
C80   N12   A    
C92   H86   S    
C50   H32   S    
C44   H22   S    
N1    Ni1   S    
N20   Ni4   S    
C85   I2    S    
C62   C66   S    
C48   H30   S    
C43   H17   S    
C115  H120  S    
C18   C62   S    
C51   C67   S    
N2    N5    A    
C106  H92   S    
C82   H76   S    
C10   N30   A    
N10   Ni5   S    
N15   N16   A    
C13   C87   S    
C41   C47   S    
C31   C34   S    
C42   C48   S    
C44   C60   S    
C43   C45   S    
C55   C69   S    
N13   Ni2   S    
N32   Ni3   S    
C50   H56   S    
C55   H41   S    
C21   C25   S    
C3    N3    A    
C22   C30   S    
C47   H23   S    
C48   H24   S    
C42   H20   S    
N34   H113  S    
N8    Ni8   S    
C116  H123  S    
C79   H81   S    
C50   C60   S    
N26   Ni5   S    
C10   H104  S    
C22   C39   S    
N35   C115  S    
C68   H38   S    
C3    C99   A    
C9    C18   A    
C71   H53   S    
C53   H39   S    
C37   C100  A    
N26   N29   A    
C86   I3    S    
C84   H74   S    
N19   N20   A    
N6    Ni6   S    
N27   Ni8   S    
C113  H110  S    
N17   Ni1   S    
C93   H87   S    
C76   H66   S    
C47   C63   S    
C48   C64   S    
C5    C17   A    
N23   N24   A    
C2    N2    A    
C23   C26   S    
C73   C81   S    
C109  H95   S    
C73   C87   S    
C44   C46   S    
C29   H9    S    
N36   H121  S    
C35   C98   A    
C11   H105  S    
C81   C89   S    
C14   C108  A    
N29   Ni2   S    
C114  H114  S    
C56   N36   S    
C15   C110  A    
C74   C82   S    
C5    H99   S    
C77   H79   S    
C78   H80   S    
C38   H46   S    
C13   C105  A    
C53   C57   S    
C93   N13   A    
C107  N19   A    
N1    N6    A    
C56   C60   S    
C112  H98   S    
C109  N21   A    
C34   H14   S    
C33   C39   S    
C49   C65   S    
C108  H94   S    
C94   C103  A    
C25   H107  S    
C95   H89   S    
N4    N7    A    
C80   H82   S    
C36   H44   S    
C46   H28   S    
C36   N6    A    
C83   H77   S    
C28   C31   S    
C35   H43   S    
C38   C99   A    
C49   C59   S    
C39   C103  S    
C78   N10   A    
N11   Ni8   S    
C12   N32   A    
C41   C57   S    
C3    H3    S    
C91   H84   S    
N34   C114  S    
C75   C83   S    
C67   H61   S    
C57   C98   S    
C49   H31   S    
C12   C19   A    
C45   C61   S    
C94   H88   S    
C31   H11   S    
C37   N7    A    
C8    N28   A    
C106  N18   A    
C114  H116  S    
C110  H96   S    
C51   H57   S    
C23   C31   S    
C16   C28   S    
C113  H112  S    
C82   H72   S    
C32   H12   S    
C60   C99   S    
C85   C91   S    
C8    C20   A    
C85   I1    S    
C65   H59   S    
C34   C40   S    
C66   H60   S    
C115  H119  S    
C69   H49   S    
C49   H55   S    
C6    H100  S    
C10   C17   A    
C5    N25   A    
C15   C27   S    
C108  N20   A    
C84   H78   S    
C76   C88   S    
C52   C68   S    
N28   N31   A    
N7    Ni7   S    
C46   H26   S    
C27   C30   S    
C58   C97   S    
C95   N15   A    
C76   H70   S    
C85   C87   S    
C6    C18   A    
C63   C67   S    
C55   N35   S    
C26   H108  S    
C1    C97   A    
N33   C113  S    
C68   H62   S    
N3    N8    A    
N23   Ni7   S    
C116  H122  S    
N21   Ni5   S    
C22   C25   S    
C11   N31   A    
C20   C64   S    
C9    N29   A    
C111  H97   S    
C40   C104  S    
C21   C39   S    
C45   H25   S    
N35   H117  S    
C96   N16   A    
C74   H68   S    
C50   C66   S    
N14   Ni1   S    
C7    H101  S    
C115  H118  S    
C56   C70   S    
C4    C100  A    
C81   H71   S    
C92   H85   S    
C75   H69   S    
C95   C104  A    
C38   N8    A    
C54   C58   S    
C61   C69   S    
C83   C90   S    
C22   H6    S    
C30   C33   S    
C86   I4    S    
C69   H51   S    
C63   C71   S    
C70   H52   S    
C25   C27   S    
C71   H47   S    
C26   C28   S    
C72   H48   S    
C96   C104  A    
N5    Ni5   S    
C86   C92   S    
C24   C40   S    
C64   C72   S    
C73   H67   S    
N3    Ni3   S    
C75   C88   S    
C54   C72   S    
C2    C98   A    
N11   N12   A    
C83   H73   S    
C81   H75   S    
