data_mof_unit_38886.cif
_audit_creation_date              2012-12-11T20:55:18-0500
_audit_creation_method            fapswitch 2.2
_symmetry_space_group_name_H-M    P1
_symmetry_Int_Tables_number       1
_space_group_crystal_system       triclinic
_cell_length_a                    8.265614
_cell_length_b                    19.101356
_cell_length_c                    22.801798
_cell_angle_alpha                 100.118054
_cell_angle_beta                  90.023002
_cell_angle_gamma                 91.821602
_cell_volume                      3542.20403678

loop_
_atom_site_label
_atom_site_type_symbol
_atom_type_description
_atom_site_fract_x
_atom_site_fract_y
_atom_site_fract_z
_atom_type_partial_charge
Ba1   Ba    Ba6+2 0.157290 0.533910 0.474710 1.658049
Ba2   Ba    Ba6+2 0.652900 0.466090 0.525240 1.646168
C1    C     C_3   0.350196 0.785405 0.289882 -0.229454
C2    C     C_3   0.372562 0.729714 0.329515 0.392844
C3    C     C_3   0.486327 0.684165 0.620023 0.306380
C4    C     C_3   0.495070 0.764684 0.638100 -0.369795
C5    C     C_3   0.884989 0.283798 0.649250 0.361548
C6    C     C_3   0.878179 0.211648 0.668858 -0.361418
C7    C     C_3   0.388590 0.296988 0.679865 0.306569
C8    C     C_3   0.452738 0.283765 0.739279 -0.356796
C9    C     C_R   0.958178 0.197374 0.468039 -0.151434
C10   C     C_R   0.989888 0.271917 0.479081 0.057410
C11   C     C_R   0.140288 0.186521 0.548403 -0.154328
C12   C     C_3   0.844404 0.707583 0.310856 0.301201
C13   C     C_R   0.205950 0.253955 0.544424 -0.000180
C14   C     C_R   0.683098 0.807810 0.444814 -0.145297
C15   C     C_R   0.611612 0.742917 0.453477 -0.003727
C16   C     C_R   0.866451 0.800998 0.525680 -0.145299
C17   C     C_R   0.825599 0.727413 0.519558 0.067673
C18   C     C_R   0.023724 0.152656 0.506192 0.001723
C19   C     C_R   0.119742 0.298724 0.515402 -0.246702
C20   C     C_R   0.802835 0.843101 0.485074 0.009521
C21   C     C_R   0.692211 0.700544 0.485957 -0.220735
C22   C     C_R   0.237886 0.034154 0.531848 -0.077122
C23   C     C_3   0.877738 0.785328 0.306927 -0.356069
C24   C     C_R   0.333750 0.983322 0.549603 -0.082690
C25   C     C_R   0.288873 0.912532 0.533788 -0.069352
C26   C     C_R   0.142619 0.893657 0.504311 -0.070629
C27   C     C_R   0.023836 0.944481 0.501420 0.011238
C28   C     C_R   0.076068 0.018414 0.512064 0.038213
C29   C     C_R   0.860296 0.921767 0.485610 -0.018701
C30   C     C_R   0.754210 0.976347 0.474239 0.038257
C31   C     C_R   0.806235 0.050176 0.486141 0.015772
C32   C     C_R   0.968919 0.073036 0.502277 -0.016562
C33   C     C_R   0.593646 0.961427 0.452111 -0.080825
C34   C     C_3   0.820010 0.373121 0.341632 0.300816
C35   C     C_R   0.499995 0.013481 0.434745 -0.079998
C36   C     C_R   0.544280 0.084047 0.453204 -0.067147
C37   C     C_R   0.687943 0.101119 0.484431 -0.080791
C38   C     C_R   0.646959 0.521644 0.334708 -0.293686
C39   C     C_R   0.372900 0.560813 0.948214 -0.024542
C40   C     C_R   0.323041 0.557987 0.888630 0.585575
C41   C     C_R   0.244045 0.434489 0.880769 0.581060
C42   C     C_R   0.295645 0.435173 0.939941 -0.022555
C43   C     C_R   0.360376 0.498807 0.973767 -0.052303
C44   C     C_R   0.435487 0.624195 0.982775 -0.076909
C45   C     C_3   0.815096 0.352606 0.274079 -0.363423
C46   C     C_R   0.485057 0.626032 0.041568 -0.081484
C47   C     C_R   0.474806 0.564402 0.067497 -0.018315
C48   C     C_R   0.412663 0.500499 0.033430 -0.053062
C49   C     C_R   0.285336 0.373593 0.965935 -0.077147
C50   C     C_R   0.339095 0.375014 0.024264 -0.074350
C51   C     C_R   0.403033 0.438271 0.058709 -0.024467
C52   C     C_R   0.457723 0.440678 0.117787 0.586533
C53   C     C_R   0.524366 0.565500 0.126863 0.580686
C54   C     C_2   0.064143 0.476937 0.773350 -0.069821
C55   C     C_3   0.019936 0.483111 0.709795 -0.057365
C56   C     C_3   0.997421 0.632942 0.660130 0.298945
C57   C     C_1   0.302789 0.511544 0.694244 0.015970
C58   C     C_2   0.344019 0.510861 0.750245 -0.092051
C59   C     C_2   0.218255 0.492874 0.793275 0.215390
C60   C     C_R   0.714699 0.537902 0.234614 -0.112418
C61   C     C_R   0.755232 0.545607 0.295150 -0.062811
C62   C     C_R   0.502744 0.485975 0.314097 0.037081
C63   C     C_R   0.459003 0.480034 0.253890 -0.087887
C64   C     C_R   0.563390 0.507087 0.213547 0.221003
C65   C     C_2   0.169083 0.478523 0.671146 -0.282929
C66   C     C_3   0.035212 0.662834 0.725279 -0.360613
C67   C     C_3   0.321106 0.317441 0.394237 0.317659
C68   C     C_3   0.317442 0.236803 0.376864 -0.381864
H1    H     H_    0.316682 0.677829 0.308072 0.084395
H2    H     H_    0.733430 0.305169 0.260693 0.139263
H3    H     H_    0.769756 0.396792 0.253802 0.071807
H4    H     H_    0.938596 0.340237 0.256936 0.128642
H5    H     H_    0.110567 0.614255 0.637633 0.021267
H6    H     H_    0.907676 0.588029 0.657199 0.035474
H7    H     H_    0.117699 0.710431 0.728489 0.147029
H8    H     H_    0.921598 0.678242 0.749460 0.119181
H9    H     H_    0.197924 0.335159 0.406170 0.000502
H10   H     H_    0.403340 0.332759 0.433161 0.082885
H11   H     H_    0.220009 0.796453 0.286858 0.135210
H12   H     H_    0.231025 0.219551 0.339423 0.125946
H13   H     H_    0.278897 0.212023 0.415245 0.058591
H14   H     H_    0.440075 0.218371 0.363102 0.127586
H15   H     H_    0.504715 0.723080 0.334013 -0.120657
H16   H     H_    0.610079 0.665556 0.608872 0.014643
H17   H     H_    0.407203 0.670669 0.580024 0.082117
H18   H     H_    0.575192 0.780209 0.677661 0.128291
H19   H     H_    0.544641 0.789115 0.600885 0.056845
H20   H     H_    0.372129 0.784893 0.648896 0.126903
H21   H     H_    0.415232 0.835707 0.310144 0.102687
H22   H     H_    0.761865 0.813318 0.307934 0.066308
H23   H     H_    0.788951 0.283839 0.615143 0.100219
H24   H     H_    0.004950 0.292142 0.630007 -0.054830
H25   H     H_    0.980327 0.207895 0.699694 0.119460
H26   H     H_    0.762154 0.204235 0.691845 0.141559
H27   H     H_    0.261939 0.275428 0.674464 -0.019760
H28   H     H_    0.390992 0.355441 0.680728 0.044459
H29   H     H_    0.373562 0.308705 0.775698 0.136096
H30   H     H_    0.576978 0.307254 0.747301 0.157927
H31   H     H_    0.777442 0.704944 0.352500 -0.018761
H32   H     H_    0.454869 0.225704 0.739498 0.112917
H33   H     H_    0.876681 0.175784 0.431817 0.074895
H34   H     H_    0.182031 0.161986 0.584573 0.064967
H35   H     H_    0.643899 0.828932 0.406581 0.053790
H36   H     H_    0.951772 0.823585 0.560314 0.072555
H37   H     H_    0.160471 0.353569 0.517975 0.061938
H38   H     H_    0.644116 0.647719 0.488240 0.056661
H39   H     H_    0.300721 0.083402 0.530617 0.076418
H40   H     H_    0.453109 0.998141 0.568230 0.080453
H41   H     H_    0.373729 0.872945 0.540753 0.102370
H42   H     H_    0.768819 0.683456 0.271782 0.033375
H43   H     H_    0.122369 0.838913 0.484018 0.137380
H44   H     H_    0.528163 0.912562 0.451600 0.072916
H45   H     H_    0.381775 0.999522 0.414781 0.077092
H46   H     H_    0.461458 0.125009 0.447425 0.093484
H47   H     H_    0.707746 0.154634 0.507073 0.127522
H48   H     H_    0.329684 0.326316 0.042417 0.123653
H49   H     H_    0.236594 0.323831 0.941068 0.121620
H50   H     H_    0.532066 0.676010 0.066646 0.118641
H51   H     H_    0.799708 0.556521 0.204208 0.102516
H52   H     H_    0.446267 0.672757 0.964469 0.123142
H53   H     H_    0.954463 0.811335 0.345109 0.133076
H54   H     H_    0.467737 0.523704 0.765273 0.105786
H55   H     H_    0.969672 0.466249 0.803954 0.097517
H56   H     H_    0.344415 0.454270 0.238529 0.115960
H57   H     H_    0.679716 0.526919 0.381259 0.079145
H58   H     H_    0.939635 0.789464 0.264427 0.114112
H59   H     H_    0.696227 0.384858 0.357886 0.013257
H60   H     H_    0.901292 0.420889 0.353967 0.057348
N1    N     N_R   0.261034 0.495125 0.855419 -0.428137
N2    N     N_R   0.515210 0.504152 0.151683 -0.423762
O1    O     O_2   0.108070 0.674980 0.540650 -0.450178
O2    O     O_3   0.374680 0.347121 0.345577 -0.627946
O3    O     O_3   0.991147 0.672564 0.310551 -0.576065
O4    O     O_2   0.702240 0.324970 0.459330 -0.462925
O5    O     O_3   0.948380 0.413820 0.464520 -0.492460
O6    O     O_3   0.443920 0.371740 0.566130 -0.463972
O7    O     O_3   0.877471 0.315751 0.365042 -0.632203
O8    O     O_3   0.358830 0.538360 0.571050 -0.480395
O9    O     O_3   0.852160 0.408490 0.597560 -0.488611
O10   O     O_2   0.687545 0.445263 0.697770 -0.482171
O11   O     O_3   0.862957 0.337055 0.698910 -0.595623
O12   O     O_3   0.861930 0.586170 0.535430 -0.490169
O13   O     O_3   0.451480 0.461630 0.428900 -0.494933
O14   O     O_2   0.599240 0.538720 0.642170 -0.459126
O15   O     O_3   0.423579 0.653770 0.667374 -0.635716
O16   O     O_2   0.530175 0.246215 0.518534 -0.506975
O17   O     O_3   0.486194 0.262481 0.633990 -0.598152
O18   O     O_2   0.333579 0.611687 0.866372 -0.594189
O19   O     O_2   0.185287 0.379788 0.851639 -0.604105
O20   O     O_2   0.455829 0.386049 0.138812 -0.597250
O21   O     O_2   0.574444 0.621423 0.156702 -0.629460
O22   O     O_3   0.366390 0.628250 0.433820 -0.464404
O23   O     O_2   0.309950 0.749985 0.498412 -0.503715
O24   O     O_3   0.932150 0.687088 0.634691 -0.638421
O25   O     O_3   0.295681 0.752706 0.384292 -0.591165
O26   O     O_2   0.211060 0.461230 0.357810 -0.459700
O27   O     O_3   0.958150 0.591500 0.402390 -0.461416
O28   O     O_2   0.093744 0.543533 0.297360 -0.484720
P1    P     P_3+3 0.933470 0.664380 0.557030 0.985281
P2    P     P_3+3 0.383600 0.440030 0.365120 0.993017
P3    P     P_3+3 0.949294 0.586829 0.325031 0.972748
P4    P     P_3+3 0.876840 0.335610 0.442930 0.981620
P5    P     P_3+3 0.855963 0.419585 0.675696 0.971922
P6    P     P_3+3 0.397123 0.719592 0.440300 0.944134
P7    P     P_3+3 0.417722 0.561095 0.645809 0.957649
P8    P     P_3+3 0.414397 0.281767 0.566803 0.923496
H61   H     H_    0.095279 0.623102 0.746983 0.081527
C69   C     C_3   0.414291 0.760655 0.227274 -0.443809
H62   H     H_    0.545451 0.750321 0.228956 0.166409
H63   H     H_    0.347261 0.711511 0.205763 0.170546
H64   H     H_    0.396993 0.802646 0.200014 0.135119
H65   H     H_    0.886164 0.168555 0.629512 0.070330
H66   H     H_    0.167323 0.448390 0.626055 0.064052

loop_
_geom_bond_atom_site_label_1
_geom_bond_atom_site_label_2
_ccdc_geom_bond_type
O26   P2    D    
O14   P7    D    
C67   O2    S    
C3    O15   S    
O12   P1    S    
Ba2   O12   S    
C39   C40   A    
Ba1   O13   S    
C6    H26   S    
C5    O11   S    
C56   H6    S    
C5    C6    S    
C46   H50   S    
C51   C52   A    
C42   C43   A    
Ba2   O13   S    
C61   P3    S    
C6    H25   S    
C7    O17   S    
C24   C25   A    
C31   C37   A    
C38   C61   A    
C34   C45   S    
C1    H21   S    
Ba1   O26   S    
C33   C35   A    
C23   H58   S    
C22   C24   A    
Ba1   Ba2   S    
C15   P6    S    
C3    C4    S    
Ba1   O5    S    
C6    H65   S    
C55   P5    S    
C12   O3    S    
O23   P6    D    
C4    H18   S    
C54   C55   S    
C33   H44   S    
O6    P8    S    
C16   C17   A    
C17   P1    S    
C58   H54   S    
O11   P5    S    
C57   C65   D    
C69   H62   S    
C2    O25   S    
C65   H66   S    
C14   C15   A    
C1    H11   S    
C49   H49   S    
C39   C44   A    
C40   N1    Am   
C68   H14   S    
C7    C8    S    
C24   H40   S    
C18   C32   S    
O8    P7    S    
C12   H42   S    
C25   H41   S    
C57   C58   D    
Ba1   O22   S    
C8    H29   S    
O17   P8    S    
C55   C65   S    
Ba1   O1    S    
C56   H5    S    
C64   N2    S    
C66   H8    S    
C5    H23   S    
C44   C46   A    
C9    C18   A    
C48   C51   A    
C20   C29   S    
C28   C32   A    
C49   C50   A    
Ba2   O6    S    
O28   P3    D    
C8    H32   S    
C45   H3    S    
C62   P2    S    
Ba2   P4    S    
C60   C64   A    
C12   H31   S    
C52   O20   D    
C2    H15   S    
C37   H47   S    
C38   H57   S    
C10   C19   A    
C22   H39   S    
Ba2   O4    S    
O2    P2    S    
C30   C31   A    
C58   C59   S    
C35   C36   A    
C17   C21   A    
C41   C42   A    
C16   H36   S    
C7    H28   S    
C27   C28   A    
C34   H60   S    
C10   P4    S    
C36   H46   S    
C66   H61   S    
C40   O18   D    
C29   C30   A    
Ba1   O27   S    
C60   C61   A    
C31   C32   A    
C15   C21   A    
C54   H55   S    
C11   H34   S    
C8    H30   S    
C68   H13   S    
C23   H53   S    
C19   H37   S    
Ba1   O8    S    
O15   P7    S    
C14   H35   S    
C7    H27   S    
C3    H16   S    
C42   C49   A    
C56   C66   S    
C46   C47   A    
O24   P1    S    
C63   C64   A    
C11   C13   A    
O16   P8    D    
C47   C48   A    
O27   P3    S    
C13   P8    S    
C67   H9    S    
C1    C2    S    
C41   O19   D    
C50   C51   A    
O4    P4    D    
C66   H7    S    
C53   O21   D    
C5    H24   S    
C26   C27   A    
C23   H22   S    
C14   C20   A    
C11   C18   A    
C16   C20   A    
Ba2   O5    S    
O3    P3    S    
O22   P6    S    
C30   C33   A    
C45   H4    S    
O1    P1    D    
O25   P6    S    
Ba1   P2    S    
O5    P4    S    
C9    C10   A    
C1    C69   S    
C35   H45   S    
Ba2   O14   S    
C4    H19   S    
C52   N2    Am   
O9    P5    S    
C38   C62   A    
Ba2   O8    S    
C63   H56   S    
C41   N1    Am   
C27   C29   A    
Ba1   O12   S    
C47   C53   A    
C34   H59   S    
C62   C63   A    
O10   P5    D    
C36   C37   A    
C69   H63   S    
C43   C48   A    
C21   H38   S    
C57   P7    S    
C60   H51   S    
C12   C23   S    
C67   C68   S    
C68   H12   S    
C34   O7    S    
C22   C28   A    
C45   H2    S    
O7    P4    S    
C26   H43   S    
C59   N1    S    
Ba1   P1    S    
C56   O24   S    
C3    H17   S    
C13   C19   A    
C4    H20   S    
C53   N2    Am   
O13   P2    S    
C25   C26   A    
Ba2   O9    S    
C39   C43   A    
C54   C59   D    
C44   H52   S    
C67   H10   S    
C9    H33   S    
C2    H1    S    
C69   H64   S    
C50   H48   S    
