data_mof_unit_24077.cif
_audit_creation_date              2012-12-11T16:25:20-0500
_audit_creation_method            fapswitch 2.2
_symmetry_space_group_name_H-M    P1
_symmetry_Int_Tables_number       1
_space_group_crystal_system       triclinic
_cell_length_a                    22.392722
_cell_length_b                    30.459177
_cell_length_c                    18.780432
_cell_angle_alpha                 90.11254
_cell_angle_beta                  126.426974
_cell_angle_gamma                 90.238987
_cell_volume                      10306.4239663

loop_
_atom_site_label
_atom_site_type_symbol
_atom_type_description
_atom_site_fract_x
_atom_site_fract_y
_atom_site_fract_z
_atom_type_partial_charge
C1    C     C_R   0.925907 0.598306 0.074827 -0.027196
C2    C     C_R   0.046498 0.380115 0.925962 -0.141650
C3    C     C_R   0.045658 0.620150 0.926182 -0.063372
C4    C     C_R   0.927003 0.399492 0.074660 -0.043312
C5    C     C_R   0.425680 0.097489 0.075086 -0.031646
C6    C     C_R   0.547182 0.880496 0.925694 -0.132280
C7    C     C_R   0.545874 0.119952 0.925937 -0.056368
C8    C     C_R   0.426819 0.899807 0.074692 -0.043488
C9    C     C_R   0.100325 0.458370 0.731181 -0.330869
C10   C     C_R   0.108480 0.534085 0.439635 -0.325428
C11   C     C_R   0.583743 0.960160 0.708160 -0.333514
C12   C     C_R   0.615786 0.039636 0.440164 -0.324291
C13   C     C_R   0.114637 0.456137 0.668740 -0.024276
C14   C     C_R   0.124131 0.534835 0.523813 -0.009872
C15   C     C_R   0.608646 0.958973 0.655460 -0.022293
C16   C     C_R   0.628684 0.040149 0.522817 -0.011859
C17   C     C_R   0.123266 0.495640 0.636470 -0.005817
C18   C     C_R   0.118027 0.495158 0.558172 -0.019538
C19   C     C_R   0.620886 0.999174 0.628515 -0.006044
C20   C     C_R   0.627438 0.999632 0.558639 -0.008407
C21   C     C_R   0.130773 0.535975 0.678188 -0.088934
C22   C     C_R   0.099529 0.455460 0.510238 -0.074732
C23   C     C_R   0.621595 0.039152 0.667176 -0.084111
C24   C     C_R   0.627448 0.959631 0.520488 -0.107439
C25   C     C_R   0.109533 0.415703 0.628508 0.510290
C26   C     C_R   0.143754 0.574116 0.574192 0.523634
C27   C     C_R   0.613911 0.918874 0.621126 0.525378
C28   C     C_R   0.637851 0.079729 0.568347 0.518311
C29   C     C_R   0.098496 0.415967 0.547840 -0.211481
C30   C     C_R   0.149028 0.573836 0.652053 -0.261481
C31   C     C_R   0.623012 0.919743 0.554222 -0.238998
C32   C     C_R   0.638427 0.078298 0.642860 -0.259015
C33   C     C_R   0.671066 0.347608 0.937425 -0.218552
C34   C     C_R   0.133501 0.766740 0.047434 -0.350829
C35   C     C_R   0.106560 0.233049 0.000539 -0.357133
C36   C     C_R   0.670730 0.657211 0.924745 -0.210430
C37   C     C_R   0.170835 0.847688 0.937311 -0.218419
C38   C     C_R   0.634346 0.266516 0.047968 -0.349888
C39   C     C_R   0.610364 0.733392 0.007200 -0.357015
C40   C     C_R   0.171153 0.157561 0.925157 -0.207903
C41   C     C_R   0.723399 0.374042 0.939948 0.483459
C42   C     C_R   0.114359 0.723196 0.050964 0.495464
C43   C     C_R   0.086214 0.275739 0.006674 0.493646
C44   C     C_R   0.721113 0.627733 0.930778 0.470918
C45   C     C_R   0.223113 0.874176 0.939791 0.482066
C46   C     C_R   0.615203 0.222981 0.051430 0.495297
C47   C     C_R   0.591058 0.776237 0.014060 0.491762
C48   C     C_R   0.220828 0.127613 0.930768 0.470240
C49   C     C_R   0.800205 0.365562 0.004463 -0.248801
C50   C     C_R   0.112412 0.691380 0.994829 -0.169397
C51   C     C_R   0.119602 0.311814 0.995884 -0.174607
C52   C     C_R   0.797093 0.630057 0.005198 -0.243157
C53   C     C_R   0.299952 0.865915 0.004614 -0.248840
C54   C     C_R   0.612191 0.191321 0.994321 -0.167914
C55   C     C_R   0.619413 0.811928 0.994919 -0.169577
C56   C     C_R   0.296606 0.128845 0.005935 -0.244464
C57   C     C_R   0.822231 0.334177 0.071209 0.605634
C58   C     C_R   0.124243 0.703976 0.931872 0.542647
C59   C     C_R   0.169976 0.305854 0.975717 0.556418
C60   C     C_R   0.816737 0.655133 0.080269 0.609380
C61   C     C_R   0.321989 0.834721 0.071694 0.595816
C62   C     C_R   0.622580 0.204155 0.930217 0.541981
C63   C     C_R   0.663493 0.805363 0.965718 0.555363
C64   C     C_R   0.316129 0.152995 0.081965 0.610447
C65   C     C_R   0.853917 0.397840 0.926436 -0.142699
C66   C     C_R   0.118343 0.620712 0.073209 -0.108274
C67   C     C_R   0.119251 0.379973 0.073248 -0.088521
C68   C     C_R   0.853383 0.600799 0.927020 -0.152855
C69   C     C_R   0.353804 0.897985 0.926489 -0.147945
C70   C     C_R   0.618438 0.120675 0.073052 -0.108300
C71   C     C_R   0.619391 0.880010 0.073070 -0.088994
C72   C     C_R   0.353084 0.100309 0.927289 -0.152724
C73   C     C_R   0.768802 0.311494 0.072098 -0.321666
C74   C     C_R   0.137390 0.747826 0.924971 -0.329966
C75   C     C_R   0.189006 0.263466 0.969094 -0.322401
C76   C     C_R   0.763996 0.682286 0.074040 -0.326177
C77   C     C_R   0.268565 0.812018 0.072596 -0.325703
C78   C     C_R   0.635956 0.248011 0.923686 -0.330385
C79   C     C_R   0.681244 0.762746 0.958135 -0.324816
C80   C     C_R   0.264046 0.180653 0.075981 -0.328581
C81   C     C_R   0.693832 0.315966 0.002524 0.015011
C82   C     C_R   0.146528 0.778616 0.985837 0.096179
C83   C     C_R   0.158074 0.227241 0.982235 0.098601
C84   C     C_R   0.693274 0.685574 0.994981 0.015672
C85   C     C_R   0.193628 0.816222 0.002727 0.016315
C86   C     C_R   0.646412 0.278559 0.985630 0.095426
C87   C     C_R   0.655564 0.726959 0.979669 0.099368
C88   C     C_R   0.194090 0.185312 0.996350 0.014812
C89   C     C_R   0.453783 0.539188 0.368362 0.614288
C90   C     C_R   0.577688 0.461405 0.502418 0.606465
C91   C     C_R   0.622534 0.524916 0.466941 0.657857
C92   C     C_R   0.447483 0.468055 0.303677 0.644358
C93   C     C_R   0.953807 0.039185 0.368671 0.612721
C94   C     C_R   0.077783 0.961391 0.502367 0.604882
C95   C     C_R   0.122532 0.024973 0.466934 0.658883
C96   C     C_R   0.947472 0.968133 0.303702 0.645405
C97   C     C_R   0.376660 0.539834 0.316787 -0.379567
C98   C     C_R   0.642795 0.461963 0.588303 -0.365387
C99   C     C_R   0.685136 0.526893 0.555576 -0.361744
C100  C     C_R   0.370480 0.467993 0.257130 -0.321841
C101  C     C_R   0.876688 0.039809 0.317200 -0.376792
C102  C     C_R   0.142915 0.961932 0.588227 -0.366128
C103  C     C_R   0.185165 0.026928 0.555551 -0.362926
C104  C     C_R   0.870483 0.968043 0.257264 -0.322259
C105  C     C_R   0.335189 0.503076 0.266218 -0.001942
C106  C     C_R   0.694105 0.496130 0.616492 0.012036
C107  C     C_R   0.835217 0.003076 0.266525 -0.000730
C108  C     C_R   0.194185 0.996125 0.616436 0.012113
C109  C     C_R   0.489689 0.502162 0.365075 -0.169197
C110  C     C_R   0.566235 0.494035 0.442269 -0.178179
C111  C     C_R   0.989695 0.002210 0.365176 -0.169280
C112  C     C_R   0.066267 0.994066 0.442266 -0.177815
C113  C     C_R   0.796975 0.535728 0.758022 -0.149864
C114  C     C_R   0.211391 0.463955 0.202466 -0.150599
C115  C     C_R   0.210474 0.537411 0.202784 -0.136170
C116  C     C_R   0.796987 0.462778 0.760085 -0.152211
C117  C     C_R   0.297013 0.035725 0.757984 -0.151817
C118  C     C_R   0.711408 0.963950 0.202634 -0.128266
C119  C     C_R   0.710494 0.037412 0.202962 -0.135450
C120  C     C_R   0.297025 0.962778 0.760052 -0.152685
C121  C     C_R   0.041178 0.462939 0.241537 -0.088344
C122  C     C_R   0.014848 0.536598 0.804525 -0.106193
C123  C     C_R   0.015659 0.463559 0.805952 -0.136324
C124  C     C_R   0.039789 0.535548 0.243256 -0.196676
C125  C     C_R   0.545637 0.963603 0.244368 -0.117205
C126  C     C_R   0.508522 0.036853 0.797174 -0.100072
C127  C     C_R   0.511099 0.963631 0.799885 -0.139774
C128  C     C_R   0.547998 0.036136 0.245907 -0.190764
C129  C     C_R   0.856040 0.610435 0.001990 0.102659
C130  C     C_R   0.098863 0.356357 0.999109 0.221477
C131  C     C_R   0.096993 0.645025 0.999183 0.149487
C132  C     C_R   0.857674 0.386798 0.001192 0.081616
C133  C     C_R   0.355602 0.109459 0.002416 0.102193
C134  C     C_R   0.599518 0.856642 0.998792 0.215522
C135  C     C_R   0.597113 0.144909 0.998878 0.143907
C136  C     C_R   0.357457 0.887107 0.001267 0.083186
C137  C     C_R   0.757078 0.498633 0.709762 0.157117
C138  C     C_R   0.255721 0.501280 0.225920 0.145462
C139  C     C_R   0.257141 0.998629 0.709706 0.157645
C140  C     C_R   0.755750 0.001277 0.226187 0.138784
C141  C     C_R   0.050724 0.498412 0.292915 0.131879
C142  C     C_R   0.043042 0.500063 0.789125 0.104345
C143  C     C_R   0.565591 0.999762 0.299087 0.120458
C144  C     C_R   0.533704 0.000414 0.777204 0.106149
C145  C     C_R   0.113712 0.537668 0.739593 0.465861
C146  C     C_R   0.076690 0.456338 0.422990 0.457798
C147  C     C_R   0.601581 0.039266 0.725575 0.463058
C148  C     C_R   0.624506 0.960417 0.443743 0.478937
C149  C     C_R   0.089678 0.498972 0.757107 0.045791
C150  C     C_R   0.079384 0.496179 0.386635 0.008599
C151  C     C_R   0.575472 0.000098 0.738736 0.037244
C152  C     C_R   0.604643 0.999826 0.396005 0.036010
H1    H     H_    0.946619 0.598431 0.143030 0.144680
H2    H     H_    0.010817 0.367872 0.858694 0.095386
H3    H     H_    0.008619 0.632032 0.859057 0.116132
H4    H     H_    0.947896 0.397137 0.143123 0.162670
H5    H     H_    0.446572 0.096850 0.143412 0.147308
H6    H     H_    0.511658 0.868379 0.858333 0.089638
H7    H     H_    0.508833 0.131734 0.858752 0.117470
H8    H     H_    0.447580 0.897766 0.143138 0.144114
H9    H     H_    0.786582 0.286190 0.121366 0.168521
H10   H     H_    0.149935 0.756655 0.879219 0.165510
H11   H     H_    0.231845 0.258750 0.959631 0.168247
H12   H     H_    0.781394 0.705415 0.127147 0.170127
H13   H     H_    0.286383 0.786848 0.122117 0.168398
H14   H     H_    0.647501 0.257011 0.877100 0.165508
H15   H     H_    0.720148 0.757613 0.942455 0.166861
H16   H     H_    0.281714 0.203124 0.130134 0.170600
H17   H     H_    0.350120 0.567905 0.322203 0.160764
H18   H     H_    0.650811 0.437152 0.634482 0.173633
H19   H     H_    0.725788 0.552809 0.577052 0.151867
H20   H     H_    0.338700 0.440054 0.215554 0.171711
H21   H     H_    0.850152 0.067841 0.322747 0.161054
H22   H     H_    0.150971 0.937092 0.634379 0.173593
H23   H     H_    0.225788 0.052863 0.577046 0.151463
H24   H     H_    0.838691 0.940128 0.215610 0.169937
H25   H     H_    0.807610 0.392303 0.858215 0.136430
H26   H     H_    0.149607 0.632722 0.140566 0.147399
H27   H     H_    0.150631 0.367828 0.140307 0.100541
H28   H     H_    0.807507 0.606175 0.858716 0.149338
H29   H     H_    0.307487 0.892441 0.858276 0.137369
H30   H     H_    0.649767 0.132708 0.140391 0.149375
H31   H     H_    0.650530 0.867705 0.139999 0.111514
H32   H     H_    0.307126 0.105685 0.859034 0.150001
H33   H     H_    0.787463 0.568915 0.733265 0.106847
H34   H     H_    0.228857 0.430204 0.211063 0.109049
H35   H     H_    0.226148 0.571537 0.209716 0.099204
H36   H     H_    0.788506 0.429254 0.736629 0.109549
H37   H     H_    0.287516 0.068914 0.733239 0.106934
H38   H     H_    0.728869 0.930194 0.211268 0.106863
H39   H     H_    0.726181 0.071539 0.209956 0.099541
H40   H     H_    0.288566 0.929252 0.736608 0.108776
H41   H     H_    0.060889 0.429953 0.263189 0.140565
H42   H     H_    0.021893 0.570608 0.796018 0.167916
H43   H     H_    0.024970 0.429581 0.800504 0.102713
H44   H     H_    0.053750 0.569018 0.267108 0.108425
H45   H     H_    0.557729 0.929640 0.262940 0.180308
H46   H     H_    0.512238 0.070964 0.785739 0.160506
H47   H     H_    0.520690 0.929701 0.794008 0.101027
H48   H     H_    0.565036 0.069646 0.267917 0.111142
H49   H     H_    0.087378 0.428426 0.749715 0.152545
H50   H     H_    0.115766 0.563220 0.413089 0.150448
H51   H     H_    0.564941 0.930136 0.719205 0.150533
H52   H     H_    0.609846 0.069898 0.407286 0.143609
H53   H     H_    0.087662 0.384720 0.514648 0.177711
H54   H     H_    0.162443 0.604496 0.687897 0.173201
H55   H     H_    0.621394 0.888633 0.525135 0.181211
H56   H     H_    0.646042 0.109013 0.676410 0.176423
H57   H     H_    0.612755 0.350755 0.883109 0.165653
H58   H     H_    0.142221 0.790751 0.095483 0.150421
H59   H     H_    0.084757 0.204717 0.013156 0.145566
H60   H     H_    0.615151 0.659457 0.863716 0.164546
H61   H     H_    0.112559 0.850630 0.882747 0.165946
H62   H     H_    0.643935 0.290373 0.096696 0.151553
H63   H     H_    0.593002 0.705451 0.026562 0.145725
H64   H     H_    0.116019 0.160733 0.863743 0.164759
N1    N     N_R   0.963040 0.582050 0.045950 -0.052681
N2    N     N_R   0.036960 0.417950 0.954050 -0.044882
N3    N     N_R   0.036960 0.582050 0.954050 -0.058185
N4    N     N_R   0.963040 0.417950 0.045950 -0.056386
N5    N     N_R   0.463040 0.082050 0.045950 -0.053135
N6    N     N_R   0.536960 0.917950 0.954050 -0.046005
N7    N     N_R   0.536960 0.082050 0.954050 -0.058322
N8    N     N_R   0.463040 0.917950 0.045950 -0.054537
N9    N     N_R   0.917940 0.418000 0.954160 -0.042388
N10   N     N_R   0.082060 0.582000 0.045840 -0.052579
N11   N     N_R   0.082060 0.418000 0.045840 -0.051543
N12   N     N_R   0.917940 0.582000 0.954160 -0.049315
N13   N     N_R   0.417940 0.918000 0.954160 -0.043622
N14   N     N_R   0.582060 0.082000 0.045840 -0.053676
N15   N     N_R   0.582060 0.918000 0.045840 -0.053561
N16   N     N_R   0.417940 0.082000 0.954160 -0.049561
N17   N     N_R   0.858490 0.522630 0.835610 -0.047178
N18   N     N_R   0.141510 0.477370 0.164390 -0.046120
N19   N     N_R   0.141510 0.522630 0.164390 -0.042007
N20   N     N_R   0.858490 0.477370 0.835610 -0.045311
N21   N     N_R   0.358490 0.022630 0.835610 -0.047373
N22   N     N_R   0.641510 0.977370 0.164390 -0.042205
N23   N     N_R   0.641510 0.022630 0.164390 -0.041786
N24   N     N_R   0.358490 0.977370 0.835610 -0.045363
N25   N     N_R   0.022480 0.477420 0.164500 -0.062722
N26   N     N_R   0.977520 0.522580 0.835500 -0.056296
N27   N     N_R   0.977520 0.477420 0.835500 -0.042167
N28   N     N_R   0.022480 0.522580 0.164500 -0.047201
N29   N     N_R   0.522480 0.977420 0.164500 -0.061888
N30   N     N_R   0.477520 0.022580 0.835500 -0.056187
N31   N     N_R   0.477520 0.977420 0.835500 -0.041944
N32   N     N_R   0.522480 0.022580 0.164500 -0.048554
Ni1   Ni    Ni4+2 0.051820 0.551870 0.104030 0.228500
Ni2   Ni    Ni4+2 0.948180 0.448130 0.895970 0.222572
Ni3   Ni    Ni4+2 0.948180 0.551870 0.895970 0.210534
Ni4   Ni    Ni4+2 0.051820 0.448130 0.104030 0.218526
Ni5   Ni    Ni4+2 0.551820 0.051870 0.104030 0.228286
Ni6   Ni    Ni4+2 0.448180 0.948130 0.895970 0.219341
Ni7   Ni    Ni4+2 0.448180 0.051870 0.895970 0.208654
Ni8   Ni    Ni4+2 0.551820 0.948130 0.104030 0.233740
O1    O     O_3   0.697230 0.406661 0.877405 -0.754580
H65   H     H_    0.735211 0.430214 0.901327 0.318924
O2    O     O_3   0.098971 0.711051 0.109351 -0.755369
H66   H     H_    0.102504 0.737306 0.143014 0.325067
O3    O     O_3   0.035506 0.283061 0.024584 -0.765263
H67   H     H_    0.017611 0.254360 0.030198 0.306991
O4    O     O_3   0.694608 0.598569 0.861759 -0.753970
H68   H     H_    0.726048 0.572020 0.885402 0.317010
O5    O     O_3   0.196869 0.906608 0.876875 -0.754889
H69   H     H_    0.234703 0.930242 0.900648 0.318119
O6    O     O_3   0.600753 0.210716 0.110609 -0.756446
H70   H     H_    0.604934 0.236882 0.144859 0.325204
O7    O     O_3   0.546266 0.784092 0.040620 -0.764989
H71   H     H_    0.531222 0.755590 0.051146 0.307365
O8    O     O_3   0.193955 0.099130 0.860661 -0.754278
H72   H     H_    0.224506 0.072212 0.883521 0.316385
O9    O     O_3   0.896089 0.324036 0.134277 -0.614593
C153  C     C_3   0.914151 0.287615 0.104033 -0.210217
H73   H     H_    0.904538 0.294576 0.039785 0.155053
H74   H     H_    0.882557 0.257792 0.098087 0.123221
H75   H     H_    0.974056 0.280530 0.153109 0.185547
O10   O     O_3   0.127066 0.673118 0.879830 -0.611567
C154  C     C_3   0.202029 0.661457 0.922564 -0.162080
H76   H     H_    0.224310 0.644153 0.985821 0.130328
H77   H     H_    0.237393 0.690495 0.934679 0.105562
H78   H     H_    0.205690 0.638733 0.879224 0.204379
O11   O     O_3   0.207593 0.341609 0.974385 -0.600675
C155  C     C_3   0.183269 0.348614 0.886936 -0.230098
H79   H     H_    0.121898 0.352536 0.840934 0.125187
H80   H     H_    0.201414 0.321712 0.863793 0.151664
H81   H     H_    0.208832 0.379567 0.885557 0.169784
O12   O     O_3   0.889879 0.659769 0.153361 -0.607193
C156  C     C_3   0.898180 0.642088 0.228234 -0.280624
H82   H     H_    0.875721 0.607973 0.215676 0.126735
H83   H     H_    0.871831 0.663339 0.250418 0.155664
H84   H     H_    0.958287 0.640549 0.283315 0.177230
O13   O     O_3   0.395869 0.824758 0.135080 -0.620383
C157  C     C_3   0.414271 0.788224 0.105463 -0.200639
H85   H     H_    0.404953 0.795005 0.041322 0.152837
H86   H     H_    0.382685 0.758413 0.099598 0.121497
H87   H     H_    0.474161 0.781225 0.154890 0.186581
O14   O     O_3   0.623186 0.173554 0.876139 -0.612789
C158  C     C_3   0.697506 0.161368 0.916162 -0.162813
H88   H     H_    0.721318 0.144312 0.980056 0.128522
H89   H     H_    0.732720 0.190134 0.926380 0.107604
H90   H     H_    0.699026 0.138218 0.871719 0.206828
O15   O     O_3   0.698142 0.840909 0.958335 -0.600964
C159  C     C_3   0.670267 0.846086 0.869183 -0.225153
H91   H     H_    0.608646 0.848815 0.825341 0.118814
H92   H     H_    0.688384 0.818958 0.846491 0.153179
H93   H     H_    0.693297 0.877139 0.863756 0.170177
O16   O     O_3   0.388919 0.156376 0.156330 -0.607753
C160  C     C_3   0.395189 0.137090 0.228815 -0.285468
H94   H     H_    0.372419 0.102986 0.213332 0.125891
H95   H     H_    0.367808 0.157436 0.250866 0.155340
H96   H     H_    0.454914 0.135096 0.285045 0.176076
O17   O     O_3   0.494283 0.574421 0.423537 -0.574098
C161  C     C_3   0.494705 0.572671 0.498909 -0.197493
H97   H     H_    0.521118 0.542064 0.537062 0.113681
H98   H     H_    0.437903 0.575934 0.481178 0.125911
H99   H     H_    0.528321 0.600641 0.543029 0.188395
O18   O     O_3   0.524879 0.429046 0.477242 -0.570751
C162  C     C_3   0.485340 0.439182 0.511931 -0.212699
H100  H     H_    0.455669 0.470915 0.485812 0.108574
H101  H     H_    0.522156 0.439664 0.585540 0.142340
H102  H     H_    0.442741 0.413292 0.490464 0.179253
O19   O     O_3   0.610515 0.556641 0.407025 -0.572484
C163  C     C_3   0.665346 0.553331 0.392524 -0.242901
H103  H     H_    0.671297 0.519008 0.376999 0.113304
H104  H     H_    0.719601 0.566267 0.450074 0.140801
H105  H     H_    0.648330 0.573772 0.334546 0.176468
O20   O     O_3   0.481025 0.431373 0.298732 -0.569861
C164  C     C_3   0.510587 0.442613 0.252598 -0.199974
H106  H     H_    0.556112 0.467259 0.289766 0.128373
H107  H     H_    0.466623 0.454856 0.184992 0.127377
H108  H     H_    0.534476 0.412702 0.245027 0.176834
O21   O     O_3   0.994324 0.074390 0.423933 -0.574486
C165  C     C_3   0.994834 0.072544 0.499360 -0.195745
H109  H     H_    0.021293 0.041919 0.537413 0.113473
H110  H     H_    0.938056 0.075763 0.481720 0.126715
H111  H     H_    0.028453 0.100497 0.543540 0.188413
O22   O     O_3   0.025005 0.929006 0.477174 -0.571961
C166  C     C_3   0.985516 0.939067 0.511960 -0.206291
H112  H     H_    0.955816 0.970797 0.485935 0.108993
H113  H     H_    0.022375 0.939509 0.585570 0.141356
H114  H     H_    0.942944 0.913157 0.490479 0.181440
O23   O     O_3   0.110437 0.056742 0.407053 -0.571904
C167  C     C_3   0.165273 0.053536 0.392540 -0.247277
H115  H     H_    0.171332 0.019236 0.377018 0.112552
H116  H     H_    0.219488 0.066519 0.450082 0.140245
H117  H     H_    0.148184 0.073995 0.334556 0.176486
O24   O     O_3   0.980997 0.931495 0.298576 -0.569917
C168  C     C_3   0.010552 0.942841 0.252479 -0.203392
H118  H     H_    0.056114 0.967454 0.289773 0.128652
H119  H     H_    0.966595 0.955170 0.184950 0.128079
H120  H     H_    0.034390 0.912961 0.244724 0.176520
O25   O     O_3   0.116427 0.576424 0.779293 -0.783604
H121  H     H_    0.094737 0.599874 0.734215 0.317855
O26   O     O_3   0.043041 0.419777 0.370114 -0.766763
H122  H     H_    0.080864 0.396282 0.396172 0.301828
O27   O     O_3   0.605514 0.077137 0.768256 -0.781356
H123  H     H_    0.579134 0.100429 0.723162 0.313977
O28   O     O_3   0.638385 0.923434 0.413367 -0.791472
H124  H     H_    0.676781 0.905860 0.464980 0.318638
O29   O     O_3   0.108810 0.375581 0.661692 -0.757120
H125  H     H_    0.142653 0.377696 0.726905 0.295774
O30   O     O_3   0.154815 0.613832 0.548393 -0.747912
H126  H     H_    0.116383 0.617179 0.484062 0.306040
O31   O     O_3   0.606874 0.878188 0.647475 -0.756852
H127  H     H_    0.627336 0.880077 0.710562 0.295765
O32   O     O_3   0.645995 0.120391 0.542800 -0.744564
H128  H     H_    0.609534 0.122847 0.477950 0.306059

loop_
_geom_bond_atom_site_label_1
_geom_bond_atom_site_label_2
_ccdc_geom_bond_type
C101  C107  A    
O27   H123  S    
C22   C29   A    
C126  N30   A    
C19   C20   A    
C34   C42   A    
C39   C87   A    
C13   C25   A    
C79   C87   A    
C114  N18   A    
O21   C165  S    
C53   C136  S    
C9    C149  A    
C3    C131  A    
N26   Ni3   S    
C155  H79   S    
C144  C151  S    
C1    C129  A    
C92   C109  A    
C7    H7    S    
N30   Ni7   S    
O8    H72   S    
C153  H73   S    
C107  C140  S    
C9    C13   A    
C73   H9    S    
C105  C138  S    
C92   O20   S    
C11   C15   A    
C159  H93   S    
C12   C16   A    
C48   O8    S    
C46   O6    S    
C124  N28   A    
C81   C86   S    
C97   C105  A    
C45   O5    S    
C83   C88   S    
C117  N21   A    
N27   Ni2   S    
N2    Ni2   S    
C117  C139  A    
C122  H42   S    
C118  C140  A    
C73   C81   A    
N13   Ni6   S    
N6    Ni6   S    
C25   C29   A    
C27   C31   A    
O19   C163  S    
C71   H31   S    
C28   C32   A    
C72   H32   S    
C93   C101  A    
C161  H97   S    
C60   C76   A    
C17   C21   A    
C60   O12   S    
C113  N17   A    
C31   H55   S    
C7    N7    A    
C15   C27   A    
O26   H122  S    
C16   C20   A    
C65   N9    A    
C14   C26   A    
N15   Ni8   S    
C10   H50   S    
C36   H60   S    
N4    Ni4   S    
C90   O18   S    
C113  C137  A    
C36   C44   A    
O14   C158  S    
C37   C45   A    
N8    Ni8   S    
C39   C47   A    
C40   C48   A    
C165  H109  S    
C155  H81   S    
N20   Ni2   S    
C68   N12   A    
C82   C85   S    
N24   Ni6   S    
C98   C106  A    
C39   H63   S    
C40   C88   A    
C80   C88   A    
N8    N13   A    
C165  H111  S    
C72   C133  A    
C163  H105  S    
O24   C168  S    
C154  H77   S    
C64   O16   S    
C50   C131  S    
N1    N12   A    
C94   C102  A    
N29   N32   A    
C89   C97   A    
O28   H124  S    
C2    N2    A    
C71   N15   A    
C79   H15   S    
O31   H127  S    
C89   O17   S    
C80   H16   S    
C104  C107  A    
C69   H29   S    
C6    N6    A    
N10   Ni1   S    
C162  H101  S    
C168  H118  S    
C100  H20   S    
C12   C152  A    
C101  H21   S    
C111  C112  S    
N14   Ni5   S    
C43   C51   A    
C44   O4    S    
C123  N27   A    
C4    C132  A    
C5    C133  A    
C42   O2    S    
C38   C86   A    
C119  C140  A    
C142  C149  S    
O3    H67   S    
C77   H13   S    
C49   C57   A    
C75   H11   S    
O1    H65   S    
C57   C73   A    
C52   C60   A    
C53   C61   A    
C22   C146  A    
C61   C77   A    
C147  O27   S    
C55   C63   A    
C26   O30   S    
N23   Ni5   S    
C56   C64   A    
C32   H56   S    
C35   C43   A    
N7    N14   A    
N12   Ni3   S    
C93   O21   S    
C44   C52   A    
C159  H92   S    
C45   C53   A    
C2    H2    S    
C148  O28   S    
C146  C150  A    
C164  H107  S    
C40   H64   S    
N16   Ni7   S    
N1    Ni1   S    
C6    H6    S    
C95   C103  A    
C141  C150  S    
C17   C18   A    
C160  H95   S    
C96   C111  A    
N5    Ni5   S    
N28   Ni1   S    
C10   C14   A    
C74   H10   S    
N32   Ni5   S    
C163  H103  S    
C106  C137  S    
C147  C151  A    
O13   C157  S    
C69   N13   A    
C115  H35   S    
C67   N11   A    
C154  H76   S    
C113  H33   S    
C124  H44   S    
C156  H82   S    
C25   O29   S    
C41   O1    S    
C117  H37   S    
C42   C50   A    
C11   C151  A    
C26   C30   A    
C168  H120  S    
C124  C141  A    
C65   C132  A    
C58   C74   A    
C66   C131  A    
C99   C106  A    
C59   O11   S    
N30   N31   A    
C72   N16   A    
C18   C22   A    
C62   C78   A    
C148  C152  A    
O20   C164  S    
C127  H47   S    
C108  C139  S    
O6    H70   S    
C57   O9    S    
C13   C17   A    
N25   N28   A    
C155  H80   S    
C93   C111  A    
C119  N23   A    
C65   H25   S    
C125  C143  A    
C54   C135  S    
N5    N16   A    
C126  C144  A    
C153  H74   S    
C114  C138  A    
C28   O32   S    
C158  H90   S    
C38   C46   A    
C146  O26   S    
C98   H18   S    
N31   Ni6   S    
C166  H114  S    
C167  H115  S    
C163  H104  S    
N21   N24   A    
O11   C155  S    
N19   Ni1   S    
O10   C154  S    
C34   C82   A    
C91   C99   A    
N9    Ni2   S    
C8    C136  A    
C153  H75   S    
C125  N29   A    
C76   C84   A    
C71   C134  A    
C115  N19   A    
O25   H121  S    
O4    H68   S    
C15   C19   A    
C52   C129  S    
C91   C110  A    
C38   H62   S    
C116  C137  A    
C95   C112  A    
C157  H85   S    
C161  H98   S    
C156  H84   S    
C41   C49   A    
C145  O25   S    
C70   H30   S    
C4    N4    A    
O30   H126  S    
C91   O19   S    
C46   C54   A    
C8    N8    A    
C118  N22   A    
C161  H99   S    
N3    Ni3   S    
O7    H71   S    
C64   C80   A    
C123  H43   S    
C74   C82   A    
C121  H41   S    
C94   O22   S    
C49   C132  S    
C78   H14   S    
C50   C58   A    
C121  C141  A    
C157  H87   S    
C104  H24   S    
C43   O3    S    
C35   C83   A    
C54   C62   A    
C23   C147  A    
C21   C145  A    
C121  N25   A    
C158  H88   S    
C128  H48   S    
C66   H26   S    
C47   O7    S    
C166  H112  S    
C167  H117  S    
C116  N20   A    
C103  H23   S    
N26   N27   A    
C11   H51   S    
C1    H1    S    
C9    H49   S    
C120  N24   A    
C143  C152  S    
C4    H4    S    
C69   C136  A    
C5    H5    S    
C70   C135  A    
C67   C130  A    
C127  N31   A    
N18   N19   A    
C8    H8    S    
N2    N11   A    
N17   Ni3   S    
N22   N23   A    
N21   Ni7   S    
C55   C134  S    
C21   C30   A    
C114  H34   S    
C33   C41   A    
C23   C32   A    
C24   C31   A    
C67   H27   S    
C109  C110  S    
C10   C150  A    
C118  H38   S    
C75   C83   A    
O17   C161  S    
C123  C142  A    
C2    C130  A    
C127  C144  A    
C128  C143  A    
C162  H100  S    
C3    N3    A    
C1    N1    A    
C145  C149  A    
N11   Ni4   S    
C16   C28   A    
C5    N5    A    
O23   C167  S    
C63   O15   S    
C164  H106  S    
C14   C18   A    
C19   C23   A    
O32   H128  S    
C84   C87   S    
C56   C133  S    
C29   H53   S    
C122  N26   A    
C63   C79   A    
C160  H94   S    
C116  H36   S    
C100  C105  A    
C37   C85   A    
C119  H39   S    
C120  H40   S    
C165  H110  S    
C99   H19   S    
C30   H54   S    
C89   C109  A    
C97   H17   S    
C154  H78   S    
C94   C112  A    
C35   H59   S    
C33   H57   S    
C20   C24   A    
C102  C108  A    
C103  C108  A    
C34   H58   S    
O5    H69   S    
C78   C86   A    
C12   H52   S    
C162  H102  S    
C125  H45   S    
N3    N10   A    
O15   C159  S    
C66   N10   A    
N25   Ni4   S    
C3    H3    S    
N17   N20   A    
C51   C130  S    
N29   Ni8   S    
C128  N32   A    
C58   O10   S    
C27   O31   S    
C24   C148  A    
N18   Ni4   S    
C68   H28   S    
N22   Ni8   S    
C70   N14   A    
C7    C135  A    
O18   C162  S    
C115  C138  A    
O9    C153  S    
C120  C139  A    
C158  H89   S    
C159  H91   S    
C166  H113  S    
C167  H116  S    
N6    N15   A    
C62   O14   S    
C164  H108  S    
C76   H12   S    
C51   C59   A    
C122  C142  A    
O2    H66   S    
C59   C75   A    
O16   C160  S    
C92   C100  A    
C47   C55   A    
C160  H96   S    
C48   C56   A    
C96   O24   S    
C102  H22   S    
C95   O23   S    
O29   H125  S    
C61   O13   S    
O12   C156  S    
C96   C104  A    
C6    C134  A    
C157  H86   S    
C126  H46   S    
C36   C84   A    
C156  H83   S    
N4    N9    A    
C68   C129  A    
C77   C85   A    
C37   H61   S    
N7    Ni7   S    
C168  H119  S    
O22   C166  S    
C33   C81   A    
C90   C98   A    
C90   C110  A    
