data_mof_unit_23711.cif
_audit_creation_date              2012-12-11T14:06:53-0500
_audit_creation_method            fapswitch 2.2
_symmetry_space_group_name_H-M    P1
_symmetry_Int_Tables_number       1
_space_group_crystal_system       triclinic
_cell_length_a                    6.926438
_cell_length_b                    17.286729
_cell_length_c                    24.086967
_cell_angle_alpha                 104.493054
_cell_angle_beta                  90.240086
_cell_angle_gamma                 89.927303
_cell_volume                      2792.26268452

loop_
_atom_site_label
_atom_site_type_symbol
_atom_type_description
_atom_site_fract_x
_atom_site_fract_y
_atom_site_fract_z
_atom_type_partial_charge
O1    O     O_R   0.494290 0.391990 0.999150 -0.541262
O2    O     O_R   0.827170 0.534410 0.082350 -0.541770
O3    O     O_R   0.994360 0.608010 0.000850 -0.536901
C1    C     C_R   0.658379 0.549998 0.106062 0.723864
O4    O     O_R   0.824210 0.388010 0.004470 -0.553316
O5    O     O_R   0.991370 0.460560 0.922410 -0.540264
C2    C     C_R   0.654584 0.354868 0.001466 0.757773
O6    O     O_R   0.497270 0.539440 0.077590 -0.545826
O7    O     O_3   0.659770 0.523970 0.973170 -0.352350
V1    V     V_3+5 0.935840 0.495550 0.004980 1.453832
O8    O     O_R   0.320910 0.465590 0.917650 -0.507224
C3    C     C_R   0.151752 0.450823 0.893859 0.788925
O9    O     O_R   0.323870 0.611990 0.995530 -0.542664
C4    C     C_R   0.154360 0.645117 0.998532 0.786909
V2    V     V_3+5 0.435470 0.504450 0.995020 1.506277
O10   O     O_3   0.161670 0.476030 0.026830 -0.385366
C5    C     C_2   0.142763 0.730257 0.998115 -0.315534
H1    H     H_    0.277183 0.761065 0.994739 0.150962
C6    C     C_2   0.972800 0.769792 0.002046 -0.320501
H2    H     H_    0.838383 0.738984 0.005426 0.152524
C7    C     C_R   0.149470 0.254291 0.624284 0.594463
N1    N     N_R   0.095060 0.331588 0.648437 -0.548193
C8    C     C_R   0.017991 0.378474 0.615659 0.838836
C9    C     C_R   0.996558 0.348479 0.555700 -0.279616
C10   C     C_R   0.055635 0.269477 0.530211 -0.094557
C11   C     C_R   0.132353 0.221896 0.564751 0.043928
C12   C     C_R   0.918271 0.394949 0.520568 0.599143
C13   C     C_R   0.900582 0.363642 0.461272 0.579605
C14   C     C_R   0.960783 0.284908 0.435275 -0.252551
C15   C     C_R   0.038126 0.237798 0.470072 -0.088928
C16   C     C_R   0.098541 0.158939 0.444852 0.026853
C17   C     C_R   0.174260 0.112194 0.479869 -0.146195
C18   C     C_R   0.190741 0.143239 0.539052 -0.141045
C19   C     C_R   0.947174 0.251776 0.375402 0.682963
N2    N     N_R   0.007958 0.175082 0.351533 -0.575422
C20   C     C_R   0.081940 0.128628 0.385071 0.583914
O11   O     O_2   0.221537 0.209103 0.657764 -0.526502
O12   O     O_2   0.962448 0.453737 0.641099 -0.389556
O13   O     O_2   0.876036 0.296031 0.341175 -0.456751
O14   O     O_2   0.138337 0.053051 0.360697 -0.492870
H3    H     H_    0.221414 0.051394 0.461660 0.174460
H4    H     H_    0.250114 0.105394 0.564566 0.172294
C21   C     C_R   0.816449 0.129356 0.262340 -0.066372
H5    H     H_    0.684796 0.142374 0.287004 0.124423
C22   C     C_R   0.805530 0.098695 0.202765 -0.180525
H6    H     H_    0.664519 0.089054 0.182677 0.128415
C23   C     C_R   0.974633 0.081299 0.169632 -0.059112
C24   C     C_R   0.154674 0.095052 0.197821 -0.181825
H7    H     H_    0.287878 0.082487 0.173886 0.130178
C25   C     C_R   0.165205 0.125482 0.257366 -0.063682
H8    H     H_    0.305113 0.135916 0.278095 0.122445
C26   C     C_R   0.996336 0.143074 0.290095 0.358260
C27   C     C_R   0.274790 0.409662 0.734292 0.309115
C28   C     C_R   0.286921 0.438455 0.794556 0.524858
C29   C     C_R   0.140497 0.421267 0.830291 -0.239520
C30   C     C_R   0.981238 0.375468 0.804895 -0.223811
H9    H     H_    0.866592 0.361218 0.831134 0.169302
C31   C     C_R   0.969024 0.346308 0.745465 -0.074442
H10   H     H_    0.845712 0.310471 0.726965 0.147240
C32   C     C_R   0.113717 0.363052 0.709712 0.168391
C33   C     C_R   0.590169 0.871345 0.615602 0.568043
N3    N     N_R   0.514190 0.824345 0.648396 -0.567233
C34   C     C_R   0.458855 0.747054 0.623766 0.627111
C35   C     C_R   0.479477 0.714314 0.564230 -0.062312
C36   C     C_R   0.557556 0.761930 0.530194 -0.011758
C37   C     C_R   0.613610 0.841103 0.555967 -0.020202
C38   C     C_R   0.425228 0.635137 0.538022 -0.047715
C39   C     C_R   0.447148 0.603939 0.478904 -0.053632
C40   C     C_R   0.523543 0.651140 0.444434 -0.056199
C41   C     C_R   0.579417 0.730359 0.470238 -0.022662
C42   C     C_R   0.656870 0.778133 0.436207 -0.053142
C43   C     C_R   0.713313 0.856947 0.462481 -0.126907
C44   C     C_R   0.691818 0.888053 0.521586 -0.146147
C45   C     C_R   0.543395 0.621541 0.384597 0.685414
N4    N     N_R   0.614200 0.669479 0.351796 -0.551194
C46   C     C_R   0.674018 0.746003 0.376573 0.670045
O15   O     O_2   0.642007 0.947354 0.640515 -0.518155
O16   O     O_2   0.386306 0.701593 0.656784 -0.465278
H11   H     H_    0.365408 0.596980 0.563086 0.216138
H12   H     H_    0.403138 0.542809 0.460289 0.196586
O17   O     O_2   0.489581 0.545917 0.359321 -0.478793
O18   O     O_2   0.748685 0.791062 0.343580 -0.462832
H13   H     H_    0.773523 0.895036 0.437431 0.182642
H14   H     H_    0.736515 0.949090 0.540209 0.170197
C47   C     C_R   0.473475 0.655973 0.254495 0.482104
C48   C     C_R   0.486637 0.626000 0.194687 -0.265054
H15   H     H_    0.372685 0.639101 0.167506 0.175025
C49   C     C_R   0.647225 0.580792 0.169498 -0.130684
C50   C     C_R   0.794999 0.565316 0.205383 -0.136604
H16   H     H_    0.920088 0.530478 0.187354 0.147284
C51   C     C_R   0.781447 0.593630 0.265063 -0.049512
H17   H     H_    0.895813 0.580253 0.291970 0.191047
C52   C     C_R   0.622432 0.639490 0.290154 0.238570
C53   C     C_R   0.664593 0.875637 0.743693 -0.064207
H18   H     H_    0.805707 0.866742 0.723933 0.122441
C54   C     C_R   0.650653 0.906269 0.803090 -0.187448
H19   H     H_    0.782747 0.920427 0.827712 0.130871
C55   C     C_R   0.469280 0.918313 0.830275 -0.059416
C56   C     C_R   0.302100 0.898761 0.796114 -0.182745
H20   H     H_    0.160255 0.906949 0.815414 0.127519
C57   C     C_R   0.316471 0.867780 0.736516 -0.069504
H21   H     H_    0.186283 0.853166 0.711029 0.125144
C58   C     C_R   0.497979 0.856015 0.709830 0.371972
C59   C     C_2   0.642879 0.269675 0.001875 -0.338453
H22   H     H_    0.777383 0.238718 0.005226 0.149250
C60   C     C_2   0.472638 0.230279 0.997973 -0.339989
H23   H     H_    0.338133 0.261236 0.994624 0.147066
O19   O     O_R   0.618210 0.960470 0.922400 -0.541039
O20   O     O_R   0.291310 0.111960 0.995450 -0.547404
O21   O     O_R   0.124210 0.039530 0.077580 -0.540620
C61   C     C_R   0.460935 0.145098 0.998421 0.770323
O22   O     O_R   0.288310 0.965490 0.917650 -0.543179
O23   O     O_R   0.121180 0.892010 0.999220 -0.535020
C62   C     C_R   0.457200 0.949719 0.893842 0.709355
O24   O     O_R   0.621230 0.107990 0.000760 -0.536558
O25   O     O_3   0.455770 0.976060 0.026840 -0.369350
V3    V     V_3+5 0.179680 0.004440 0.995020 1.420202
O26   O     O_R   0.791670 0.888040 0.004570 -0.543368
C63   C     C_R   0.961189 0.854919 0.001587 0.782989
O27   O     O_R   0.794680 0.034510 0.082370 -0.543363
C64   C     C_R   0.963801 0.050163 0.106128 0.710043
V4    V     V_3+5 0.680070 0.995560 0.005010 1.427489
O28   O     O_3   0.953840 0.023940 0.973160 -0.374285
S1    S     S_3+6 0.457734 0.433923 0.690014 0.130337
O29   O     O_2   0.382074 0.497203 0.662772 -0.235699
O30   O     O_2   0.635517 0.465323 0.724189 -0.247808
O31   O     O_3   0.517930 0.353289 0.637738 -0.499037
H24   H     H_    0.570815 0.314601 0.657989 0.319385
F1    F     F_    0.438036 0.485193 0.818431 -0.618016
S2    S     S_3+6 0.272199 0.715315 0.283678 0.034739
O32   O     O_2   0.336455 0.800758 0.304375 -0.287965
O33   O     O_2   0.117029 0.710163 0.239099 -0.320673
O34   O     O_3   0.182798 0.684152 0.339183 -0.519857
H25   H     H_    0.121526 0.731880 0.364425 0.366286
F2    F     F_    0.858201 0.471124 0.543140 -0.574729
F3    F     F_    0.824331 0.411229 0.429653 -0.585568

loop_
_geom_bond_atom_site_label_1
_geom_bond_atom_site_label_2
_ccdc_geom_bond_type
C39   H12   S    
C29   C30   A    
N4    C46   A    
C57   H21   S    
O2    C1    A    
N2    C20   A    
C9    C12   A    
C1    O6    A    
O22   C62   A    
O20   V3    S    
C22   H6    S    
O25   V3    S    
N3    C34   A    
O25   V4    S    
C18   H4    S    
C13   C14   A    
O20   C61   A    
O21   C64   A    
N1    C32   S    
C15   C16   A    
C48   C49   A    
C21   C26   A    
C23   C64   S    
C60   H23   S    
C31   C32   A    
C36   C41   A    
C30   H9    S    
C19   N2    A    
O26   V4    S    
O19   C62   A    
O26   C63   A    
O23   C63   A    
O8    V2    S    
C33   C37   A    
C16   C17   A    
C33   O15   S    
C39   C40   A    
C54   C55   A    
C25   C26   A    
C8    C9    A    
C41   C42   A    
O1    V2    S    
C50   C51   A    
O7    V1    S    
C44   H14   S    
C33   N3    A    
C24   C25   A    
V3    O28   S    
C6    C63   S    
C57   C58   A    
O24   V4    S    
O1    C2    A    
O9    C4    A    
C4    C5    S    
C53   H18   S    
C47   C52   A    
O21   V3    S    
C59   C60   D    
C59   H22   S    
C27   C32   A    
O27   V4    S    
C25   H8    S    
C60   C61   S    
C22   C23   A    
C45   N4    A    
C19   O13   S    
C3    C29   S    
C35   C38   A    
C20   O14   S    
C38   H11   S    
C9    C10   A    
C46   O18   S    
C51   H17   S    
O4    C2    A    
C48   H15   S    
C10   C11   A    
C47   C48   A    
C37   C44   A    
C14   C19   A    
C38   C39   A    
S2    O33   D    
C21   H5    S    
C14   C15   A    
C47   S2    S    
C51   C52   A    
C11   C18   A    
C23   C24   A    
C17   H3    S    
C54   H19   S    
C5    H1    S    
C40   C45   A    
C53   C54   A    
C21   C22   A    
O3    C4    A    
S1    O31   S    
O23   V3    S    
C24   H7    S    
C56   C57   A    
C53   C58   A    
C55   C56   A    
O6    V2    S    
C2    C59   S    
O9    V2    S    
O34   H25   S    
S2    O34   S    
C45   O17   S    
O31   H24   S    
O2    V1    S    
C12   C13   A    
O27   C64   A    
N4    C52   S    
S1    O30   D    
N3    C58   S    
C10   C15   A    
C28   F1    S    
C50   H16   S    
C28   C29   A    
C13   F3    S    
N1    C8    A    
O19   V4    S    
C43   C44   A    
C27   S1    S    
O5    V1    S    
O8    C3    A    
C27   C28   A    
C1    C49   S    
C8    O12   S    
C56   H20   S    
O22   V3    S    
C12   F2    S    
C35   C36   A    
C6    H2    S    
S2    O32   D    
C31   H10   S    
O4    V1    S    
O3    V1    S    
V1    O10   S    
C17   C18   A    
O5    C3    A    
C42   C46   A    
C7    C11   A    
C5    C6    D    
C30   C31   A    
O7    V2    S    
C40   C41   A    
C43   H13   S    
C55   C62   S    
C34   C35   A    
C42   C43   A    
C7    O11   S    
C49   C50   A    
C36   C37   A    
N2    C26   S    
C16   C20   A    
C61   O24   A    
V4    O28   S    
C7    N1    A    
V2    O10   S    
S1    O29   D    
C34   O16   S    
