data_mof_unit_24786.cif
_audit_creation_date              2012-12-11T15:59:31-0500
_audit_creation_method            fapswitch 2.2
_symmetry_space_group_name_H-M    P1
_symmetry_Int_Tables_number       1
_space_group_crystal_system       triclinic
_cell_length_a                    10.752021
_cell_length_b                    10.702455
_cell_length_c                    17.096773
_cell_angle_alpha                 99.400892
_cell_angle_beta                  99.934311
_cell_angle_gamma                 60.740814
_cell_volume                      1683.47667381

loop_
_atom_site_label
_atom_site_type_symbol
_atom_type_description
_atom_site_fract_x
_atom_site_fract_y
_atom_site_fract_z
_atom_type_partial_charge
C1    C     C_R   0.356799 0.768229 0.397590 0.522912
C2    C     C_R   0.857741 0.203376 0.198515 0.004676
C3    C     C_R   0.872219 0.211125 0.282718 0.058386
C4    C     C_R   0.785788 0.469595 0.285730 -0.158224
C5    C     C_R   0.790093 0.458257 0.205306 -0.158796
C6    C     C_R   0.872872 0.073108 0.155106 -0.074656
C7    C     C_R   0.924630 0.949114 0.193315 -0.157113
C8    C     C_R   0.957694 0.952920 0.275584 -0.123650
C9    C     C_R   0.933166 0.082303 0.320950 0.116616
C10   C     C_R   0.825073 0.347981 0.325259 0.024238
C11   C     C_R   0.356404 0.814711 0.157243 -0.001295
C12   C     C_R   0.369454 0.346622 0.357404 0.567734
C13   C     C_R   0.449269 0.848279 0.216023 0.022232
C14   C     C_R   0.434459 0.854612 0.297269 0.013476
C15   C     C_R   0.284869 0.737419 0.256764 -0.141096
C16   C     C_R   0.285150 0.748012 0.177881 -0.148397
C17   C     C_R   0.554737 0.877141 0.196737 -0.094989
C18   C     C_R   0.631511 0.925645 0.255775 -0.130540
C19   C     C_R   0.608087 0.943690 0.335023 -0.100098
C20   C     C_R   0.508116 0.911645 0.355837 -0.093091
C21   C     C_R   0.349358 0.799848 0.317131 0.007429
C22   C     C_R   0.300597 0.278573 0.799874 -0.007125
C23   C     C_R   0.775200 0.378129 0.403218 0.591859
C24   C     C_R   0.427303 0.178055 0.763941 0.037437
C25   C     C_R   0.479597 0.227325 0.713480 0.036392
C26   C     C_R   0.250584 0.448117 0.706685 -0.144266
C27   C     C_R   0.212376 0.412480 0.769880 -0.148873
C28   C     C_R   0.507656 0.031763 0.779884 -0.086538
C29   C     C_R   0.646180 0.945775 0.758449 -0.111229
C30   C     C_R   0.707540 0.004253 0.720938 -0.112804
C31   C     C_R   0.625233 0.143819 0.698696 -0.082539
C32   C     C_R   0.382751 0.355103 0.676920 -0.004125
C33   C     C_1   0.846410 0.328663 0.705600 -0.059845
C34   C     C_R   0.358460 0.768623 0.627584 0.548504
C35   C     C_1   0.893159 0.294032 0.772305 -0.053845
C36   C     C_1   0.339404 0.809137 0.709613 -0.054251
C37   C     C_1   0.312852 0.837252 0.777490 -0.061729
C38   C     C_R   0.891375 0.308491 0.087261 0.558948
C39   C     C_R   0.319301 0.299790 0.120095 0.564310
C40   C     C_R   0.298595 0.886660 0.083916 0.552880
C41   C     C_R   0.943162 0.273678 0.854660 0.542217
C42   C     C_R   0.279375 0.253805 0.877126 0.525399
C43   C     C_R   0.278690 0.884913 0.857192 0.534256
C44   C     C_R   0.408392 0.375731 0.599938 0.549354
C45   C     C_R   0.777906 0.378195 0.629073 0.546192
C46   C     C_1   0.342951 0.336896 0.274053 -0.035817
C47   C     C_1   0.332048 0.326477 0.203312 -0.038531
C48   C     C_R   0.831842 0.325587 0.161253 -0.004069
Cr1   Cr    Cr6+3 0.608100 0.610860 0.522250 1.017466
Cr2   Cr    Cr6+3 0.288890 0.599990 0.488420 1.007283
Cr3   Cr    Cr6+3 0.603040 0.289190 0.489390 0.996928
Cr4   Cr    Cr6+3 0.053960 0.052250 0.967380 1.016586
Cr5   Cr    Cr6+3 0.059890 0.373160 0.992710 1.013053
Cr6   Cr    Cr6+3 0.373370 0.061690 0.991710 0.997837
H1    H     H_    0.747212 0.576601 0.316509 0.158336
H2    H     H_    0.708060 0.950927 0.239645 0.131899
H3    H     H_    0.668282 0.981801 0.380551 0.134587
H4    H     H_    0.489846 0.931945 0.417938 0.137761
H5    H     H_    0.176646 0.548309 0.681078 0.146685
H6    H     H_    0.465294 0.983319 0.809922 0.152895
H7    H     H_    0.114254 0.489641 0.795315 0.142618
H8    H     H_    0.707097 0.835354 0.773135 0.122625
H9    H     H_    0.817443 0.940580 0.707207 0.118445
H10   H     H_    0.676194 0.184911 0.669442 0.152104
H11   H     H_    0.841107 0.065860 0.091763 0.145881
H12   H     H_    0.766271 0.553241 0.178038 0.139707
H13   H     H_    0.938197 0.849636 0.159033 0.107299
H14   H     H_    0.999301 0.855509 0.304654 0.123773
H15   H     H_    0.231430 0.681301 0.270309 0.139356
H16   H     H_    0.584095 0.856943 0.136890 0.138477
H17   H     H_    0.221421 0.712552 0.133239 0.135546
O1    O     O_R   0.749810 0.499790 0.438040 -0.527475
O2    O     O_R   0.298970 0.468800 0.557390 -0.492808
O3    O     O_R   0.489400 0.255930 0.561910 -0.522429
O4    O     O_R   0.723890 0.306050 0.584610 -0.534190
O5    O     O_3   0.500010 0.500010 0.500020 -0.269739
O6    O     O_R   0.171100 0.914680 0.053100 -0.510760
O7    O     O_R   0.941680 0.184840 0.050710 -0.502920
O8    O     O_R   0.922080 0.403420 0.072610 -0.514984
O9    O     O_R   0.196880 0.369150 0.083850 -0.495435
O10   O     O_R   0.411730 0.181020 0.091530 -0.506159
O11   O     O_R   0.365010 0.944360 0.063320 -0.510066
O12   O     O_R   0.477660 0.726260 0.439290 -0.504940
O13   O     O_R   0.159380 0.906670 0.876210 -0.509523
O14   O     O_R   0.930820 0.177420 0.886730 -0.484369
O15   O     O_R   0.910360 0.395420 0.895720 -0.511310
O16   O     O_R   0.186010 0.361730 0.919870 -0.506535
O17   O     O_R   0.400000 0.173010 0.914630 -0.509300
O18   O     O_R   0.354140 0.936940 0.899340 -0.537648
O19   O     O_3   0.162410 0.162370 0.983930 -0.280274
O20   O     O_R   0.260150 0.743000 0.412270 -0.537238
O21   O     O_R   0.297740 0.466550 0.394720 -0.497615
O22   O     O_R   0.488080 0.253500 0.386430 -0.515868
O23   O     O_R   0.722670 0.303800 0.421940 -0.478878
O24   O     O_R   0.751130 0.502220 0.613520 -0.499880
O25   O     O_R   0.478890 0.728510 0.601960 -0.492172
O26   O     O_R   0.261470 0.745430 0.587750 -0.523297
N1    N     N_3   0.980451 0.080156 0.404647 -0.611603
H18   H     H_    0.938467 0.028193 0.430078 0.231469
H19   H     H_    0.092024 0.020064 0.411654 0.240888

loop_
_geom_bond_atom_site_label_1
_geom_bond_atom_site_label_2
_ccdc_geom_bond_type
C25   C31   A    
C1    C21   S    
C9    N1    S    
C33   C45   S    
Cr4   O19   S    
C19   C20   A    
Cr3   O3    S    
C7    C8    A    
C19   H3    S    
C26   C32   A    
C41   O15   A    
C26   C27   A    
C43   O18   A    
C14   C21   A    
C28   C29   A    
Cr5   O8    S    
C34   O25   A    
Cr6   O19   S    
C30   C31   A    
C38   O8    A    
C15   C16   A    
C34   O26   A    
C14   C20   A    
C18   C19   A    
Cr4   O13   S    
C27   H7    S    
C46   C47   T    
C6    H11   S    
C8    C9    A    
Cr1   O1    S    
Cr5   O15   S    
C26   H5    S    
C38   C48   S    
C18   H2    S    
C25   C32   A    
C17   H16   S    
C1    O20   A    
C30   H9    S    
C43   O13   A    
C2    C6    A    
C16   H17   S    
Cr4   O7    S    
C23   O1    A    
C28   H6    S    
C15   H15   S    
C5    C48   A    
C40   O11   A    
Cr5   O9    S    
C24   C25   A    
C39   O10   A    
Cr6   O18   S    
C12   C46   S    
Cr2   O2    S    
C5    H12   S    
C38   O7    A    
C2    C48   A    
Cr1   O24   S    
C37   C43   S    
C29   C30   A    
C3    C9    A    
Cr2   O5    S    
C11   C16   A    
C17   C18   A    
C32   C44   S    
Cr1   O5    S    
Cr5   O16   S    
Cr3   O5    S    
C44   O3    A    
Cr3   O22   S    
Cr2   O21   S    
C8    H14   S    
N1    H19   S    
C22   C27   A    
C4    H1    S    
C22   C24   A    
C12   O22   A    
C42   O17   A    
C4    C10   A    
Cr4   O6    S    
C45   O24   A    
Cr6   O11   S    
C39   C47   S    
C44   O2    A    
C29   H8    S    
Cr4   O14   S    
Cr2   O26   S    
C31   H10   S    
C12   O21   A    
C24   C28   A    
Cr3   O4    S    
C4    C5    A    
C6    C7    A    
C10   C23   S    
C1    O12   A    
C41   O14   A    
C23   O23   A    
C13   C17   A    
C45   O4    A    
C39   O9    A    
Cr1   O12   S    
C2    C3    A    
C3    C10   A    
Cr6   O17   S    
C11   C13   A    
C22   C42   S    
C33   C35   T    
C34   C36   S    
Cr1   O25   S    
C11   C40   S    
C35   C41   S    
Cr3   O23   S    
C7    H13   S    
Cr2   O20   S    
C15   C21   A    
C36   C37   T    
N1    H18   S    
Cr5   O19   S    
C40   O6    A    
C42   O16   A    
C13   C14   A    
C20   H4    S    
Cr6   O10   S    
