data_mof_unit_49666.cif
_audit_creation_date              2012-12-10T20:27:09-0500
_audit_creation_method            fapswitch 2.2
_symmetry_space_group_name_H-M    P1
_symmetry_Int_Tables_number       1
_space_group_crystal_system       triclinic
_cell_length_a                    10.784209
_cell_length_b                    10.679867
_cell_length_c                    9.897538
_cell_angle_alpha                 89.337993
_cell_angle_beta                  104.073181
_cell_angle_gamma                 90.278056
_cell_volume                      1105.64779423

loop_
_atom_site_label
_atom_site_type_symbol
_atom_type_description
_atom_site_fract_x
_atom_site_fract_y
_atom_site_fract_z
_atom_type_partial_charge
C1    C     C_R   0.511992 0.260340 0.503756 0.924614
C2    C     C_R   0.543235 0.129137 0.515011 -0.375050
C3    C     C_R   0.594243 0.064665 0.415633 0.254740
C4    C     C_R   0.581057 0.934267 0.409265 0.540388
C5    C     C_R   0.527875 0.871312 0.507192 -0.296471
C6    C     C_R   0.513656 0.934564 0.623656 -0.001532
C7    C     C_3   0.411234 0.927896 0.700922 -0.447319
C8    C     C_3   0.423328 0.069104 0.710972 0.487361
C9    C     C_R   0.389252 0.476706 0.041794 0.171026
C10   C     C_R   0.605307 0.534994 0.099506 -0.092060
C11   C     C_R   0.605480 0.535044 0.956078 0.705889
C12   C     C_R   0.259325 0.504122 0.441996 0.835092
C13   C     C_R   0.389996 0.478558 0.899418 0.025307
C14   C     C_3   0.309521 0.365816 0.866498 -0.472223
C15   C     C_3   0.310733 0.357685 0.019842 0.189317
C16   C     C_R   0.504124 0.740073 0.500347 0.975626
C17   C     C_R   0.741614 0.496668 0.558001 0.965057
C18   C     C_2   0.122555 0.514560 0.410355 0.355221
C19   C     C_2   0.063464 0.449024 0.492259 -0.307540
C20   C     C_2   0.879098 0.479070 0.587579 -0.283432
C21   C     C_2   0.929269 0.462505 0.478240 0.008690
C22   C     C_R   0.522432 0.061452 0.628807 0.110873
H1    H     H_    0.871356 0.464613 0.372011 0.240666
H2    H     H_    0.690804 0.562116 0.175658 0.213011
H3    H     H_    0.215732 0.389656 0.796442 0.221706
H4    H     H_    0.359874 0.288858 0.829859 0.243975
H5    H     H_    0.361930 0.274703 0.073779 0.136455
H6    H     H_    0.115042 0.384020 0.570786 0.154713
H7    H     H_    0.937675 0.478403 0.693802 0.210710
H8    H     H_    0.318072 0.896080 0.634548 0.171170
H9    H     H_    0.443183 0.878221 0.802760 0.254213
H10   H     H_    0.335693 0.121429 0.658235 0.052368
N1    N     N_R   0.499160 0.499140 0.142600 -0.157047
N2    N     N_R   0.499160 0.499180 0.856960 -0.160575
O1    O     O_R   0.500020 0.316790 0.614700 -0.606586
O2    O     O_R   0.500000 0.316760 0.385350 -0.574671
O3    O     O_R   0.317820 0.500020 0.571850 -0.660785
O4    O     O_R   0.317800 0.499980 0.342510 -0.538819
O5    O     O_R   0.500000 0.683240 0.614650 -0.609251
O6    O     O_R   0.499980 0.683210 0.385300 -0.550599
O7    O     O_R   0.682200 0.500020 0.657490 -0.535611
O8    O     O_R   0.682180 0.499980 0.428150 -0.613312
Zn1   Zn    Zn3+2 0.500010 0.500020 0.653140 1.046354
Zn2   Zn    Zn3+2 0.499990 0.499980 0.346860 1.085475
F1    F     F_    0.478195 0.105025 0.846179 -0.635756
F2    F     F_    0.713146 0.569832 0.918093 -0.584143
S1    S     S_3+6 0.151952 0.371217 0.043426 0.090960
O9    O     O_2   0.109900 0.505280 0.022224 -0.180882
O10   O     O_2   0.062002 0.291887 0.938442 -0.257831
O11   O     O_3   0.147188 0.321185 0.203514 -0.523306
H11   H     H_    0.185879 0.236634 0.212898 0.343211
S2    S     S_3+6 0.046964 0.634835 0.294148 0.088548
O12   O     O_2   0.945022 0.579351 0.179091 -0.199493
O13   O     O_2   0.986393 0.726476 0.372708 -0.279359
O14   O     O_3   0.155202 0.710433 0.226029 -0.528550
H12   H     H_    0.105529 0.774268 0.162077 0.401587
S3    S     S_3+6 0.680245 0.139343 0.305611 0.127896
O15   O     O_2   0.748893 0.251762 0.376789 -0.292038
O16   O     O_2   0.777511 0.051675 0.273148 -0.152916
O17   O     O_3   0.579726 0.184325 0.155759 -0.508216
H13   H     H_    0.530897 0.107626 0.120718 0.386965
F3    F     F_    0.616749 0.870188 0.307053 -0.593809

loop_
_geom_bond_atom_site_label_1
_geom_bond_atom_site_label_2
_ccdc_geom_bond_type
O3    Zn1   S    
C8    C22   S    
O14   H12   S    
O4    Zn2   S    
C6    C7    S    
C10   N1    A    
O1    Zn1   S    
C15   H5    S    
S1    O9    D    
S2    O14   S    
C15   S1    S    
C10   H2    S    
C2    C22   A    
C2    C3    A    
C9    C15   S    
C18   S2    S    
C13   N2    A    
S1    O10   D    
C7    H8    S    
C13   C14   S    
C14   H4    S    
C9    N1    A    
C19   H6    S    
O7    Zn1   S    
S3    O15   D    
O8    Zn2   S    
C16   O6    A    
C3    S3    S    
C19   C21   S    
S2    O13   D    
C18   C19   D    
S1    O11   S    
C20   H7    S    
C21   H1    S    
C14   H3    S    
C12   O4    A    
C5    C6    A    
C17   O7    A    
O2    Zn2   S    
S3    O16   D    
C10   C11   A    
C16   O5    A    
C3    C4    A    
C6    C22   A    
C4    F3    S    
O6    Zn2   S    
C17   C20   S    
C7    H9    S    
C20   C21   D    
C1    O1    A    
C1    C2    S    
C12   C18   S    
C12   O3    A    
C7    C8    S    
C9    C13   A    
C17   O8    A    
C4    C5    A    
C11   F2    S    
O5    Zn1   S    
O11   H11   S    
C14   C15   S    
N1    Zn2   S    
C5    C16   S    
C11   N2    A    
N2    Zn1   S    
C8    F1    S    
C1    O2    A    
S2    O12   D    
O17   H13   S    
S3    O17   S    
C8    H10   S    
