data_mof_unit_47686.cif
_audit_creation_date              2012-12-10T19:27:35-0500
_audit_creation_method            fapswitch 2.2
_symmetry_space_group_name_H-M    P1
_symmetry_Int_Tables_number       1
_space_group_crystal_system       triclinic
_cell_length_a                    23.337131
_cell_length_b                    10.46813
_cell_length_c                    9.842814
_cell_angle_alpha                 89.284722
_cell_angle_beta                  89.153626
_cell_angle_gamma                 89.597183
_cell_volume                      2404.05522223

loop_
_atom_site_label
_atom_site_type_symbol
_atom_type_description
_atom_site_fract_x
_atom_site_fract_y
_atom_site_fract_z
_atom_type_partial_charge
C1    C     C_R   0.499785 0.257822 0.500817 0.852959
C2    C     C_R   0.703766 0.596233 0.428572 -0.051554
C3    C     C_R   0.237894 0.400900 0.570742 -0.020726
C4    C     C_R   0.763454 0.587174 0.428697 -0.087592
C5    C     C_R   0.209040 0.499180 0.502313 0.169331
C6    C     C_R   0.790947 0.486499 0.496623 0.254478
C7    C     C_3   0.494943 0.038073 0.629673 -0.132969
C8    C     C_3   0.505043 0.961943 0.370336 -0.130533
C9    C     C_3   0.544621 0.956016 0.572155 -0.166127
C10   C     C_3   0.455365 0.044000 0.427857 -0.157107
C11   C     C_3   0.500327 0.877455 0.497726 0.013291
C12   C     C_R   0.500219 0.742182 0.499183 0.854615
C13   C     C_3   0.499660 0.122556 0.502282 0.010872
C14   C     C_3   0.450682 0.956809 0.555115 -0.167529
C15   C     C_3   0.549304 0.043204 0.444896 -0.176030
C16   C     C_R   0.389892 0.497993 0.500906 0.846420
C17   C     C_R   0.610118 0.501550 0.499095 0.846887
C18   C     C_3   0.472134 0.403660 0.050661 -0.037749
C19   C     C_3   0.527860 0.596344 0.949345 -0.032642
C20   C     C_3   0.523578 0.397627 0.952684 -0.081408
C21   C     C_3   0.476413 0.602365 0.047323 -0.091764
C22   C     C_3   0.448466 0.506085 0.954106 -0.027900
C23   C     C_R   0.239264 0.596390 0.432966 0.004485
C24   C     C_3   0.551531 0.493909 0.045892 -0.022942
C25   C     C_R   0.878682 0.541654 0.604902 0.573440
C26   C     C_R   0.121328 0.441405 0.395295 0.507021
C27   C     C_R   0.881528 0.433318 0.392169 0.572291
C28   C     C_R   0.118449 0.549892 0.607907 0.509815
C29   C     C_R   0.941366 0.433997 0.390690 -0.022051
C30   C     C_R   0.058622 0.548612 0.609719 -0.019353
C31   C     C_R   0.969912 0.490141 0.499894 -0.013118
C32   C     C_R   0.030083 0.492248 0.500641 -0.015860
C33   C     C_R   0.938431 0.544472 0.608197 -0.021250
C34   C     C_R   0.759134 0.391102 0.565721 0.021207
C35   C     C_R   0.061573 0.438064 0.392265 -0.022633
C36   C     C_R   0.973126 0.380319 0.283225 -0.141198
C37   C     C_R   0.026869 0.602197 0.717243 -0.139170
C38   C     C_R   0.032757 0.382288 0.284035 -0.136667
C39   C     C_R   0.967245 0.600171 0.716471 -0.139283
C40   C     C_2   0.551610 0.280339 0.896320 0.438043
C41   C     C_2   0.448328 0.719576 0.103741 0.450799
C42   C     C_2   0.440935 0.292275 0.112622 0.545597
C43   C     C_2   0.559042 0.707759 0.887404 0.540440
C44   C     C_2   0.389137 0.519663 0.899831 0.541799
C45   C     C_R   0.298991 0.592742 0.433673 -0.120174
C46   C     C_2   0.610864 0.480299 0.100128 0.532189
C47   C     C_2   0.208669 0.701254 0.360858 0.501594
C48   C     C_2   0.785778 0.281210 0.638617 0.483740
C49   C     C_2   0.327512 0.286962 0.637803 0.505441
C50   C     C_2   0.675516 0.708047 0.362250 0.498316
C51   C     C_R   0.699597 0.399998 0.565460 -0.255299
C52   C     C_R   0.327973 0.494775 0.502657 -0.152940
C53   C     C_R   0.672064 0.500542 0.497337 -0.096172
C54   C     C_R   0.297676 0.396574 0.571245 -0.058279
H1    H     H_    0.952055 0.336734 0.198317 0.201874
H2    H     H_    0.419013 0.084651 0.369602 0.176928
H3    H     H_    0.490258 0.072513 0.735356 0.142475
H4    H     H_    0.509720 0.927509 0.264647 0.141245
H5    H     H_    0.410585 0.916717 0.599674 0.159117
H6    H     H_    0.589400 0.083316 0.400346 0.152667
H7    H     H_    0.533857 0.187039 0.919126 -0.002302
H8    H     H_    0.466019 0.812931 0.080871 -0.004344
H9    H     H_    0.459067 0.196890 0.105655 -0.027272
H10   H     H_    0.540902 0.803134 0.894428 -0.028129
H11   H     H_    0.377288 0.605407 0.843679 0.051961
H12   H     H_    0.047939 0.645889 0.802091 0.200320
H13   H     H_    0.622686 0.394641 0.156461 0.048447
H14   H     H_    0.162210 0.705514 0.362015 0.059129
H15   H     H_    0.758750 0.213897 0.694088 0.079805
H16   H     H_    0.373557 0.275044 0.627838 0.046890
H17   H     H_    0.629630 0.723071 0.372057 0.045442
H18   H     H_    0.056136 0.340183 0.199710 0.203038
H19   H     H_    0.943868 0.642341 0.800765 0.200692
H20   H     H_    0.323295 0.667151 0.381938 0.217785
H21   H     H_    0.674269 0.327093 0.616953 0.183872
H22   H     H_    0.213099 0.326776 0.621471 0.186467
H23   H     H_    0.789299 0.659695 0.378292 0.183675
H24   H     H_    0.580972 0.915380 0.630425 0.170626
N1    N     N_R   0.851868 0.486078 0.498450 -0.341762
N2    N     N_R   0.148116 0.497146 0.501658 -0.371455
N3    N     N_3   0.499960 0.500030 0.863290 -0.133119
N4    N     N_3   0.500040 0.499970 0.136710 -0.133683
O1    O     O_R   0.500000 0.313960 0.616610 -0.612672
O2    O     O_2   0.152601 0.389770 0.293143 -0.509055
O3    O     O_2   0.853029 0.380371 0.288903 -0.524871
O4    O     O_2   0.146928 0.603477 0.710830 -0.520876
O5    O     O_2   0.594803 0.289135 0.825689 -0.546009
O6    O     O_2   0.405163 0.710652 0.174474 -0.520838
O7    O     O_2   0.395781 0.308633 0.174155 -0.492750
O8    O     O_2   0.604189 0.691442 0.825829 -0.499659
O9    O     O_2   0.353831 0.435853 0.919492 -0.505872
O10   O     O_2   0.646209 0.563978 0.080204 -0.510420
O11   O     O_2   0.234996 0.784616 0.299112 -0.520280
O12   O     O_R   0.500000 0.686040 0.383390 -0.613416
O13   O     O_2   0.837500 0.263142 0.637460 -0.546562
O14   O     O_2   0.300810 0.207427 0.704298 -0.524961
O15   O     O_2   0.703360 0.785860 0.296091 -0.529989
O16   O     O_R   0.500030 0.313950 0.383350 -0.637507
O17   O     O_R   0.499970 0.686050 0.616650 -0.637197
O18   O     O_R   0.416140 0.499970 0.616650 -0.663931
O19   O     O_R   0.583860 0.500030 0.383350 -0.665940
O20   O     O_R   0.416170 0.499960 0.383400 -0.516498
O21   O     O_R   0.583830 0.500040 0.616600 -0.514535
O22   O     O_2   0.847426 0.593707 0.706849 -0.518074
Zn1   Zn    Zn3+2 0.499980 0.500010 0.655740 0.992494
Zn2   Zn    Zn3+2 0.500020 0.499990 0.344260 0.991979

loop_
_geom_bond_atom_site_label_1
_geom_bond_atom_site_label_2
_ccdc_geom_bond_type
C23   C45   A    
C48   O13   D    
C27   C29   A    
C15   H6    S    
C48   H15   S    
C14   H5    S    
C29   C36   A    
C34   C51   A    
C33   C39   A    
C40   O5    D    
C21   C22   S    
C19   C21   S    
C51   H21   S    
C27   N1    A    
C18   C42   S    
C20   C40   S    
C3    C54   A    
C46   O10   D    
C49   C54   S    
C27   O3    S    
C17   O19   A    
C12   O17   A    
C24   N4    S    
C2    C50   S    
C8    H4    S    
C7    C14   S    
C22   C44   S    
C20   C24   S    
C19   C43   S    
C31   C33   A    
C10   H2    S    
C39   H19   S    
C18   C22   S    
C20   N3    S    
C12   O12   A    
C44   H11   S    
C41   H8    S    
C18   N4    S    
C52   C54   A    
C43   H10   S    
N3    Zn1   S    
C47   O11   D    
O17   Zn1   S    
C38   H18   S    
C43   O8    D    
C23   C47   S    
C22   N3    S    
C35   C38   A    
C4    C6    A    
C10   C14   S    
C16   O18   A    
C45   C52   A    
C2    C53   A    
C26   N2    A    
C40   H7    S    
O1    Zn1   S    
C30   C37   A    
C45   H20   S    
C51   C53   A    
C2    C4    A    
C50   H17   S    
C32   C35   A    
C31   C32   A    
C5    C23   A    
C7    C13   S    
C37   H12   S    
O18   Zn1   S    
O21   Zn1   S    
C5    N2    S    
C3    H22   S    
C9    C11   S    
C44   O9    D    
C21   C41   S    
C16   O20   A    
C8    C15   S    
C49   H16   S    
C13   C15   S    
C28   O4    S    
C1    C13   S    
C17   C53   S    
C47   H14   S    
O19   Zn2   S    
C7    C9    S    
C41   O6    D    
O12   Zn2   S    
C50   O15   D    
C26   O2    S    
C25   N1    A    
C8    C10   S    
C16   C52   S    
C3    C5    A    
C10   C13   S    
C1    O16   A    
C11   C12   S    
C25   O22   S    
C1    O1    A    
O16   Zn2   S    
C42   O7    D    
C24   C46   S    
C28   C30   A    
C19   C24   S    
C17   O21   A    
C46   H13   S    
C29   C31   A    
C36   H1    S    
C30   C32   A    
C6    N1    S    
C8    C11   S    
C36   C38   A    
C11   C14   S    
O20   Zn2   S    
C18   C20   S    
C9    H24   S    
N4    Zn2   S    
C49   O14   D    
C9    C15   S    
C28   N2    A    
C6    C34   A    
C26   C35   A    
C4    H23   S    
C34   C48   S    
C21   N4    S    
C37   C39   A    
C19   N3    S    
C42   H9    S    
C7    H3    S    
C25   C33   A    
