data_mof_unit_56945.cif
_audit_creation_date              2012-12-10T17:20:56-0500
_audit_creation_method            fapswitch 2.2
_symmetry_space_group_name_H-M    P1
_symmetry_Int_Tables_number       1
_space_group_crystal_system       triclinic
_cell_length_a                    18.299809
_cell_length_b                    25.858614
_cell_length_c                    18.266525
_cell_angle_alpha                 89.999949
_cell_angle_beta                  90.145365
_cell_angle_gamma                 90.000023
_cell_volume                      8643.83241151

loop_
_atom_site_label
_atom_site_type_symbol
_atom_type_description
_atom_site_fract_x
_atom_site_fract_y
_atom_site_fract_z
_atom_type_partial_charge
C1    C     C_R   0.389734 0.250023 0.139812 0.783964
C2    C     C_R   0.342351 0.194215 0.645532 -0.137077
C3    C     C_R   0.157686 0.194307 0.354528 -0.137014
C4    C     C_R   0.627398 0.649746 0.175976 -0.172038
C5    C     C_R   0.657650 0.305765 0.854487 -0.136997
C6    C     C_R   0.627390 0.350260 0.175985 -0.172047
C7    C     C_R   0.657662 0.694242 0.854504 -0.136984
C8    C     C_R   0.121622 0.182736 0.736027 -0.146340
C9    C     C_R   0.141751 0.787498 0.284491 -0.140075
C10   C     C_R   0.121619 0.817265 0.736027 -0.146342
C11   C     C_R   0.141759 0.212529 0.284505 -0.140085
C12   C     C_R   0.621618 0.682728 0.236034 -0.146470
C13   C     C_R   0.372535 0.149822 0.324063 -0.171582
C14   C     C_R   0.641734 0.287518 0.784478 -0.140081
C15   C     C_R   0.621612 0.317276 0.236040 -0.146476
C16   C     C_R   0.641744 0.712489 0.784491 -0.140077
C17   C     C_R   0.203235 0.053830 0.872737 -0.139979
C18   C     C_R   0.203238 0.946172 0.872735 -0.139985
C19   C     C_R   0.702720 0.553829 0.372904 -0.139991
C20   C     C_R   0.702735 0.446173 0.372902 -0.139986
C21   C     C_R   0.180259 0.026859 0.810789 -0.126917
C22   C     C_R   0.180260 0.973145 0.810788 -0.126913
C23   C     C_R   0.679478 0.526858 0.311049 -0.127099
C24   C     C_R   0.342338 0.805772 0.645513 -0.137062
C25   C     C_R   0.679485 0.473144 0.311048 -0.127077
C26   C     C_R   0.226069 0.972800 0.936724 0.070855
C27   C     C_R   0.226069 0.027201 0.936725 0.070861
C28   C     C_R   0.725814 0.472801 0.436812 0.070865
C29   C     C_R   0.725810 0.527200 0.436812 0.070876
C30   C     C_R   0.250023 0.946278 0.999997 -0.142462
C31   C     C_R   0.250022 0.053722 0.999998 -0.142459
C32   C     C_R   0.750024 0.446278 0.499997 -0.142603
C33   C     C_R   0.750021 0.553722 0.499999 -0.142604
C34   C     C_R   0.273977 0.972800 0.063270 0.070861
C35   C     C_R   0.872567 0.350212 0.824029 -0.171782
C36   C     C_R   0.273974 0.027200 0.063271 0.070849
C37   C     C_R   0.774234 0.472800 0.563183 0.070877
C38   C     C_R   0.774231 0.527199 0.563184 0.070868
C39   C     C_R   0.296809 0.946170 0.127259 -0.139948
C40   C     C_R   0.296800 0.053829 0.127260 -0.139949
C41   C     C_R   0.797315 0.446171 0.627092 -0.139960
C42   C     C_R   0.797303 0.553827 0.627094 -0.139961
C43   C     C_R   0.319779 0.973142 0.189208 -0.126431
C44   C     C_R   0.319774 0.026856 0.189208 -0.126413
C45   C     C_R   0.820545 0.473141 0.688950 -0.126603
C46   C     C_R   0.842328 0.694242 0.145513 -0.137044
C47   C     C_R   0.820538 0.526855 0.688951 -0.126588
C48   C     C_R   0.250014 0.109350 0.000001 0.787543
C49   C     C_R   0.250014 0.890650 0.999999 0.787545
C50   C     C_R   0.750014 0.609349 0.500002 0.787500
C51   C     C_R   0.750014 0.390650 0.499999 0.787499
C52   C     C_R   0.250084 0.391293 0.999920 0.942947
C53   C     C_R   0.250084 0.608707 0.999920 0.942945
C54   C     C_R   0.750084 0.891293 0.499920 0.942944
C55   C     C_R   0.750084 0.108707 0.499920 0.942945
C56   C     C_3   0.318064 0.469767 0.042661 0.158961
C57   C     C_R   0.872572 0.649786 0.824028 -0.171780
C58   C     C_3   0.179565 0.530240 0.037645 0.159184
C59   C     C_3   0.318064 0.530233 0.042662 0.158962
C60   C     C_3   0.179566 0.469760 0.037646 0.159186
C61   C     C_3   0.818065 0.969767 0.542659 0.158964
C62   C     C_3   0.679566 0.030240 0.537648 0.159182
C63   C     C_3   0.818065 0.030233 0.542660 0.158966
C64   C     C_3   0.679567 0.969760 0.537648 0.159184
C65   C     C_3   0.252846 0.470349 0.920159 -0.335440
C66   C     C_3   0.252847 0.529651 0.920159 -0.335440
C67   C     C_3   0.752843 0.970349 0.420159 -0.335433
C68   C     C_R   0.842315 0.305712 0.145491 -0.137051
C69   C     C_3   0.752843 0.029651 0.420159 -0.335432
C70   C     C_3   0.250159 0.449027 0.999772 -0.130888
C71   C     C_3   0.250159 0.550972 0.999772 -0.130887
C72   C     C_3   0.750159 0.949028 0.499772 -0.130906
C73   C     C_3   0.750159 0.050972 0.499772 -0.130906
C74   C     C_R   0.986563 0.317450 0.871666 -0.125333
C75   C     C_R   0.965921 0.712293 0.108025 -0.118616
C76   C     C_R   0.986569 0.682546 0.871662 -0.125325
C77   C     C_R   0.965916 0.287681 0.108015 -0.118611
C78   C     C_R   0.486549 0.817435 0.371681 -0.125314
C79   C     C_R   0.378339 0.817220 0.263984 -0.146340
C80   C     C_R   0.465939 0.212273 0.608040 -0.118620
C81   C     C_R   0.486553 0.182562 0.371677 -0.125317
C82   C     C_R   0.465931 0.787717 0.608029 -0.118606
C83   C     C_R   0.926572 0.350370 0.877683 -0.110462
C84   C     C_R   0.896024 0.694138 0.091909 -0.119134
C85   C     C_R   0.926579 0.649626 0.877679 -0.110458
C86   C     C_R   0.896013 0.305817 0.091889 -0.119166
C87   C     C_R   0.426542 0.850340 0.377715 -0.110438
C88   C     C_R   0.396048 0.194112 0.591929 -0.119122
C89   C     C_R   0.426548 0.149655 0.377708 -0.110434
C90   C     C_R   0.358261 0.212477 0.715536 -0.140074
C91   C     C_R   0.396036 0.805875 0.591911 -0.119118
C92   C     C_R   0.378343 0.182777 0.263980 -0.146348
C93   C     C_R   0.389801 0.749958 0.860164 0.787964
C94   C     C_R   0.358250 0.787513 0.715522 -0.140068
C95   C     C_R   0.878365 0.317247 0.763957 -0.146460
C96   C     C_R   0.858244 0.712497 0.215522 -0.140053
C97   C     C_R   0.878367 0.682752 0.763956 -0.146461
C98   C     C_R   0.858236 0.287474 0.215507 -0.140063
C99   C     C_R   0.438925 0.783524 0.256556 0.081768
C100  C     C_R   0.428700 0.231758 0.733085 0.072567
C101  C     C_R   0.438927 0.216474 0.256554 0.081772
C102  C     C_R   0.428694 0.768236 0.733078 0.072551
C103  C     C_R   0.938936 0.283536 0.756545 0.081808
C104  C     C_R   0.389734 0.749977 0.139813 0.783968
C105  C     C_R   0.928691 0.731769 0.233078 0.072549
C106  C     C_R   0.938937 0.716462 0.756544 0.081806
C107  C     C_R   0.928687 0.268217 0.233071 0.072546
C108  C     C_R   0.993676 0.283610 0.811099 0.061398
C109  C     C_R   0.983271 0.731674 0.178583 0.068569
C110  C     C_R   0.993679 0.716388 0.811097 0.061400
C111  C     C_R   0.983269 0.268312 0.178578 0.068585
C112  C     C_R   0.493669 0.783600 0.311107 0.061388
C113  C     C_R   0.483280 0.231663 0.678591 0.068571
C114  C     C_R   0.493671 0.216398 0.311105 0.061387
C115  C     C_R   0.389802 0.250043 0.860165 0.787959
C116  C     C_R   0.483276 0.768331 0.678585 0.068569
C117  C     C_R   0.445808 0.749926 0.195970 -0.143556
C118  C     C_R   0.445896 0.250088 0.804027 -0.147623
C119  C     C_R   0.445808 0.250074 0.195970 -0.143555
C120  C     C_R   0.445895 0.749913 0.804026 -0.147625
C121  C     C_R   0.945808 0.249929 0.695969 -0.143547
C122  C     C_R   0.945896 0.750088 0.304027 -0.147635
C123  C     C_R   0.945807 0.750071 0.695970 -0.143545
C124  C     C_R   0.945895 0.249913 0.304026 -0.147645
C125  C     C_R   0.506295 0.716354 0.188905 0.061280
C126  C     C_R   0.889732 0.750021 0.639814 0.783952
C127  C     C_R   0.516713 0.268338 0.821420 0.068688
C128  C     C_R   0.506293 0.283648 0.188908 0.061279
C129  C     C_R   0.516717 0.731667 0.821426 0.068685
C130  C     C_R   0.006293 0.216357 0.688906 0.061274
C131  C     C_R   0.016722 0.768326 0.321428 0.068681
C132  C     C_R   0.006290 0.783645 0.688908 0.061275
C133  C     C_R   0.016724 0.231687 0.321433 0.068698
C134  C     C_R   0.061045 0.216440 0.743448 0.081776
C135  C     C_R   0.071300 0.768234 0.266931 0.072526
C136  C     C_R   0.061043 0.783561 0.743449 0.081774
C137  C     C_R   0.889801 0.249958 0.360164 0.787972
C138  C     C_R   0.071304 0.231779 0.266937 0.072525
C139  C     C_R   0.561046 0.716437 0.243450 0.081816
C140  C     C_R   0.571292 0.268245 0.766924 0.072527
C141  C     C_R   0.561043 0.283565 0.243453 0.081818
C142  C     C_R   0.571297 0.731759 0.766931 0.072513
C143  C     C_R   0.054174 0.250050 0.804024 -0.143376
C144  C     C_R   0.054092 0.749921 0.195980 -0.147957
C145  C     C_R   0.054175 0.749950 0.804024 -0.143374
C146  C     C_R   0.054093 0.250078 0.195981 -0.147967
C147  C     C_R   0.554175 0.750047 0.304025 -0.143367
C148  C     C_R   0.889733 0.249978 0.639813 0.783956
C149  C     C_R   0.554093 0.249922 0.695980 -0.147954
C150  C     C_R   0.554174 0.249952 0.304025 -0.143367
C151  C     C_R   0.554094 0.750078 0.695981 -0.147956
C152  C     C_R   0.513384 0.682491 0.128360 -0.125887
C153  C     C_R   0.534061 0.287714 0.891977 -0.118500
C154  C     C_R   0.513379 0.317513 0.128366 -0.125891
C155  C     C_R   0.534068 0.712294 0.891988 -0.118489
C156  C     C_R   0.013382 0.182494 0.628359 -0.125912
C157  C     C_R   0.034079 0.787692 0.391993 -0.118493
C158  C     C_R   0.013375 0.817510 0.628364 -0.125903
C159  C     C_R   0.889803 0.750044 0.360166 0.787978
C160  C     C_R   0.034084 0.212334 0.392002 -0.118490
C161  C     C_R   0.573370 0.649567 0.122345 -0.110475
C162  C     C_R   0.603956 0.305863 0.908093 -0.119148
C163  C     C_R   0.573362 0.350440 0.122353 -0.110474
C164  C     C_R   0.603966 0.694144 0.908109 -0.119140
C165  C     C_R   0.073373 0.149576 0.622337 -0.110463
C166  C     C_R   0.103982 0.805835 0.408115 -0.119146
C167  C     C_R   0.073365 0.850428 0.622341 -0.110462
C168  C     C_R   0.103991 0.194208 0.408132 -0.119177
C169  C     C_R   0.110256 0.250007 0.860177 0.783715
C170  C     C_R   0.372529 0.850174 0.324070 -0.171570
C171  C     C_R   0.110185 0.749967 0.139841 0.788475
C172  C     C_R   0.110256 0.749993 0.860177 0.783712
C173  C     C_R   0.110186 0.250031 0.139842 0.788470
C174  C     C_R   0.610256 0.750006 0.360177 0.783708
C175  C     C_R   0.610186 0.249968 0.639841 0.788479
C176  C     C_R   0.610256 0.249993 0.360177 0.783706
C177  C     C_R   0.610187 0.750031 0.639843 0.788484
C178  C     C_R   0.127405 0.149759 0.675964 -0.171814
C179  C     C_R   0.157675 0.805737 0.354508 -0.137007
C180  C     C_R   0.127400 0.850243 0.675965 -0.171815
Cl1   Cl    Cl    0.401811 0.441176 0.009962 -0.574205
Cl2   Cl    Cl    0.098239 0.558800 0.998818 -0.573419
Cl3   Cl    Cl    0.401811 0.558825 0.009965 -0.574199
Cl4   Cl    Cl    0.098239 0.441199 0.998820 -0.573409
Cl5   Cl    Cl    0.901812 0.941176 0.509957 -0.574167
Cl6   Cl    Cl    0.598238 0.058800 0.498824 -0.573374
Cl7   Cl    Cl    0.901811 0.058825 0.509959 -0.574157
Cl8   Cl    Cl    0.598238 0.941199 0.498825 -0.573368
H1    H     H_    0.472768 0.681040 0.085227 0.136511
H2    H     H_    0.116418 0.820300 0.462329 0.135343
H3    H     H_    0.077913 0.876189 0.575862 0.160813
H4    H     H_    0.116431 0.179756 0.462352 0.135352
H5    H     H_    0.577917 0.623804 0.075868 0.160817
H6    H     H_    0.616387 0.320334 0.962302 0.135360
H7    H     H_    0.577908 0.376204 0.075878 0.160826
H8    H     H_    0.616398 0.679674 0.962321 0.135352
H9    H     H_    0.164984 0.181485 0.776400 0.105069
H10   H     H_    0.185149 0.789037 0.244457 0.123398
H11   H     H_    0.164983 0.818515 0.776398 0.105068
H12   H     H_    0.493949 0.289415 0.935304 0.133491
H13   H     H_    0.185158 0.210989 0.244473 0.123416
H14   H     H_    0.664976 0.681475 0.276411 0.105076
H15   H     H_    0.685133 0.289057 0.744444 0.123400
H16   H     H_    0.664971 0.318529 0.276417 0.105079
H17   H     H_    0.685144 0.710950 0.744458 0.123402
H18   H     H_    0.337282 0.047719 0.237519 0.142038
H19   H     H_    0.337290 0.952278 0.237518 0.142041
H20   H     H_    0.838239 0.547718 0.737194 0.142276
H21   H     H_    0.838253 0.452276 0.737192 0.142276
H22   H     H_    0.203229 0.095608 0.869576 0.123451
H23   H     H_    0.472763 0.318964 0.085232 0.136513
H24   H     H_    0.203233 0.904395 0.869574 0.123448
H25   H     H_    0.702715 0.595604 0.369730 0.123719
H26   H     H_    0.702742 0.404397 0.369727 0.123700
H27   H     H_    0.162743 0.047722 0.762479 0.141887
H28   H     H_    0.162746 0.952283 0.762479 0.141890
H29   H     H_    0.661757 0.547722 0.262810 0.142142
H30   H     H_    0.661772 0.452281 0.262807 0.142136
H31   H     H_    0.313600 0.456793 0.100597 0.099537
H32   H     H_    0.180117 0.543253 0.095745 0.098420
H33   H     H_    0.313599 0.543206 0.100598 0.099535
H34   H     H_    0.493954 0.710593 0.935314 0.133495
H35   H     H_    0.180118 0.456747 0.095746 0.098419
H36   H     H_    0.813603 0.956793 0.600595 0.099550
H37   H     H_    0.680120 0.043253 0.595748 0.098422
H38   H     H_    0.813602 0.043206 0.600596 0.099549
H39   H     H_    0.680121 0.956747 0.595748 0.098421
H40   H     H_    0.296819 0.904393 0.130420 0.123528
H41   H     H_    0.296801 0.095606 0.130420 0.123517
H42   H     H_    0.797320 0.404395 0.630265 0.123783
H43   H     H_    0.797296 0.595602 0.630270 0.123766
H44   H     H_    0.302632 0.456199 0.891635 0.229939
H45   H     H_    0.972764 0.181043 0.585228 0.136523
H46   H     H_    0.205083 0.543749 0.888066 0.230842
H47   H     H_    0.302634 0.543801 0.891636 0.229940
H48   H     H_    0.205081 0.456251 0.888067 0.230842
H49   H     H_    0.802629 0.956199 0.391633 0.229939
H50   H     H_    0.705079 0.043749 0.388068 0.230851
H51   H     H_    0.802630 0.043801 0.391634 0.229940
H52   H     H_    0.705078 0.956251 0.388068 0.230852
H53   H     H_    0.173997 0.124220 0.671045 0.127722
H54   H     H_    0.211805 0.820126 0.367095 0.135586
H55   H     H_    0.173993 0.875780 0.671044 0.127725
H56   H     H_    0.993968 0.789392 0.435321 0.133499
H57   H     H_    0.211821 0.179931 0.367122 0.135606
H58   H     H_    0.673983 0.624200 0.171067 0.127868
H59   H     H_    0.711775 0.320159 0.867070 0.135619
H60   H     H_    0.673973 0.375808 0.171078 0.127880
H61   H     H_    0.711788 0.679848 0.867089 0.135614
H62   H     H_    0.027161 0.318885 0.914817 0.136046
H63   H     H_    0.006036 0.710587 0.064700 0.133574
H64   H     H_    0.027168 0.681110 0.914812 0.136048
H65   H     H_    0.006032 0.289388 0.064691 0.133587
H66   H     H_    0.527151 0.818873 0.414828 0.136042
H67   H     H_    0.972756 0.818962 0.585234 0.136526
H68   H     H_    0.506054 0.210566 0.564716 0.133565
H69   H     H_    0.527155 0.181123 0.414823 0.136045
H70   H     H_    0.506048 0.789423 0.564705 0.133571
H71   H     H_    0.922005 0.376114 0.924178 0.160310
H72   H     H_    0.883594 0.679660 0.037701 0.135324
H73   H     H_    0.922014 0.623880 0.924172 0.160306
H74   H     H_    0.883580 0.320282 0.037676 0.135333
H75   H     H_    0.421969 0.876079 0.424216 0.160251
H76   H     H_    0.383622 0.179630 0.537726 0.135303
H77   H     H_    0.421976 0.123915 0.424208 0.160256
H78   H     H_    0.993971 0.210632 0.435329 0.133512
H79   H     H_    0.383607 0.820355 0.537703 0.135295
H80   H     H_    0.325929 0.875706 0.328994 0.127741
H81   H     H_    0.288230 0.179813 0.632953 0.135606
H82   H     H_    0.325936 0.124289 0.328986 0.127754
H83   H     H_    0.288214 0.820173 0.632930 0.135602
H84   H     H_    0.825984 0.375760 0.828935 0.127878
H85   H     H_    0.788201 0.679844 0.132930 0.135637
H86   H     H_    0.825988 0.624239 0.828934 0.127879
H87   H     H_    0.788184 0.320096 0.132901 0.135659
H88   H     H_    0.334986 0.818480 0.223601 0.105147
H89   H     H_    0.077923 0.123817 0.575856 0.160816
H90   H     H_    0.314861 0.210940 0.755568 0.123292
H91   H     H_    0.334991 0.181517 0.223597 0.105150
H92   H     H_    0.314850 0.789050 0.755553 0.123297
H93   H     H_    0.835019 0.318512 0.723568 0.105155
H94   H     H_    0.814845 0.710961 0.255554 0.123325
H95   H     H_    0.835019 0.681488 0.723569 0.105154
H96   H     H_    0.814835 0.289011 0.255538 0.123344
O1    O     O_3   0.249990 0.250010 0.000000 -0.499091
O2    O     O_R   0.835430 0.219350 0.353840 -0.632557
O3    O     O_R   0.835430 0.219350 0.646160 -0.631509
O4    O     O_R   0.835430 0.780650 0.353840 -0.632556
O5    O     O_R   0.164550 0.280640 0.853840 -0.631649
O6    O     O_R   0.164550 0.719360 0.146160 -0.632350
O7    O     O_R   0.164550 0.719360 0.853840 -0.631653
O8    O     O_R   0.164550 0.280640 0.146160 -0.632351
O9    O     O_R   0.664550 0.780640 0.353840 -0.631630
O10   O     O_R   0.664550 0.219360 0.646160 -0.632342
O11   O     O_R   0.664550 0.219360 0.353840 -0.631634
O12   O     O_3   0.249990 0.749990 0.000000 -0.499092
O13   O     O_R   0.664550 0.780640 0.646160 -0.632341
O14   O     O_R   0.396160 0.219380 0.914560 -0.636989
O15   O     O_R   0.396160 0.780620 0.085440 -0.637656
O16   O     O_R   0.396160 0.780620 0.914560 -0.636992
O17   O     O_R   0.396160 0.219380 0.085440 -0.637653
O18   O     O_R   0.896160 0.719380 0.414560 -0.636985
O19   O     O_R   0.896160 0.280620 0.585440 -0.637710
O20   O     O_R   0.896160 0.280620 0.414560 -0.636991
O21   O     O_R   0.896160 0.719380 0.585440 -0.637705
O22   O     O_R   0.103840 0.219370 0.085450 -0.636750
O23   O     O_3   0.749990 0.750010 0.500000 -0.499076
O24   O     O_R   0.103840 0.780630 0.914550 -0.637904
O25   O     O_R   0.103840 0.780630 0.085450 -0.636743
O26   O     O_R   0.103840 0.219370 0.914550 -0.637908
O27   O     O_R   0.603840 0.719370 0.585450 -0.636737
O28   O     O_R   0.603840 0.280630 0.414550 -0.637950
O29   O     O_R   0.603840 0.280630 0.585450 -0.636733
O30   O     O_R   0.603840 0.719370 0.414550 -0.637953
O31   O     O_R   0.310730 0.133160 0.000000 -0.636738
O32   O     O_R   0.310730 0.866840 0.000000 -0.636743
O33   O     O_R   0.810730 0.633160 0.500000 -0.636787
O34   O     O_3   0.749990 0.249990 0.500000 -0.499075
O35   O     O_R   0.810730 0.366840 0.500000 -0.636796
O36   O     O_R   0.249970 0.366860 0.060720 -0.645303
O37   O     O_R   0.249970 0.633140 0.939280 -0.626307
O38   O     O_R   0.249970 0.633140 0.060720 -0.645304
O39   O     O_R   0.249970 0.366860 0.939280 -0.626308
O40   O     O_R   0.749970 0.866860 0.560720 -0.645302
O41   O     O_R   0.749970 0.133140 0.439280 -0.626303
O42   O     O_R   0.749970 0.133140 0.560720 -0.645302
O43   O     O_R   0.749970 0.866860 0.439280 -0.626304
O44   O     O_R   0.189290 0.133150 0.000000 -0.636693
O45   O     O_R   0.335430 0.280650 0.146160 -0.631540
O46   O     O_R   0.189290 0.866850 0.000000 -0.636689
O47   O     O_R   0.689290 0.633150 0.500000 -0.636748
O48   O     O_R   0.689290 0.366850 0.500000 -0.636739
O49   O     O_R   0.335430 0.719350 0.853840 -0.632555
O50   O     O_R   0.335430 0.719350 0.146160 -0.631535
O51   O     O_R   0.335430 0.280650 0.853840 -0.632554
O52   O     O_R   0.835430 0.780650 0.646160 -0.631513
Zn1   Zn    Zn3+2 0.249990 0.293780 0.913250 0.996152
Zn2   Zn    Zn3+2 0.336760 0.793760 0.000000 0.967484
Zn3   Zn    Zn3+2 0.836760 0.706240 0.500000 0.967434
Zn4   Zn    Zn3+2 0.836760 0.293760 0.500000 0.967427
Zn5   Zn    Zn3+2 0.163250 0.206230 0.000000 0.967598
Zn6   Zn    Zn3+2 0.163250 0.793770 0.000000 0.967602
Zn7   Zn    Zn3+2 0.663250 0.706230 0.500000 0.967549
Zn8   Zn    Zn3+2 0.663250 0.293770 0.500000 0.967554
Zn9   Zn    Zn3+2 0.249990 0.706220 0.086750 0.992546
Zn10  Zn    Zn3+2 0.249990 0.706220 0.913250 0.996148
Zn11  Zn    Zn3+2 0.249990 0.293780 0.086750 0.992542
Zn12  Zn    Zn3+2 0.749990 0.793780 0.413250 0.996169
Zn13  Zn    Zn3+2 0.749990 0.206220 0.586750 0.992568
Zn14  Zn    Zn3+2 0.749990 0.206220 0.413250 0.996165
Zn15  Zn    Zn3+2 0.749990 0.793780 0.586750 0.992565
Zn16  Zn    Zn3+2 0.336760 0.206240 0.000000 0.967487

loop_
_geom_bond_atom_site_label_1
_geom_bond_atom_site_label_2
_ccdc_geom_bond_type
C60   Cl4   S    
C53   C71   S    
C79   H88   S    
C74   C83   A    
C57   H86   S    
C55   O41   A    
C173  O22   A    
C66   H46   S    
O14   Zn16  S    
C79   C99   A    
O16   Zn2   S    
C31   C36   A    
C169  O26   A    
C148  O19   A    
C58   C60   S    
C29   C33   A    
C67   H52   S    
C48   O31   A    
C61   C63   S    
C62   C64   S    
O22   Zn5   S    
C134  C143  A    
C93   C120  S    
C4    C12   A    
C110  C145  A    
C128  C154  A    
C1    O45   A    
C42   H43   S    
C167  C180  A    
C21   C22   A    
C25   H30   S    
C130  C134  A    
C107  C124  A    
C91   H79   S    
C158  C167  A    
C45   C47   A    
O49   Zn10  S    
C27   C31   A    
C124  C137  S    
C28   C32   A    
O45   Zn11  S    
O41   Zn14  S    
O33   Zn3   S    
O51   Zn1   S    
C123  C126  S    
C129  C142  A    
C20   C28   A    
C33   C50   S    
O3    Zn13  S    
C17   C21   A    
C82   C91   A    
C34   C39   A    
C126  O52   A    
C149  C175  S    
C78   H66   S    
C142  C151  A    
C19   C23   A    
C43   C44   A    
C37   C38   A    
C115  C118  S    
C57   C97   A    
C172  O24   A    
C12   C139  A    
C174  O30   A    
C69   H51   S    
C39   H40   S    
C46   C84   A    
C124  C133  A    
C30   C49   S    
C31   C48   S    
C114  C150  A    
C76   H64   S    
O46   Zn6   S    
C104  C117  S    
C6    H60   S    
C2    H81   S    
C80   H68   S    
C65   H44   S    
C54   O43   A    
C116  C151  A    
O26   Zn5   S    
C56   C59   S    
C115  O51   A    
C62   H37   S    
C167  H3    S    
C33   C38   A    
C168  H4    S    
O29   Zn8   S    
C58   Cl2   S    
C133  C160  A    
C80   C88   A    
C57   C85   A    
C109  C144  A    
C160  C168  A    
C68   C98   A    
C3    C11   A    
C94   H92   S    
O7    Zn10  S    
C46   C96   A    
C6    C163  A    
C94   C102  A    
C20   C25   A    
C41   C45   A    
C4    C161  A    
C130  C156  A    
C67   C69   S    
C76   C85   A    
C86   H74   S    
C78   C87   A    
C23   H29   S    
C160  H78   S    
C174  O9    A    
C123  C132  A    
C82   H70   S    
C65   H48   S    
C18   H24   S    
C121  C130  A    
C10   H11   S    
C147  C174  S    
C53   O38   A    
C144  C171  S    
C79   C170  A    
C11   C138  A    
C169  O5    A    
C75   C84   A    
C151  C177  S    
C65   C70   S    
C137  O20   A    
C2    C90   A    
C67   C72   S    
O12   Zn6   S    
O32   Zn2   S    
C95   H93   S    
C81   C114  A    
C62   C73   S    
O25   Zn6   S    
C12   H14   S    
O48   Zn8   S    
C152  C161  A    
C9    C179  A    
C62   Cl6   S    
C178  H53   S    
C93   O49   A    
C145  C172  S    
C176  O11   A    
C95   C103  A    
C141  C150  A    
O38   Zn9   S    
C30   C34   A    
C8    C134  A    
C120  C129  A    
C17   C27   A    
C77   H65   S    
C126  O21   A    
C16   H17   S    
C111  C146  A    
O23   Zn7   S    
C49   O46   A    
O34   Zn8   S    
C45   H21   S    
C19   H25   S    
C159  O18   A    
C20   H26   S    
C59   Cl3   S    
O11   Zn14  S    
C104  O50   A    
C99   C117  A    
C132  C136  A    
C61   Cl5   S    
C161  H5    S    
C32   C37   A    
C69   C73   S    
C64   Cl8   S    
C9    C135  A    
C173  O8    A    
C14   C140  A    
C26   C30   A    
C63   Cl7   S    
C127  C140  A    
C60   H35   S    
C87   H75   S    
C122  C131  A    
O1    Zn11  S    
C88   H76   S    
C128  C141  A    
C180  H55   S    
C105  C109  A    
C18   C22   A    
C107  C111  A    
C164  H8    S    
C175  O29   A    
C159  O4    A    
C112  C147  A    
O35   Zn4   S    
C61   H36   S    
O2    Zn14  S    
C119  C128  A    
O4    Zn12  S    
C68   H87   S    
C137  O2    A    
C138  C146  A    
C105  C122  A    
C34   C36   A    
C108  C143  A    
C37   C41   A    
C55   C73   S    
C40   C44   A    
C80   C113  A    
C118  C127  A    
O34   Zn13  S    
C175  O10   A    
O36   Zn11  S    
C40   H41   S    
C50   O47   A    
O17   Zn16  S    
O5    Zn1   S    
C140  C149  A    
C64   H39   S    
C96   C105  A    
C18   C26   A    
C35   H84   S    
O44   Zn5   S    
C153  H12   S    
C26   C27   A    
C47   H20   S    
C7    H61   S    
C28   C29   A    
C157  H56   S    
C97   H95   S    
C98   H96   S    
C58   C71   S    
O28   Zn8   S    
C56   Cl1   S    
C1    C119  S    
C131  C157  A    
C15   C141  A    
O43   Zn12  S    
C122  C159  S    
C21   H27   S    
C83   H71   S    
O12   Zn9   S    
C69   H50   S    
O1    Zn5   S    
C81   C89   A    
C133  C138  A    
C177  O27   A    
O30   Zn7   S    
C177  O13   A    
C101  C114  A    
C75   H63   S    
O50   Zn9   S    
C46   H85   S    
C43   H19   S    
O40   Zn15  S    
O12   Zn2   S    
O42   Zn13  S    
C129  C155  A    
C35   C83   A    
C63   C73   S    
C170  H80   S    
C171  O25   A    
C132  C158  A    
C98   C107  A    
C32   C51   S    
C154  H23   S    
O23   Zn12  S    
C55   O42   A    
C66   C71   S    
C163  H7    S    
C44   H18   S    
C121  C148  S    
O52   Zn15  S    
C4    H58   S    
C5    C14   A    
C49   O32   A    
C92   C101  A    
C97   C106  A    
O8    Zn11  S    
C7    C16   A    
C17   H22   S    
C13   C92   A    
C100  C118  A    
C19   C29   A    
O23   Zn3   S    
C102  C120  A    
O34   Zn4   S    
O9    Zn12  S    
C165  H89   S    
O1    Zn16  S    
C35   C95   A    
C53   O37   A    
C7    C164  A    
C66   H47   S    
C153  C162  A    
C90   H90   S    
C10   C180  A    
C5    C162  A    
O24   Zn6   S    
C82   C116  A    
C156  C165  A    
O10   Zn13  S    
C67   H49   S    
O27   Zn7   S    
C74   C108  A    
C171  O6    A    
O20   Zn4   S    
C51   O48   A    
C76   C110  A    
C78   C112  A    
C3    H57   S    
C56   H31   S    
O23   Zn15  S    
C150  C176  S    
C22   H28   S    
C68   C86   A    
C127  C153  A    
C15   H16   S    
C125  C139  A    
C139  C147  A    
C152  H1    S    
C52   O39   A    
C115  O14   A    
C10   C136  A    
C38   C42   A    
C131  C135  A    
C146  C173  S    
C11   H13   S    
C158  H67   S    
C59   H33   S    
C6    C15   A    
C148  O3    A    
C77   C111  A    
C106  C123  A    
C93   O16   A    
C2    C88   A    
C103  C108  A    
C89   H77   S    
C136  C145  A    
C23   C25   A    
C165  C178  A    
C1    O17   A    
C8    H9    S    
C58   H32   S    
C5    H59   S    
C90   C100  A    
C74   H62   S    
C3    C168  A    
C63   H38   S    
O37   Zn10  S    
C75   C109  A    
C24   H83   S    
C101  C119  A    
C113  C149  A    
C154  C163  A    
C36   C40   A    
C52   C70   S    
C143  C169  S    
C50   O33   A    
C39   C43   A    
C87   C170  A    
C96   H94   S    
C166  H2    S    
C16   C142  A    
O1    Zn1   S    
C125  C152  A    
C24   C94   A    
C60   C70   S    
C156  H45   S    
C14   H15   S    
C162  H6    S    
C54   C72   S    
O19   Zn4   S    
C41   H42   S    
O47   Zn7   S    
C135  C144  A    
C77   C86   A    
O39   Zn1   S    
C56   C70   S    
O34   Zn14  S    
C54   O40   A    
O31   Zn16  S    
C24   C91   A    
C9    H10   S    
C61   C72   S    
C106  C110  A    
O15   Zn2   S    
C13   C89   A    
C84   H72   S    
C100  C113  A    
C85   H73   S    
C157  C166  A    
C172  O7    A    
C155  C164  A    
C81   H69   S    
O21   Zn3   S    
C92   H91   S    
O6    Zn9   S    
C13   H82   S    
O13   Zn15  S    
C117  C125  A    
C48   O44   A    
C104  O15   A    
C99   C112  A    
C42   C47   A    
C64   C72   S    
C179  H54   S    
C102  C116  A    
O18   Zn3   S    
C8    C178  A    
C51   O35   A    
C65   C66   S    
C52   O36   A    
C176  O28   A    
C155  H34   S    
C166  C179  A    
O12   Zn10  S    
C59   C71   S    
C103  C121  A    
