data_mof_unit_22920.cif
_audit_creation_date              2012-12-10T17:36:21-0500
_audit_creation_method            fapswitch 2.2
_symmetry_space_group_name_H-M    P1
_symmetry_Int_Tables_number       1
_space_group_crystal_system       triclinic
_cell_length_a                    12.32089
_cell_length_b                    13.282686
_cell_length_c                    15.860827
_cell_angle_alpha                 77.174557
_cell_angle_beta                  101.981515
_cell_angle_gamma                 117.212315
_cell_volume                      2233.8988068

loop_
_atom_site_label
_atom_site_type_symbol
_atom_type_description
_atom_site_fract_x
_atom_site_fract_y
_atom_site_fract_z
_atom_type_partial_charge
C1    C     C_R   0.854967 0.287826 0.500976 0.788504
C2    C     C_R   0.231097 0.836756 0.467313 -0.109771
C3    C     C_R   0.816460 0.084301 0.535086 -0.184864
C4    C     C_R   0.001068 0.500874 0.659641 0.816163
C5    C     C_R   0.736554 0.968692 0.546442 -0.151943
C6    C     C_R   0.611936 0.933175 0.517964 -0.195150
C7    C     C_R   0.566618 0.012115 0.470190 0.068448
C8    C     C_R   0.649617 0.128852 0.451343 0.036633
C9    C     C_R   0.438779 0.980163 0.448093 0.031667
C10   C     C_R   0.397125 0.065996 0.425760 0.086998
C11   C     C_R   0.477040 0.175640 0.392310 -0.287660
C12   C     C_3   0.069315 0.432960 0.072935 -0.378420
C13   C     C_R   0.601394 0.202636 0.396010 -0.050825
C14   C     C_R   0.350405 0.866649 0.446765 0.071579
C15   C     C_R   0.196612 0.926543 0.465249 0.112927
C16   C     C_R   0.146156 0.714029 0.486353 0.791404
C17   C     C_R   0.773525 0.166315 0.492110 -0.107151
C18   C     C_R   0.386692 0.406713 0.669163 -0.092126
C19   C     C_R   0.749546 0.628116 0.373234 0.094220
C20   C     C_R   0.648316 0.652087 0.341649 -0.258441
C21   C     C_R   0.549676 0.607498 0.389830 -0.190830
C22   C     C_R   0.552372 0.539723 0.471272 -0.022630
C23   C     C_3   0.000408 0.501682 0.082559 0.313535
C24   C     C_R   0.657237 0.515748 0.501223 0.205685
C25   C     C_R   0.455406 0.494410 0.525220 -0.056262
C26   C     C_R   0.480660 0.455176 0.614580 0.055402
C27   C     C_R   0.596218 0.455095 0.644503 -0.283301
C28   C     C_R   0.000047 0.500646 0.340251 0.818069
C29   C     C_R   0.655571 0.444606 0.583183 0.191099
C30   C     C_R   0.335374 0.485968 0.494845 0.000697
C31   C     C_R   0.269402 0.396768 0.634018 0.032337
C32   C     C_3   0.069643 0.432550 0.975371 -0.370357
C33   C     C_3   0.867238 0.445627 0.939593 -0.378091
C34   C     C_3   0.065368 0.625667 0.035834 -0.379572
C35   C     C_3   0.866894 0.446020 0.037195 -0.354663
C36   C     C_1   0.000130 0.501657 0.250333 -0.149828
C37   C     C_3   0.001008 0.501025 0.917164 0.319817
C38   C     C_3   0.078735 0.908652 0.494443 -0.381253
C39   C     C_3   0.981769 0.908059 0.416796 -0.784529
C40   C     C_3   0.377113 0.790319 0.402595 -0.390025
C41   C     C_3   0.292147 0.761057 0.317604 -0.815573
C42   C     C_1   0.668567 0.293358 0.331698 0.270188
C43   C     C_1   0.406546 0.364252 0.760436 0.184433
C44   C     C_3   0.614560 0.317808 0.583347 -0.343789
C45   C     C_3   0.065699 0.625283 0.938249 -0.373657
C46   C     C_3   0.684445 0.264761 0.655770 -0.790673
C47   C     C_1   0.000210 0.501937 0.174683 -0.104067
C48   C     C_1   0.001447 0.500736 0.825075 -0.111397
C49   C     C_1   0.001629 0.500703 0.749493 -0.180591
C50   C     C_R   0.276205 0.039164 0.434522 -0.214118
Cu1   Cu    Cu3+1 0.098280 0.475420 0.519630 0.928294
Cu2   Cu    Cu3+1 0.901720 0.524580 0.480370 0.940919
H1    H     H_    0.024283 0.343338 0.105962 0.164008
H2    H     H_    0.024727 0.342738 0.961575 0.163373
H3    H     H_    0.197496 0.361234 0.675831 0.135804
H4    H     H_    0.615241 0.421908 0.711873 0.170732
H5    H     H_    0.312035 0.518233 0.428464 0.130006
H6    H     H_    0.824315 0.662104 0.334255 0.125576
H7    H     H_    0.474316 0.630117 0.363730 0.135150
H8    H     H_    0.646353 0.705441 0.279437 0.142233
H9    H     H_    0.815851 0.493398 0.898619 0.168657
H10   H     H_    0.818682 0.356061 0.925117 0.164407
H11   H     H_    0.818171 0.356635 0.069576 0.170482
H12   H     H_    0.166206 0.470776 0.960554 0.167884
H13   H     H_    0.815367 0.494005 0.043081 0.171556
H14   H     H_    0.162195 0.667040 0.922763 0.163347
H15   H     H_    0.017905 0.676322 0.897295 0.162634
H16   H     H_    0.161694 0.667568 0.067192 0.162883
H17   H     H_    0.010749 0.994432 0.377421 0.236210
H18   H     H_    0.968460 0.845956 0.374685 0.251296
H19   H     H_    0.892985 0.883977 0.440262 0.239611
H20   H     H_    0.042089 0.829797 0.541956 0.212834
H21   H     H_    0.098261 0.979245 0.530434 0.185167
H22   H     H_    0.312868 0.704214 0.288292 0.223579
H23   H     H_    0.165722 0.471406 0.104930 0.163473
H24   H     H_    0.194286 0.716855 0.328509 0.240452
H25   H     H_    0.306748 0.840564 0.270700 0.248232
H26   H     H_    0.471549 0.834655 0.383491 0.202042
H27   H     H_    0.374173 0.712616 0.447030 0.217764
H28   H     H_    0.665929 0.267027 0.720717 0.229386
H29   H     H_    0.653097 0.173952 0.648622 0.233735
H30   H     H_    0.784565 0.309621 0.653159 0.254600
H31   H     H_    0.515247 0.268449 0.592238 0.183390
H32   H     H_    0.614232 0.301201 0.519096 0.223762
H33   H     H_    0.017428 0.676892 0.041707 0.163588
H34   H     H_    0.441977 0.237791 0.359979 0.152405
H35   H     H_    0.246715 0.106962 0.423527 0.145102
H36   H     H_    0.911020 0.109791 0.564476 0.155201
H37   H     H_    0.551189 0.844317 0.536551 0.140431
H38   H     H_    0.770171 0.907023 0.582374 0.141823
N1    N     N_R   0.246300 0.438200 0.549400 -0.187241
N2    N     N_R   0.754300 0.561180 0.451130 -0.200122
N3    N     N_1   0.718244 0.364204 0.277334 -0.296693
N4    N     N_1   0.422435 0.330264 0.833498 -0.300155
O1    O     O_R   0.972520 0.318130 0.524690 -0.581584
O2    O     O_R   0.806530 0.359650 0.491530 -0.577999
O3    O     O_R   0.083030 0.479240 0.637150 -0.583384
O4    O     O_R   0.917040 0.520750 0.603990 -0.567880
O5    O     O_R   0.193470 0.640350 0.508470 -0.572413
O6    O     O_R   0.027480 0.681870 0.475310 -0.584523
O7    O     O_R   0.082960 0.479250 0.396010 -0.586363
O8    O     O_R   0.916970 0.520760 0.362850 -0.571916

loop_
_geom_bond_atom_site_label_1
_geom_bond_atom_site_label_2
_ccdc_geom_bond_type
Cu1   O3    S    
C8    C13   A    
C4    O4    A    
C27   C29   A    
C42   N3    T    
C19   C20   A    
C18   C26   A    
C44   H31   S    
C7    C8    A    
C12   C23   S    
Cu2   O8    S    
C26   C27   A    
C21   H7    S    
C41   H25   S    
C38   C39   S    
C35   H13   S    
C11   H34   S    
C30   H5    S    
C43   N4    T    
C36   C47   T    
C15   C50   A    
C24   C29   A    
C19   N2    A    
Cu1   N1    S    
C41   H22   S    
C46   H30   S    
C28   O7    A    
C33   H10   S    
C22   C25   A    
C45   H15   S    
Cu2   O2    S    
C20   H8    S    
C2    C16   S    
C9    C10   A    
C12   H1    S    
C4    O3    A    
C12   C32   S    
C24   N2    A    
C32   H2    S    
C13   C42   S    
C44   C46   S    
C19   H6    S    
Cu1   O5    S    
C38   H20   S    
C23   C47   S    
Cu1   Cu2   S    
C32   H12   S    
C34   H16   S    
C27   H4    S    
C16   O6    A    
C3    C5    A    
C25   C26   A    
Cu2   O6    S    
C33   C37   S    
C34   H33   S    
C9    C14   A    
C15   C38   S    
C46   H29   S    
C1    O1    A    
C23   C34   S    
C39   H17   S    
C40   H27   S    
C34   C45   S    
C32   C37   S    
C37   C48   S    
C2    C15   A    
C50   H35   S    
C48   C49   T    
C31   N1    A    
C29   C44   S    
C40   H26   S    
Cu2   N2    S    
C37   C45   S    
C10   C50   A    
C25   C30   A    
C7    C9    A    
C40   C41   S    
C3    H36   S    
C1    C17   S    
C5    H38   S    
C30   N1    A    
C44   H32   S    
C16   O5    A    
C6    C7    A    
Cu1   O7    S    
C6    H37   S    
C23   C35   S    
C8    C17   A    
C4    C49   S    
C18   C43   S    
C41   H24   S    
C46   H28   S    
C11   C13   A    
C5    C6    A    
C1    O2    A    
Cu2   O4    S    
C33   C35   S    
C39   H18   S    
C3    C17   A    
C22   C24   A    
C2    C14   A    
C10   C11   A    
C14   C40   S    
C28   O8    A    
C20   C21   A    
C28   C36   S    
C33   H9    S    
C12   H23   S    
C45   H14   S    
C39   H19   S    
C35   H11   S    
C18   C31   A    
C31   H3    S    
C21   C22   A    
Cu1   O1    S    
C38   H21   S    
