data_mof_unit_26689.cif
_audit_creation_date              2012-12-11T15:59:27-0500
_audit_creation_method            fapswitch 2.2
_symmetry_space_group_name_H-M    P1
_symmetry_Int_Tables_number       1
_space_group_crystal_system       triclinic
_cell_length_a                    10.659851
_cell_length_b                    10.691038
_cell_length_c                    17.04008
_cell_angle_alpha                 99.112964
_cell_angle_beta                  99.7326
_cell_angle_gamma                 61.398227
_cell_volume                      1673.70404761

loop_
_atom_site_label
_atom_site_type_symbol
_atom_type_description
_atom_site_fract_x
_atom_site_fract_y
_atom_site_fract_z
_atom_type_partial_charge
C1    C     C_R   0.378787 0.717272 0.387869 0.558498
C2    C     C_R   0.861990 0.201473 0.200374 0.022680
C3    C     C_R   0.879183 0.209602 0.284889 0.007519
C4    C     C_R   0.790372 0.467551 0.286260 -0.147758
C5    C     C_R   0.791722 0.456026 0.205448 -0.156277
C6    C     C_R   0.877528 0.070934 0.157692 -0.069818
C7    C     C_R   0.932476 0.947278 0.196527 -0.148462
C8    C     C_R   0.968603 0.951421 0.278771 -0.129067
C9    C     C_R   0.943509 0.080806 0.323606 0.005040
C10   C     C_R   0.830447 0.346771 0.326667 0.001786
C11   C     C_R   0.361869 0.799481 0.151275 -0.001942
C12   C     C_R   0.369214 0.346645 0.357570 0.550530
C13   C     C_R   0.459102 0.826155 0.210271 0.019188
C14   C     C_R   0.446853 0.825157 0.291114 0.021078
C15   C     C_R   0.298557 0.703982 0.247482 -0.163430
C16   C     C_R   0.291073 0.728429 0.169493 -0.146361
C17   C     C_R   0.562324 0.860974 0.191636 -0.095138
C18   C     C_R   0.634770 0.914562 0.251200 -0.127268
C19   C     C_R   0.606980 0.933810 0.329936 -0.113312
C20   C     C_R   0.511502 0.892788 0.349878 -0.092039
C21   C     C_R   0.368801 0.758213 0.309048 0.006521
C22   C     C_R   0.334469 0.337891 0.823306 -0.008549
C23   C     C_R   0.776926 0.377854 0.403884 0.548784
C24   C     C_R   0.461805 0.243380 0.788089 0.028913
C25   C     C_R   0.451192 0.213309 0.705093 0.035947
C26   C     C_R   0.219548 0.428246 0.695067 -0.153076
C27   C     C_R   0.215001 0.433305 0.776516 -0.155414
C28   C     C_R   0.594927 0.167065 0.833727 -0.070075
C29   C     C_R   0.706086 0.046944 0.798955 -0.100919
C30   C     C_R   0.685134 0.000842 0.719078 -0.115440
C31   C     C_R   0.558340 0.082372 0.672392 -0.064457
C32   C     C_R   0.337522 0.318954 0.658284 -0.000668
C33   C     C_1   0.846404 0.328902 0.705538 -0.031631
C34   C     C_R   0.380825 0.715333 0.631838 0.566348
C35   C     C_1   0.893326 0.294311 0.772290 -0.033243
C36   C     C_1   0.358038 0.765734 0.713905 -0.034961
C37   C     C_1   0.325351 0.812562 0.780696 -0.034702
C38   C     C_R   0.891347 0.307837 0.087352 0.549936
C39   C     C_R   0.319513 0.299302 0.120029 0.549844
C40   C     C_R   0.299970 0.882638 0.081947 0.550642
C41   C     C_R   0.943423 0.274132 0.854682 0.568012
C42   C     C_R   0.309594 0.295931 0.894428 0.531281
C43   C     C_R   0.280765 0.881233 0.857665 0.544203
C44   C     C_R   0.368532 0.344530 0.583530 0.537815
C45   C     C_R   0.777965 0.378387 0.629041 0.557423
C46   C     C_1   0.342700 0.336566 0.274151 -0.036618
C47   C     C_1   0.332261 0.325797 0.203304 -0.033921
C48   C     C_R   0.833137 0.323671 0.161952 -0.004136
Cr1   Cr    Cr6+3 0.608100 0.610860 0.522250 1.007956
Cr2   Cr    Cr6+3 0.288890 0.599990 0.488420 1.020710
Cr3   Cr    Cr6+3 0.603040 0.289190 0.489390 1.013104
Cr4   Cr    Cr6+3 0.053960 0.052250 0.967380 0.995443
Cr5   Cr    Cr6+3 0.059890 0.373160 0.992710 1.007871
Cr6   Cr    Cr6+3 0.373370 0.061690 0.991710 1.007202
H1    H     H_    0.752151 0.574291 0.316567 0.156964
H2    H     H_    0.708966 0.945520 0.235775 0.131979
H3    H     H_    0.660147 0.979964 0.375792 0.139979
H4    H     H_    0.486982 0.919588 0.411041 0.150441
H5    H     H_    0.131409 0.509813 0.660889 0.141905
H6    H     H_    0.611010 0.197363 0.896916 0.124819
H7    H     H_    0.116751 0.508413 0.802310 0.142400
H8    H     H_    0.805979 0.986278 0.834782 0.129263
H9    H     H_    0.768062 0.903283 0.692876 0.115777
H10   H     H_    0.544956 0.042226 0.610799 0.136721
H11   H     H_    0.844008 0.063103 0.094428 0.134211
H12   H     H_    0.766290 0.550740 0.177354 0.138103
H13   H     H_    0.946719 0.847569 0.162664 0.106098
H14   H     H_    0.014355 0.853383 0.307720 0.134566
H15   H     H_    0.243929 0.647350 0.260203 0.123662
H16   H     H_    0.590830 0.844113 0.131548 0.133230
H17   H     H_    0.222171 0.700165 0.124137 0.132639
O1    O     O_R   0.749810 0.499790 0.438040 -0.531192
O2    O     O_R   0.298970 0.468800 0.557390 -0.511785
O3    O     O_R   0.489400 0.255930 0.561910 -0.528318
O4    O     O_R   0.723890 0.306050 0.584610 -0.483840
O5    O     O_3   0.500010 0.500010 0.500020 -0.281731
O6    O     O_R   0.171100 0.914680 0.053100 -0.515698
O7    O     O_R   0.941680 0.184840 0.050710 -0.508880
O8    O     O_R   0.922080 0.403420 0.072610 -0.513754
O9    O     O_R   0.196880 0.369150 0.083850 -0.501621
O10   O     O_R   0.411730 0.181020 0.091530 -0.514950
O11   O     O_R   0.365010 0.944360 0.063320 -0.508537
O12   O     O_R   0.477660 0.726260 0.439290 -0.512053
O13   O     O_R   0.159380 0.906670 0.876210 -0.523718
O14   O     O_R   0.930820 0.177420 0.886730 -0.504655
O15   O     O_R   0.910360 0.395420 0.895720 -0.511424
O16   O     O_R   0.186010 0.361730 0.919870 -0.517804
O17   O     O_R   0.400000 0.173010 0.914630 -0.517888
O18   O     O_R   0.354140 0.936940 0.899340 -0.494192
O19   O     O_3   0.162410 0.162370 0.983930 -0.255048
O20   O     O_R   0.260150 0.743000 0.412270 -0.505517
O21   O     O_R   0.297740 0.466550 0.394720 -0.517983
O22   O     O_R   0.488080 0.253500 0.386430 -0.518754
O23   O     O_R   0.722670 0.303800 0.421940 -0.494133
O24   O     O_R   0.751130 0.502220 0.613520 -0.517871
O25   O     O_R   0.478890 0.728510 0.601960 -0.486002
O26   O     O_R   0.261470 0.745430 0.587750 -0.487190
C49   C     C_1   0.998567 0.074643 0.407280 0.214811
N1    N     N_1   0.042984 0.069417 0.474201 -0.268617

loop_
_geom_bond_atom_site_label_1
_geom_bond_atom_site_label_2
_ccdc_geom_bond_type
C25   C31   A    
C1    C21   S    
C9    C49   S    
C33   C45   S    
Cr4   O19   S    
C19   C20   A    
Cr3   O3    S    
C7    C8    A    
C19   H3    S    
C26   C32   A    
C41   O15   A    
C26   C27   A    
C43   O18   A    
C14   C21   A    
C28   C29   A    
Cr5   O8    S    
C34   O25   A    
Cr6   O19   S    
C30   C31   A    
C38   O8    A    
C15   C16   A    
C34   O26   A    
C14   C20   A    
C18   C19   A    
Cr4   O13   S    
C27   H7    S    
C46   C47   T    
C6    H11   S    
C8    C9    A    
Cr1   O1    S    
Cr5   O15   S    
C26   H5    S    
C38   C48   S    
C18   H2    S    
C25   C32   A    
C17   H16   S    
C1    O20   A    
C30   H9    S    
C43   O13   A    
C2    C6    A    
C16   H17   S    
Cr4   O7    S    
C31   H10   S    
C28   H6    S    
C15   H15   S    
C5    C48   A    
C40   O11   A    
Cr5   O9    S    
C24   C25   A    
C39   O10   A    
Cr6   O18   S    
C12   C46   S    
Cr2   O2    S    
C5    H12   S    
C38   O7    A    
C2    C48   A    
Cr1   O24   S    
C37   C43   S    
C29   C30   A    
C3    C9    A    
Cr2   O5    S    
C11   C16   A    
C17   C18   A    
C32   C44   S    
Cr1   O5    S    
Cr5   O16   S    
Cr3   O5    S    
C44   O3    A    
Cr3   O22   S    
Cr2   O21   S    
C8    H14   S    
C22   C27   A    
C4    H1    S    
C22   C24   A    
C12   O22   A    
C42   O17   A    
C4    C10   A    
Cr4   O6    S    
C45   O24   A    
Cr6   O11   S    
C39   C47   S    
C44   O2    A    
C29   H8    S    
Cr4   O14   S    
Cr2   O26   S    
C23   O1    A    
C12   O21   A    
C24   C28   A    
Cr3   O4    S    
C4    C5    A    
C6    C7    A    
C10   C23   S    
C1    O12   A    
C41   O14   A    
C23   O23   A    
C13   C17   A    
C45   O4    A    
C39   O9    A    
Cr1   O12   S    
C2    C3    A    
C3    C10   A    
Cr6   O17   S    
C11   C13   A    
C22   C42   S    
C33   C35   T    
C34   C36   S    
Cr1   O25   S    
C11   C40   S    
C35   C41   S    
Cr3   O23   S    
C7    H13   S    
Cr2   O20   S    
C15   C21   A    
C36   C37   T    
C49   N1    T    
Cr5   O19   S    
C40   O6    A    
C42   O16   A    
C13   C14   A    
C20   H4    S    
Cr6   O10   S    
