data_mof_unit_17748.cif
_audit_creation_date              2012-12-10T16:57:48-0500
_audit_creation_method            fapswitch 2.2
_symmetry_space_group_name_H-M    P1
_symmetry_Int_Tables_number       1
_space_group_crystal_system       triclinic
_cell_length_a                    7.75533
_cell_length_b                    8.567206
_cell_length_c                    19.198416
_cell_angle_alpha                 90.859432
_cell_angle_beta                  86.074868
_cell_angle_gamma                 93.613596
_cell_volume                      1269.97642084

loop_
_atom_site_label
_atom_site_type_symbol
_atom_type_description
_atom_site_fract_x
_atom_site_fract_y
_atom_site_fract_z
_atom_type_partial_charge
C1    C     C_R   0.545848 0.794779 0.498383 1.025970
C2    C     C_R   0.550293 0.356463 0.180841 -0.250504
C3    C     C_R   0.483154 0.456462 0.854290 0.009659
C4    C     C_R   0.470196 0.470694 0.146053 0.008454
C5    C     C_R   0.568237 0.344713 0.812789 0.447710
C6    C     C_R   0.400434 0.598207 0.182464 0.441581
C7    C     C_R   0.581991 0.361936 0.739568 -0.152986
C8    C     C_R   0.406241 0.606764 0.255750 -0.151560
C9    C     C_R   0.505191 0.489019 0.709651 -0.221682
C10   C     C_R   0.488572 0.489990 0.290442 -0.223035
C11   C     C_R   0.467952 0.458261 0.070473 0.342905
C12   C     C_R   0.454177 0.205247 0.502035 1.058195
C13   C     C_R   0.473127 0.447763 0.930121 0.349188
C14   C     C_2   0.349259 0.742251 0.724110 0.944876
C15   C     C_2   0.635839 0.230312 0.286152 0.947908
C16   C     C_2   0.675668 0.247150 0.695096 0.918089
C17   C     C_2   0.326022 0.736611 0.295655 0.910477
C18   C     C_2   0.570060 0.958253 0.497625 -0.243620
C19   C     C_2   0.430075 0.041828 0.503508 -0.342587
C20   C     C_R   0.502329 0.498804 0.634168 0.976937
C21   C     C_R   0.497113 0.498681 0.365851 0.979514
C22   C     C_R   0.420795 0.600656 0.752347 -0.042868
C23   C     C_R   0.559448 0.363084 0.252723 -0.048467
C24   C     C_R   0.409786 0.581586 0.824191 -0.250557
H1    H     H_    0.348263 0.668514 0.857342 0.207921
H2    H     H_    0.337882 0.813905 0.171480 0.354277
H3    H     H_    0.897741 0.140583 0.672932 0.351705
H4    H     H_    0.353544 0.912507 0.365469 0.356631
H5    H     H_    0.601770 0.258459 0.151610 0.209813
H6    H     H_    0.702234 0.009285 0.491996 0.176045
H7    H     H_    0.297907 0.990792 0.509188 0.159955
H8    H     H_    0.013801 0.382703 0.447579 0.201295
H9    H     H_    0.986199 0.617285 0.552426 0.202200
H10   H     H_    0.368050 0.910174 0.651035 0.360413
H11   H     H_    0.809964 0.064430 0.277954 0.367953
H12   H     H_    0.646946 0.131416 0.811764 0.358292
N1    N     N_R   0.605887 0.394562 0.963397 -0.070931
N2    N     N_R   0.333814 0.508986 0.037279 -0.070379
N3    N     N_R   0.603060 0.399218 0.032528 -0.152951
N4    N     N_R   0.336622 0.504273 0.968154 -0.152737
N5    N     N_2   0.950330 0.457950 0.481240 -0.166578
N6    N     N_2   0.049670 0.542050 0.518760 -0.167631
O1    O     O_R   0.389250 0.738570 0.504600 -0.609983
O2    O     O_R   0.429573 0.815505 0.664790 -0.805879
O3    O     O_2   0.577815 0.183442 0.343349 -0.651569
O4    O     O_R   0.770459 0.154308 0.250512 -0.773528
O5    O     O_3   0.629479 0.218256 0.845480 -0.718724
O6    O     O_3   0.335032 0.714586 0.144538 -0.720004
O7    O     O_2   0.601721 0.173646 0.649668 -0.648016
O8    O     O_R   0.847895 0.221714 0.706237 -0.759103
O9    O     O_2   0.175667 0.763905 0.287841 -0.592402
O10   O     O_R   0.422625 0.827740 0.341770 -0.796213
O11   O     O_R   0.610750 0.261430 0.495400 -0.586769
O12   O     O_R   0.678400 0.711620 0.492580 -0.631526
O13   O     O_R   0.321600 0.288380 0.507420 -0.647289
O14   O     O_R   0.355380 0.513500 0.607880 -0.601111
O15   O     O_R   0.644620 0.486500 0.392120 -0.593329
O16   O     O_R   0.644530 0.486550 0.595850 -0.619159
O17   O     O_R   0.355470 0.513450 0.404150 -0.623568
O18   O     O_2   0.222299 0.797555 0.754024 -0.595582
Zn1   Zn    Zn3+2 0.306930 0.517990 0.508030 0.997639
Zn2   Zn    Zn3+2 0.693070 0.482010 0.491970 1.017225

loop_
_geom_bond_atom_site_label_1
_geom_bond_atom_site_label_2
_ccdc_geom_bond_type
O16   Zn2   S    
C11   N2    A    
C2    C4    A    
C1    O12   A    
C21   O15   A    
C18   H6    S    
C10   C23   A    
C14   O18   D    
N5    N6    D    
C9    C20   S    
C13   N1    A    
C12   O11   A    
C3    C13   S    
H3    O8    S    
H2    O6    S    
C20   O14   A    
C19   H7    S    
C17   O9    D    
C15   C23   S    
C1    C18   S    
O15   Zn2   S    
N1    N3    A    
C16   O7    D    
C4    C11   S    
N2    N4    A    
H4    O10   S    
N6    Zn1   S    
C14   C22   S    
C3    C24   A    
C6    O6    S    
N5    Zn2   S    
C2    H5    S    
H9    N6    S    
O13   Zn1   S    
C12   C19   S    
C14   O2    S    
C7    C16   S    
C5    O5    S    
C16   O8    S    
C21   O17   A    
C5    C7    A    
C10   C21   S    
C11   N3    A    
C22   C24   A    
C9    C22   A    
O17   Zn1   S    
C12   O13   A    
C15   O3    D    
H8    N5    S    
C20   O16   A    
H10   O2    S    
C24   H1    S    
C17   O10   S    
H12   O5    S    
C8    C10   A    
C4    C6    A    
O11   Zn2   S    
C2    C23   A    
C7    C9    A    
O14   Zn1   S    
C18   C19   D    
C13   N4    A    
C6    C8    A    
O12   Zn2   S    
C15   O4    S    
H11   O4    S    
C1    O1    A    
O1    Zn1   S    
C8    C17   S    
C3    C5    A    
