data_mof_unit_48346.cif
_audit_creation_date              2012-12-10T17:49:40-0500
_audit_creation_method            fapswitch 2.2
_symmetry_space_group_name_H-M    P1
_symmetry_Int_Tables_number       1
_space_group_crystal_system       triclinic
_cell_length_a                    10.509509
_cell_length_b                    10.61444
_cell_length_c                    9.990771
_cell_angle_alpha                 89.393032
_cell_angle_beta                  89.796695
_cell_angle_gamma                 93.719246
_cell_volume                      1112.0763292

loop_
_atom_site_label
_atom_site_type_symbol
_atom_type_description
_atom_site_fract_x
_atom_site_fract_y
_atom_site_fract_z
_atom_type_partial_charge
C1    C     C_R   0.506846 0.261493 0.500317 0.873928
C2    C     C_R   0.613590 0.072456 0.570643 0.088217
C3    C     C_R   0.516011 0.129528 0.500336 -0.084227
C4    C     C_R   0.257682 0.498983 0.499995 0.870836
C5    C     C_R   0.424539 0.060366 0.426256 -0.186413
C6    C     C_R   0.424816 0.931865 0.425142 -0.203469
C7    C     C_R   0.516098 0.872510 0.498723 -0.094045
C8    C     C_R   0.313255 0.357769 0.149338 -0.129779
C9    C     C_R   0.200734 0.313143 0.091894 -0.232672
C10   C     C_R   0.188755 0.318145 0.955276 -0.225485
C11   C     C_R   0.293402 0.358120 0.874567 0.024296
C12   C     C_3   0.951793 0.418680 0.409455 -0.176677
C13   C     C_R   0.402848 0.429081 0.930897 0.107358
C14   C     C_R   0.406643 0.429208 0.075449 0.134513
C15   C     C_R   0.588253 0.569915 0.069141 0.019324
C16   C     C_R   0.505661 0.739388 0.499516 0.865128
C17   C     C_R   0.589142 0.568326 0.926798 -0.149874
C18   C     C_R   0.742374 0.502707 0.499925 0.835426
C19   C     C_3   0.049035 0.584101 0.590611 -0.204430
C20   C     C_3   0.955892 0.468789 0.622756 -0.168631
C21   C     C_3   0.877542 0.503381 0.500177 -0.001567
C22   C     C_3   0.968992 0.616801 0.468413 0.021472
C23   C     C_3   0.032324 0.384101 0.531849 -0.190287
C24   C     C_3   0.044927 0.533855 0.376724 -0.171585
C25   C     C_1   0.681627 0.651288 0.135594 0.226264
C26   C     C_1   0.286276 0.287743 0.752976 0.268369
C27   C     C_1   0.936831 0.745703 0.435017 0.133105
C28   C     C_3   0.122644 0.499294 0.499626 0.019049
C29   C     C_R   0.712896 0.143256 0.636784 -0.183648
C30   C     C_R   0.807951 0.082851 0.704341 -0.131864
C31   C     C_R   0.806480 0.951701 0.706256 -0.121266
C32   C     C_R   0.710612 0.880561 0.639605 -0.162190
C33   C     C_R   0.613032 0.940311 0.570897 0.104461
H1    H     H_    0.916493 0.441932 0.723101 0.147090
H2    H     H_    0.084476 0.560611 0.276395 0.158370
H3    H     H_    0.908344 0.351211 0.335871 0.148587
H4    H     H_    0.058808 0.287240 0.556211 0.151085
H5    H     H_    0.350954 0.106090 0.371662 0.147912
H6    H     H_    0.719495 0.245229 0.635251 0.151463
H7    H     H_    0.883598 0.138041 0.754251 0.128268
H8    H     H_    0.881039 0.904901 0.757604 0.133725
H9    H     H_    0.716147 0.779237 0.639800 0.141075
H10   H     H_    0.351406 0.878192 0.369891 0.157486
H11   H     H_    0.324012 0.334821 0.252285 0.204182
H12   H     H_    0.125772 0.266745 0.152811 0.158090
H13   H     H_    0.103056 0.272151 0.912540 0.142336
H14   H     H_    0.661544 0.624845 0.871641 0.141900
H15   H     H_    0.092593 0.651718 0.664015 0.145740
N1    N     N_R   0.498800 0.498800 0.142780 -0.141031
N2    N     N_R   0.498760 0.498720 0.857170 -0.121212
N3    N     N_1   0.756974 0.717784 0.187852 -0.201898
N4    N     N_1   0.270664 0.224972 0.659648 -0.259043
N5    N     N_1   0.912773 0.847804 0.408519 -0.190174
O1    O     O_R   0.500000 0.316780 0.614690 -0.614525
O2    O     O_R   0.499990 0.316750 0.385360 -0.642748
O3    O     O_R   0.313960 0.499980 0.614650 -0.618103
O4    O     O_R   0.313940 0.499960 0.385310 -0.647716
O5    O     O_R   0.500010 0.683250 0.614640 -0.620132
O6    O     O_R   0.500000 0.683220 0.385310 -0.604843
O7    O     O_R   0.686060 0.500040 0.614690 -0.645484
O8    O     O_R   0.686040 0.500020 0.385350 -0.610132
Zn1   Zn    Zn3+2 0.500010 0.500020 0.653130 0.941647
Zn2   Zn    Zn3+2 0.499990 0.499980 0.346870 0.944450

loop_
_geom_bond_atom_site_label_1
_geom_bond_atom_site_label_2
_ccdc_geom_bond_type
C17   N2    A    
C10   H13   S    
C1    O1    A    
C25   N3    T    
C18   O8    A    
O5    Zn1   S    
C6    C7    A    
N1    Zn2   S    
C26   N4    T    
C12   H3    S    
C18   C21   S    
C7    C33   A    
C9    C10   A    
C12   C24   S    
O6    Zn2   S    
C31   C32   A    
C11   C26   S    
C20   C23   S    
C30   C31   A    
C22   C27   S    
C20   H1    S    
C32   C33   A    
C29   H6    S    
C27   N5    T    
C2    C3    A    
C1    O2    A    
C30   H7    S    
C31   H8    S    
C16   O5    A    
C21   C22   S    
C4    O3    A    
C4    O4    A    
C9    H12   S    
C19   C28   S    
C11   C13   A    
C12   C23   S    
C29   C30   A    
C2    C29   A    
C2    C33   A    
C18   O7    A    
C7    C16   S    
C4    C28   S    
O4    Zn2   S    
O3    Zn1   S    
C6    H10   S    
C15   N1    A    
C5    C6    A    
N2    Zn1   S    
C22   C24   S    
C15   C25   S    
C14   N1    A    
C23   C28   S    
C10   C11   A    
C13   N2    A    
C24   H2    S    
C8    H11   S    
C19   C22   S    
C5    H5    S    
C20   C21   S    
C24   C28   S    
O7    Zn1   S    
C15   C17   A    
C32   H9    S    
C19   H15   S    
C8    C14   A    
O1    Zn1   S    
C13   C14   A    
C3    C5    A    
C23   H4    S    
C12   C21   S    
O8    Zn2   S    
C19   C20   S    
C17   H14   S    
C8    C9    A    
C1    C3    S    
C16   O6    A    
O2    Zn2   S    
