data_mof_unit_20938.cif
_audit_creation_date              2012-12-10T18:43:08-0500
_audit_creation_method            fapswitch 2.2
_symmetry_space_group_name_H-M    P1
_symmetry_Int_Tables_number       1
_space_group_crystal_system       triclinic
_cell_length_a                    8.710574
_cell_length_b                    19.343716
_cell_length_c                    18.21305
_cell_angle_alpha                 90.490988
_cell_angle_beta                  98.129678
_cell_angle_gamma                 91.452194
_cell_volume                      3036.7609018

loop_
_atom_site_label
_atom_site_type_symbol
_atom_type_description
_atom_site_fract_x
_atom_site_fract_y
_atom_site_fract_z
_atom_type_partial_charge
C1    C     C_R   0.496448 0.367324 0.499576 0.855339
C2    C     C_R   0.497473 0.632778 0.500283 0.858862
C3    C     C_R   0.269144 0.957026 0.524182 -0.332778
C4    C     C_R   0.515151 0.038028 0.488526 -0.297091
C5    C     C_R   0.267636 0.029032 0.534020 0.444317
C6    C     C_R   0.521588 0.966184 0.484661 0.482381
C7    C     C_R   0.383620 0.071726 0.507625 -0.026118
C8    C     C_R   0.394610 0.925409 0.499471 0.042686
C9    C     C_R   0.380687 0.466602 0.712386 0.151539
C10   C     C_R   0.596310 0.545461 0.286448 0.164410
C11   C     C_R   0.369315 0.469811 0.789655 0.278360
C12   C     C_R   0.597173 0.547983 0.208586 0.314533
C13   C     C_R   0.489423 0.501923 0.838415 0.126887
C14   C     C_R   0.499283 0.502788 0.161121 0.051629
C15   C     C_R   0.612394 0.534854 0.809409 -0.086238
C16   C     C_R   0.398721 0.457286 0.192995 -0.062741
C17   C     C_R   0.618902 0.531756 0.731342 0.545635
C18   C     C_R   0.400060 0.456730 0.271367 0.584153
C19   C     C_R   0.404529 0.550601 0.955142 0.316037
C20   C     C_R   0.588108 0.456463 0.043906 0.253263
C21   C     C_R   0.403405 0.549659 0.033115 0.295309
C22   C     C_R   0.575957 0.453116 0.965212 0.260395
C23   C     C_R   0.203542 0.499787 0.480885 0.876551
C24   C     C_R   0.796365 0.500675 0.518892 0.876984
C25   C     C_R   0.498910 0.503954 0.078214 -0.115166
C26   C     C_R   0.487906 0.501417 0.920902 -0.071253
C27   C     C_2   0.037435 0.498799 0.470042 -0.360724
C28   C     C_2   0.962236 0.502542 0.528781 -0.392672
C29   C     C_R   0.451161 0.743879 0.433247 -0.376016
C30   C     C_R   0.370996 0.265852 0.548012 -0.381527
C31   C     C_R   0.417455 0.814166 0.432011 0.468463
C32   C     C_R   0.318389 0.196986 0.544710 0.422216
C33   C     C_R   0.403646 0.849432 0.498559 -0.107588
C34   C     C_R   0.379598 0.149480 0.497304 -0.124476
C35   C     C_R   0.413728 0.813084 0.565502 0.290328
C36   C     C_R   0.454738 0.178575 0.439513 0.286124
C37   C     C_R   0.465564 0.744541 0.567364 0.321236
C38   C     C_R   0.506837 0.248269 0.443058 0.321339
C39   C     C_R   0.475337 0.708323 0.500537 -0.263869
C40   C     C_R   0.464801 0.292118 0.498183 -0.253321
Cu1   Cu    Cu3+1 0.499960 0.500000 0.573360 0.997972
Cu2   Cu    Cu3+1 0.500040 0.500000 0.426640 0.995750
H1    H     H_    0.977048 0.494392 0.413654 0.179891
H2    H     H_    0.023194 0.507809 0.584536 0.175567
H3    H     H_    0.458694 0.717410 0.381279 0.203604
H4    H     H_    0.326515 0.300309 0.586485 0.196314
H5    H     H_    0.176619 0.925394 0.541298 0.187473
H6    H     H_    0.615749 0.067519 0.476477 0.198313
N1    N     N_R   0.499980 0.500020 0.683620 -0.219722
N2    N     N_R   0.500020 0.499980 0.316380 -0.241533
O1    O     O_R   0.499930 0.400180 0.561970 -0.578741
O2    O     O_R   0.500070 0.599820 0.438030 -0.571259
O3    O     O_R   0.500010 0.400190 0.438070 -0.543807
O4    O     O_R   0.499990 0.599810 0.561930 -0.511668
O5    O     O_R   0.274810 0.500000 0.547650 -0.555397
O6    O     O_R   0.725190 0.500000 0.452350 -0.561268
O7    O     O_R   0.274880 0.500000 0.423750 -0.548438
O8    O     O_R   0.725120 0.500000 0.576250 -0.566252
N3    N     N_3   0.722434 0.575482 0.859702 -0.625928
H7    H     H_    0.800113 0.542097 0.889462 0.236327
H8    H     H_    0.784742 0.611081 0.832041 0.249677
N4    N     N_3   0.290018 0.413707 0.146297 -0.604905
H9    H     H_    0.351627 0.380925 0.115865 0.236013
H10   H     H_    0.221047 0.444645 0.109113 0.202883
O9    O     O_3   0.736825 0.566620 0.702203 -0.561774
C41   C     C_3   0.882573 0.536335 0.725116 0.069470
H11   H     H_    0.897371 0.490606 0.690093 0.153245
H12   H     H_    0.899313 0.517323 0.782870 0.158808
C42   C     C_3   0.010730 0.589894 0.718043 -0.781899
H13   H     H_    0.003546 0.633717 0.757065 0.237201
H14   H     H_    0.126045 0.566465 0.731273 0.249263
H15   H     H_    0.998542 0.610100 0.660699 0.229871
O10   O     O_3   0.283761 0.422294 0.302301 -0.556631
C43   C     C_3   0.284887 0.349843 0.291416 0.155553
H16   H     H_    0.319685 0.325687 0.345670 0.187048
H17   H     H_    0.365610 0.331670 0.253416 0.156752
C44   C     C_3   0.120688 0.323661 0.264174 -0.872588
H18   H     H_    0.073350 0.350693 0.213026 0.280786
H19   H     H_    0.119703 0.267245 0.252512 0.201105
H20   H     H_    0.045724 0.334043 0.307283 0.245709
O11   O     O_3   0.314034 0.596218 0.911111 -0.544886
C45   C     C_3   0.391524 0.661384 0.913861 0.108028
H21   H     H_    0.516136 0.657115 0.907240 0.161218
H22   H     H_    0.383232 0.688234 0.967341 0.186040
C46   C     C_3   0.314930 0.705227 0.850784 -0.849655
H23   H     H_    0.191243 0.712791 0.856561 0.241748
H24   H     H_    0.375239 0.756558 0.851697 0.209348
H25   H     H_    0.321589 0.679090 0.796822 0.261457
O12   O     O_3   0.674062 0.408546 0.087327 -0.582789
C47   C     C_3   0.835119 0.418385 0.084604 0.127598
H26   H     H_    0.891000 0.436846 0.140081 0.131434
H27   H     H_    0.865152 0.457090 0.043402 0.124445
C48   C     C_3   0.905958 0.349546 0.068313 -0.813614
H28   H     H_    0.873625 0.334204 0.009406 0.262626
H29   H     H_    0.033992 0.354095 0.078453 0.207255
H30   H     H_    0.867118 0.308487 0.104329 0.250259
O13   O     O_3   0.313213 0.595506 0.065769 -0.552031
C49   C     C_3   0.154064 0.575964 0.048603 0.103763
H31   H     H_    0.113932 0.556574 0.099928 0.127092
H32   H     H_    0.127333 0.534149 0.005603 0.136557
C50   C     C_3   0.060281 0.638775 0.022508 -0.779787
H33   H     H_    0.087983 0.655785 0.967831 0.267365
H34   H     H_    0.934395 0.625407 0.016601 0.197004
H35   H     H_    0.086997 0.682079 0.063042 0.248579
O14   O     O_3   0.655444 0.404165 0.930855 -0.574596
C51   C     C_3   0.576785 0.339324 0.931063 0.099689
H36   H     H_    0.448824 0.343584 0.922844 0.131700
H37   H     H_    0.609727 0.312945 0.984636 0.189314
C52   C     C_3   0.621078 0.294318 0.868896 -0.855575
H38   H     H_    0.748299 0.286714 0.877218 0.249937
H39   H     H_    0.560350 0.243109 0.868395 0.206896
H40   H     H_    0.587275 0.319489 0.814610 0.244525
O15   O     O_3   0.401842 0.848942 0.365550 -0.534838
C53   C     C_3   0.245095 0.843066 0.332825 0.063302
H41   H     H_    0.165814 0.861946 0.371236 0.133920
H42   H     H_    0.213240 0.788345 0.316592 0.142477
C54   C     C_3   0.221743 0.886904 0.263471 -0.758445
H43   H     H_    0.299403 0.869819 0.223835 0.253335
H44   H     H_    0.248014 0.942104 0.278480 0.245542
H45   H     H_    0.099477 0.881510 0.236410 0.199546
O16   O     O_3   0.197271 0.180182 0.583011 -0.540535
C55   C     C_3   0.058056 0.203678 0.541929 0.129776
H46   H     H_    0.035376 0.177523 0.486534 0.133029
H47   H     H_    0.063034 0.260714 0.534056 0.110125
C56   C     C_3   0.921500 0.187755 0.583311 -0.800085
H48   H     H_    0.946301 0.208348 0.640983 0.240468
H49   H     H_    0.815830 0.212591 0.555342 0.175554
H50   H     H_    0.898268 0.131107 0.583968 0.266787
O17   O     O_3   0.384741 0.846901 0.629645 -0.582603
C57   C     C_3   0.266888 0.810486 0.661163 0.120115
H51   H     H_    0.318960 0.770250 0.699132 0.206745
H52   H     H_    0.177371 0.785619 0.618467 0.116807
C58   C     C_3   0.184434 0.859531 0.707186 -0.886618
H53   H     H_    0.114904 0.896019 0.670442 0.244661
H54   H     H_    0.104501 0.829548 0.738092 0.211051
H55   H     H_    0.270129 0.888730 0.747570 0.259069
O18   O     O_3   0.481634 0.139099 0.379072 -0.562439
C59   C     C_3   0.340220 0.128039 0.331657 0.107508
H56   H     H_    0.282571 0.177821 0.316952 0.126532
H57   H     H_    0.260198 0.093468 0.357972 0.143882
C60   C     C_3   0.372677 0.093443 0.260408 -0.783806
H58   H     H_    0.433142 0.044207 0.273240 0.264826
H59   H     H_    0.261856 0.082248 0.223545 0.192380
H60   H     H_    0.446927 0.128113 0.231165 0.242504
O19   O     O_3   0.505138 0.713275 0.635054 -0.570700
C61   C     C_3   0.657924 0.734468 0.665300 0.139280
H61   H     H_    0.695517 0.786114 0.646112 0.116868
H62   H     H_    0.740099 0.695652 0.649995 0.183394
C62   C     C_3   0.669031 0.738400 0.749288 -0.791833
H63   H     H_    0.617364 0.690812 0.770207 0.271231
H64   H     H_    0.792382 0.744212 0.774673 0.191629
H65   H     H_    0.604580 0.783510 0.765654 0.239943
O20   O     O_3   0.583225 0.275193 0.387557 -0.576942
C63   C     C_3   0.735344 0.249923 0.393424 0.116124
H66   H     H_    0.750827 0.199226 0.421869 0.149074
H67   H     H_    0.817213 0.288386 0.424572 0.122561
C64   C     C_3   0.778071 0.240627 0.315952 -0.776345
H68   H     H_    0.771294 0.290707 0.286438 0.247550
H69   H     H_    0.897677 0.221150 0.319688 0.182968
H70   H     H_    0.696848 0.202505 0.283995 0.267782
O21   O     O_3   0.160720 0.054122 0.575710 -0.547706
C65   C     C_3   0.219271 0.045106 0.651857 0.139461
H71   H     H_    0.308806 0.085861 0.670842 0.170412
H72   H     H_    0.274178 0.994216 0.663171 0.144269
C66   C     C_3   0.088415 0.049690 0.698737 -0.826311
H73   H     H_    0.988730 0.015702 0.674952 0.235660
H74   H     H_    0.129835 0.032885 0.756124 0.200626
H75   H     H_    0.050281 0.103718 0.701471 0.260275
O22   O     O_3   0.650272 0.935904 0.462969 -0.542251
C67   C     C_3   0.758313 0.922759 0.526480 0.052101
H76   H     H_    0.702437 0.907459 0.575673 0.129128
H77   H     H_    0.833143 0.969684 0.541237 0.168095
C68   C     C_3   0.859351 0.863525 0.508989 -0.802843
H78   H     H_    0.923881 0.877726 0.462661 0.251978
H79   H     H_    0.943321 0.851733 0.558625 0.185796
H80   H     H_    0.785884 0.816528 0.493001 0.249517
N5    N     N_3   0.268402 0.426664 0.663988 -0.516572
H81   H     H_    0.278767 0.374902 0.679112 0.174139
H82   H     H_    0.157942 0.442462 0.671351 0.202860
N6    N     N_3   0.692129 0.592891 0.334560 -0.503295
H83   H     H_    0.669681 0.643233 0.316375 0.232840
H84   H     H_    0.808296 0.582724 0.331823 0.199645
O23   O     O_3   0.229482 0.455971 0.815787 -0.570512
C69   C     C_3   0.193555 0.384426 0.816687 0.044355
H85   H     H_    0.295145 0.351108 0.814406 0.131041
H86   H     H_    0.104799 0.370714 0.768488 0.145635
C70   C     C_3   0.122020 0.368550 0.886535 -0.808644
H87   H     H_    0.011089 0.395950 0.885288 0.264769
H88   H     H_    0.098418 0.312072 0.889872 0.199665
H89   H     H_    0.201793 0.385924 0.936681 0.229584
O24   O     O_3   0.677849 0.600800 0.178840 -0.558702
C71   C     C_3   0.834141 0.582930 0.179131 0.061825
H90   H     H_    0.848365 0.564898 0.122634 0.139603
H91   H     H_    0.874709 0.541409 0.218935 0.118343
C72   C     C_3   0.937601 0.646997 0.198603 -0.796501
H92   H     H_    0.061091 0.634161 0.198694 0.216985
H93   H     H_    0.905986 0.688144 0.157505 0.255700
H94   H     H_    0.923463 0.666864 0.254524 0.234746

loop_
_geom_bond_atom_site_label_1
_geom_bond_atom_site_label_2
_ccdc_geom_bond_type
C41   H12   S    
C66   H73   S    
Cu1   Cu2   S    
C53   H41   S    
C62   H63   S    
C11   O23   S    
C46   H23   S    
C48   H28   S    
C56   H48   S    
C43   H17   S    
C35   C37   A    
Cu1   O8    S    
C65   H71   S    
C62   H64   S    
Cu2   O3    S    
C4    H6    S    
C33   C35   A    
C44   H20   S    
C41   C42   S    
C51   H36   S    
C61   C62   S    
O13   C49   S    
C69   H85   S    
C67   C68   S    
C15   C17   A    
O22   C67   S    
C3    H5    S    
C42   H14   S    
C19   C26   A    
C1    O3    A    
Cu1   O5    S    
C70   H89   S    
N4    H10   S    
C1    C40   S    
Cu2   O6    S    
O15   C53   S    
C60   H58   S    
C2    C39   S    
C64   H68   S    
O20   C63   S    
N5    H82   S    
C43   C44   S    
C58   H55   S    
C31   C33   A    
C23   C27   S    
C36   O18   S    
C35   O17   S    
C65   H72   S    
C44   H18   S    
C72   H94   S    
C46   H24   S    
C41   H11   S    
N3    H7    S    
C50   H34   S    
C38   C40   A    
C16   N4    S    
C4    C7    A    
Cu2   O7    S    
Cu1   N1    S    
C50   H33   S    
N6    H84   S    
O19   C61   S    
C20   O12   S    
C61   H62   S    
C55   H46   S    
C68   H79   S    
O10   C43   S    
N3    H8    S    
C43   H16   S    
O24   C71   S    
C71   C72   S    
C20   C25   A    
C9    N1    A    
C63   C64   S    
C4    C6    A    
C3    C8    A    
C2    O4    A    
C54   H45   S    
C17   N1    A    
C5    C7    A    
C6    C8    A    
C68   H78   S    
C28   H2    S    
O11   C45   S    
C52   H40   S    
C29   H3    S    
C60   H59   S    
C32   C34   A    
C64   H69   S    
C42   H15   S    
C57   H52   S    
O23   C69   S    
N4    H9    S    
C2    O2    A    
C5    O21   S    
C56   H50   S    
C65   C66   S    
C21   O13   S    
C47   H27   S    
C13   C15   A    
C29   C31   A    
C29   C39   A    
O16   C55   S    
C44   H19   S    
C30   C40   A    
C16   C18   A    
C1    O1    A    
C63   H66   S    
C10   C12   A    
Cu2   N2    S    
C62   H65   S    
C24   O8    A    
C12   C14   A    
O9    C41   S    
C48   H30   S    
C45   H22   S    
C45   H21   S    
C9    C11   A    
C22   C26   A    
C58   H53   S    
C7    C34   S    
C14   C16   A    
C13   C26   S    
C60   H60   S    
C57   C58   S    
C24   O6    A    
C55   H47   S    
C49   C50   S    
C9    N5    S    
N6    H83   S    
C18   N2    A    
C47   C48   S    
C58   H54   S    
C61   H61   S    
O14   C51   S    
C46   H25   S    
C23   O7    A    
C12   O24   S    
C21   C25   A    
Cu2   O2    S    
C15   N3    S    
C19   C21   A    
C63   H67   S    
C32   O16   S    
C30   H4    S    
C24   C28   S    
C20   C22   A    
C3    C5    A    
C59   C60   S    
C53   H42   S    
C23   O5    A    
C59   H57   S    
Cu1   O1    S    
C64   H70   S    
C66   H75   S    
C45   C46   S    
O18   C59   S    
C17   O9    S    
C69   C70   S    
C10   N6    S    
C18   O10   S    
C55   C56   S    
C54   H44   S    
C57   H51   S    
O17   C57   S    
C70   H87   S    
C37   C39   A    
O21   C65   S    
C54   H43   S    
C71   H90   S    
C30   C32   A    
C11   C13   A    
C47   H26   S    
C48   H29   S    
C51   H37   S    
C52   H39   S    
C36   C38   A    
C68   H80   S    
C69   H86   S    
C34   C36   A    
C8    C33   S    
C22   O14   S    
C42   H13   S    
C49   H32   S    
Cu1   O4    S    
C70   H88   S    
C53   C54   S    
C59   H56   S    
N5    H81   S    
C72   H92   S    
C27   H1    S    
C31   O15   S    
C14   C25   S    
C66   H74   S    
C49   H31   S    
C67   H76   S    
C52   H38   S    
C27   C28   D    
C56   H49   S    
C50   H35   S    
C67   H77   S    
C38   O20   S    
C37   O19   S    
O12   C47   S    
C19   O11   S    
C6    O22   S    
C71   H91   S    
C72   H93   S    
C51   C52   S    
C10   N2    A    
