data_mof_unit_53990.cif
_audit_creation_date              2012-10-26T18:50:00-0400
_audit_creation_method            fapswitch 2.2
_symmetry_space_group_name_H-M    P1
_symmetry_Int_Tables_number       1
_space_group_crystal_system       triclinic
_cell_length_a                    10.865166
_cell_length_b                    13.086111
_cell_length_c                    11.626674
_cell_angle_alpha                 101.15762
_cell_angle_beta                  94.234904
_cell_angle_gamma                 91.170921
_cell_volume                      1616.41928366

loop_
_atom_site_label
_atom_site_type_symbol
_atom_type_description
_atom_site_fract_x
_atom_site_fract_y
_atom_site_fract_z
_atom_type_partial_charge
C1    C     C_R   0.499429 0.298348 0.476706 0.559692
C2    C     C_R   0.495345 0.859100 0.438639 -0.121207
C3    C     C_R   0.506009 0.033532 0.555906 -0.012187
C4    C     C_R   0.493991 0.966468 0.444094 -0.012187
C5    C     C_R   0.392963 0.390958 0.017902 -0.006018
C6    C     C_R   0.607037 0.609042 0.982098 -0.006019
C7    C     C_R   0.402621 0.404485 0.141521 0.041612
C8    C     C_R   0.597379 0.595515 0.858478 0.041612
C9    C     C_R   0.544018 0.547088 0.160016 0.056216
C10   C     C_R   0.455982 0.452912 0.839984 0.056216
C11   C     C_R   0.538102 0.540116 0.036242 -0.037804
C12   C     C_R   0.500571 0.701652 0.523294 0.559691
C13   C     C_R   0.461898 0.459884 0.963758 -0.037804
C14   C     C_R   0.261713 0.486853 0.497764 0.542624
C15   C     C_R   0.738287 0.513146 0.502236 0.542624
C16   C     C_R   0.127026 0.449445 0.700561 -0.065045
C17   C     C_R   0.872974 0.550555 0.299438 -0.065045
C18   C     C_R   0.080071 0.474650 0.810386 -0.100418
C19   C     C_R   0.919929 0.525350 0.189614 -0.100417
C20   C     C_R   0.973455 0.531132 0.822751 -0.090546
C21   C     C_R   0.026545 0.468868 0.177249 -0.090546
C22   C     C_R   0.908349 0.554127 0.723592 -0.052977
C23   C     C_R   0.500234 0.816359 0.539887 -0.046934
C24   C     C_R   0.091650 0.445872 0.276408 -0.052977
C25   C     C_R   0.948824 0.520400 0.609874 0.015857
C26   C     C_R   0.051176 0.479600 0.390126 0.015857
C27   C     C_R   0.068285 0.481267 0.601369 0.019616
C28   C     C_R   0.931715 0.518733 0.398630 0.019616
C29   C     C_R   0.874923 0.525988 0.505464 -0.036002
C30   C     C_R   0.125077 0.474012 0.494535 -0.036002
C31   C     C_2   0.310634 0.303936 0.950998 0.558446
C32   C     C_2   0.689366 0.696063 0.049002 0.558446
C33   C     C_2   0.511682 0.841022 0.762123 0.629411
C34   C     C_R   0.499766 0.183641 0.460113 -0.046934
C35   C     C_2   0.488319 0.158978 0.237876 0.629411
C36   C     C_2   0.464197 0.938101 0.221479 0.614518
C37   C     C_2   0.535803 0.061899 0.778520 0.614518
C38   C     C_R   0.484153 0.007828 0.339601 0.033391
C39   C     C_R   0.515848 0.992172 0.660399 0.033391
C40   C     C_R   0.491612 0.116870 0.347715 0.026004
C41   C     C_R   0.508389 0.883130 0.652285 0.026004
C42   C     C_R   0.504655 0.140900 0.561361 -0.121206
Cu1   Cu    Cu3+1 0.509250 0.507730 0.615930 0.986688
Cu2   Cu    Cu3+1 0.490750 0.492270 0.384070 0.986688
H1    H     H_    0.060030 0.444384 0.091194 0.142420
H2    H     H_    0.505877 0.192916 0.645768 0.196405
H3    H     H_    0.397313 0.395611 0.781636 0.166112
H4    H     H_    0.602687 0.604389 0.218364 0.166113
H5    H     H_    0.647008 0.648342 0.816205 0.169420
H6    H     H_    0.352992 0.351658 0.183795 0.169420
H7    H     H_    0.279014 0.188262 0.808762 0.365407
H8    H     H_    0.720986 0.811737 0.191238 0.365407
H9    H     H_    0.418818 0.767760 0.868417 0.341805
H10   H     H_    0.581183 0.232241 0.131584 0.341805
H11   H     H_    0.361930 0.822070 0.115164 0.355518
H12   H     H_    0.939970 0.555616 0.908805 0.142420
H13   H     H_    0.638071 0.177931 0.884835 0.355518
H14   H     H_    0.207444 0.402472 0.692904 0.127702
H15   H     H_    0.792556 0.597528 0.307096 0.127703
H16   H     H_    0.127980 0.452473 0.886198 0.128889
H17   H     H_    0.872020 0.547527 0.113802 0.128889
H18   H     H_    0.829176 0.601843 0.737439 0.146090
H19   H     H_    0.170824 0.398157 0.262561 0.146090
H20   H     H_    0.494123 0.807084 0.354232 0.196404
N1    N     N_R   0.523180 0.519350 0.790130 -0.258520
N2    N     N_R   0.476820 0.480650 0.209870 -0.258520
O1    O     O_R   0.506570 0.354460 0.582000 -0.511289
O2    O     O_R   0.343676 0.244397 0.845354 -0.705977
O3    O     O_2   0.785086 0.718302 0.008816 -0.502282
O4    O     O_R   0.656324 0.755602 0.154646 -0.705977
O5    O     O_2   0.605491 0.852390 0.828861 -0.460115
O6    O     O_R   0.406102 0.791358 0.790442 -0.642649
O7    O     O_2   0.394510 0.147609 0.171139 -0.460115
O8    O     O_R   0.593899 0.208643 0.209559 -0.642649
O9    O     O_2   0.532329 0.946458 0.144377 -0.415786
O10   O     O_R   0.365591 0.864797 0.198074 -0.671900
O11   O     O_2   0.467672 0.053542 0.855623 -0.415786
O12   O     O_R   0.493430 0.645540 0.418000 -0.511289
O13   O     O_R   0.634409 0.135203 0.801925 -0.671900
O14   O     O_R   0.490940 0.341410 0.386200 -0.479381
O15   O     O_R   0.509060 0.658590 0.613800 -0.479380
O16   O     O_R   0.327470 0.506520 0.597900 -0.496502
O17   O     O_R   0.672530 0.493480 0.402100 -0.496502
O18   O     O_R   0.311840 0.493460 0.402100 -0.510305
O19   O     O_R   0.688160 0.506540 0.597900 -0.510305
O20   O     O_2   0.214914 0.281698 0.991184 -0.502282

loop_
_geom_bond_atom_site_label_1
_geom_bond_atom_site_label_2
_ccdc_geom_bond_type
C6    C32   S    
C35   O8    S    
H13   O13   S    
Cu2   N2    S    
C34   C42   A    
C14   O18   A    
C20   H12   S    
Cu2   O17   S    
C3    C42   A    
C37   O13   S    
C12   C23   S    
C34   C40   A    
C28   C29   A    
C19   C21   A    
C24   C26   A    
C42   H2    S    
C9    N2    A    
C36   O10   S    
C33   O6    S    
C17   C19   A    
H10   O8    S    
C22   C25   A    
C12   O12   A    
C5    C13   A    
C15   O19   A    
C16   C27   A    
C3    C39   A    
C8    N1    A    
C31   O20   D    
C27   C30   A    
C14   C30   S    
C2    H20   S    
C1    C34   S    
C15   C29   S    
C21   H1    S    
C25   C29   A    
C31   O2    S    
Cu1   O19   S    
Cu2   O14   S    
C39   C41   A    
C6    C11   A    
C5    C7    A    
C32   O4    S    
C37   O11   D    
C2    C4    A    
Cu1   Cu2   S    
C36   O9    D    
C22   H18   S    
Cu1   N1    S    
C16   C18   A    
C16   H14   S    
C9    C11   A    
C17   H15   S    
H11   O10   S    
C18   H16   S    
C20   C22   A    
C26   C30   A    
C24   H19   S    
Cu1   O15   S    
C14   O16   A    
C3    C4    A    
C10   H3    S    
C10   N1    A    
C1    O14   A    
C35   O7    D    
C17   C28   A    
C7    H6    S    
C4    C38   A    
Cu2   O18   S    
C10   C13   A    
C6    C8    A    
C32   O3    D    
C25   C27   A    
C26   C28   A    
C23   C41   A    
C33   C41   S    
Cu2   O12   S    
C35   C40   S    
C37   C39   S    
C7    N2    A    
C38   C40   A    
C11   C13   A    
C19   H17   S    
C15   O17   A    
C36   C38   S    
C1    O1    A    
C12   O15   A    
C18   C20   A    
H7    O2    S    
H8    O4    S    
C33   O5    D    
C9    H4    S    
Cu1   O1    S    
C21   C24   A    
C2    C23   A    
Cu1   O16   S    
H9    O6    S    
C8    H5    S    
C5    C31   S    
