data_mof_unit_54133.cif
_audit_creation_date              2012-12-11T14:42:23-0500
_audit_creation_method            fapswitch 2.2
_symmetry_space_group_name_H-M    P1
_symmetry_Int_Tables_number       1
_space_group_crystal_system       triclinic
_cell_length_a                    18.979599
_cell_length_b                    10.932235
_cell_length_c                    18.856032
_cell_angle_alpha                 90.059114
_cell_angle_beta                  90.399292
_cell_angle_gamma                 89.619495
_cell_volume                      3912.24427419

loop_
_atom_site_label
_atom_site_type_symbol
_atom_type_description
_atom_site_fract_x
_atom_site_fract_y
_atom_site_fract_z
_atom_type_partial_charge
Br1   Br    Br    0.512306 0.905864 0.089991 -0.354540
Br2   Br    Br    0.383091 0.550096 0.914201 -0.339336
Br3   Br    Br    0.110362 0.000162 0.093703 -0.349923
Br4   Br    Br    0.883091 0.050093 0.914200 -0.339340
Br5   Br    Br    0.545662 0.928770 0.406152 -0.412275
Br6   Br    Br    0.524039 0.890693 0.578367 -0.416569
Br7   Br    Br    0.045662 0.428771 0.406152 -0.412268
Br8   Br    Br    0.024040 0.390695 0.578368 -0.416709
Br9   Br    Br    0.512551 0.901434 0.917496 -0.375439
Br10  Br    Br    0.012305 0.405863 0.089991 -0.354537
Br11  Br    Br    0.012550 0.401434 0.917496 -0.375439
Br12  Br    Br    0.603882 0.523229 0.920312 -0.340077
Br13  Br    Br    0.374731 0.564321 0.087761 -0.316753
Br14  Br    Br    0.103881 0.023226 0.920312 -0.340076
Br15  Br    Br    0.874733 0.064319 0.087761 -0.316754
Br16  Br    Br    0.610362 0.500165 0.093702 -0.349925
C1    C     C_R   0.728076 0.955114 0.853207 0.557301
C2    C     C_R   0.249334 0.415370 0.924069 -0.015930
C3    C     C_R   0.257412 0.925960 0.072149 -0.007031
C4    C     C_R   0.749334 0.915369 0.924069 -0.015930
C5    C     C_R   0.814497 0.386927 0.031192 -0.135804
C6    C     C_R   0.201929 0.341304 0.959763 -0.144791
C7    C     C_R   0.314498 0.886931 0.031192 -0.135803
C8    C     C_R   0.701928 0.841304 0.959763 -0.144790
C9    C     C_R   0.809555 0.383009 0.958888 -0.143093
C10   C     C_R   0.203976 0.333840 0.032096 -0.136411
C11   C     C_R   0.309555 0.883013 0.958887 -0.143094
C12   C     C_R   0.273138 0.956694 0.145733 0.582137
C13   C     C_R   0.703976 0.833841 0.032096 -0.136411
C14   C     C_R   0.746356 0.412962 0.924663 -0.014772
C15   C     C_R   0.255284 0.396670 0.071605 -0.010519
C16   C     C_R   0.246356 0.912963 0.924663 -0.014772
C17   C     C_R   0.755285 0.896670 0.071605 -0.010519
C18   C     C_R   0.458028 0.254750 0.547930 -0.135956
C19   C     C_R   0.452800 0.261059 0.475411 -0.144245
C20   C     C_R   0.958027 0.754749 0.547930 -0.135951
C21   C     C_R   0.952799 0.761058 0.475411 -0.144224
C22   C     C_R   0.481474 0.168178 0.432586 0.007673
C23   C     C_R   0.228076 0.455114 0.853208 0.557301
C24   C     C_R   0.492097 0.155303 0.578597 0.005829
C25   C     C_R   0.981473 0.668178 0.432586 0.007673
C26   C     C_R   0.992097 0.655303 0.578597 0.005835
C27   C     C_R   0.508165 0.060555 0.463392 0.144336
C28   C     C_R   0.508132 0.050355 0.537100 0.152744
C29   C     C_R   0.008165 0.560556 0.463392 0.144340
C30   C     C_R   0.008132 0.550356 0.537100 0.152746
C31   C     C_R   0.822037 0.418795 0.550718 -0.130663
C32   C     C_R   0.209886 0.322112 0.469693 -0.129960
C33   C     C_R   0.322037 0.918796 0.550718 -0.130663
C34   C     C_R   0.773138 0.456693 0.145733 0.582137
C35   C     C_R   0.709885 0.822114 0.469693 -0.129956
C36   C     C_R   0.834595 0.446834 0.480011 -0.102040
C37   C     C_R   0.208372 0.331416 0.542205 -0.106235
C38   C     C_R   0.334595 0.946834 0.480011 -0.102044
C39   C     C_R   0.708371 0.831418 0.542204 -0.106230
C40   C     C_R   0.529824 0.176916 0.851047 0.560585
C41   C     C_R   0.471312 0.176909 0.149831 0.574209
C42   C     C_R   0.029824 0.676916 0.851047 0.560586
C43   C     C_R   0.971312 0.676909 0.149831 0.574210
C44   C     C_R   0.779521 0.485867 0.436124 -0.026047
C45   C     C_R   0.693258 0.459840 0.038902 0.145756
C46   C     C_R   0.248395 0.419424 0.576309 -0.042327
C47   C     C_R   0.279521 0.985865 0.436123 -0.026053
C48   C     C_R   0.748395 0.919425 0.576309 -0.042334
C49   C     C_R   0.713982 0.511374 0.465695 -0.111655
C50   C     C_R   0.294855 0.492455 0.537271 -0.120519
C51   C     C_R   0.213981 0.011369 0.465694 -0.111642
C52   C     C_R   0.794855 0.992456 0.537271 -0.120519
C53   C     C_R   0.701101 0.490443 0.537269 0.221270
C54   C     C_R   0.298259 0.482610 0.463422 0.211936
C55   C     C_R   0.201100 0.990439 0.537268 0.221288
C56   C     C_R   0.305268 0.472153 0.961899 0.157750
C57   C     C_R   0.798259 0.982611 0.463422 0.211931
C58   C     C_R   0.754192 0.431759 0.579438 -0.003400
C59   C     C_R   0.254326 0.396049 0.429041 0.011552
C60   C     C_R   0.254191 0.931758 0.579438 -0.003403
C61   C     C_R   0.754326 0.896050 0.429041 0.011546
C62   C     C_R   0.737909 0.365165 0.852816 0.554767
C63   C     C_R   0.262367 0.361663 0.146031 0.572505
C64   C     C_R   0.237909 0.865165 0.852816 0.554767
C65   C     C_R   0.762366 0.861663 0.146031 0.572505
C66   C     C_R   0.728240 0.955508 0.647536 0.550002
C67   C     C_R   0.193258 0.959839 0.038902 0.145755
C68   C     C_R   0.290945 0.002760 0.359993 0.539940
C69   C     C_R   0.228240 0.455507 0.647536 0.550005
C70   C     C_R   0.790946 0.502762 0.359994 0.539938
C71   C     C_R   0.527478 0.174175 0.646161 0.561995
C72   C     C_R   0.467157 0.176352 0.357464 0.562789
C73   C     C_R   0.027478 0.674175 0.646161 0.561999
C74   C     C_R   0.967156 0.676352 0.357464 0.562790
C75   C     C_R   0.739578 0.365737 0.646528 0.555252
C76   C     C_R   0.261277 0.361102 0.354613 0.567336
C77   C     C_R   0.239578 0.865737 0.646528 0.555253
C78   C     C_R   0.805269 0.972152 0.961899 0.157750
C79   C     C_R   0.761277 0.861103 0.354613 0.567333
C80   C     C_2   0.500283 0.165423 0.922731 -0.112418
C81   C     C_2   0.503510 0.167459 0.079432 -0.102797
C82   C     C_2   0.000283 0.665423 0.922731 -0.112418
C83   C     C_2   0.003509 0.667459 0.079432 -0.102797
C84   C     C_2   0.504506 0.062199 0.041512 0.128263
C85   C     C_2   0.506835 0.061390 0.962191 0.131214
C86   C     C_2   0.004506 0.562199 0.041512 0.128264
C87   C     C_2   0.006835 0.561390 0.962191 0.131214
C88   C     C_R   0.688574 0.458431 0.964548 0.148321
C89   C     C_R   0.757411 0.425958 0.072149 -0.007032
C90   C     C_R   0.306197 0.467620 0.036315 0.156290
C91   C     C_R   0.188574 0.958430 0.964548 0.148321
C92   C     C_R   0.806198 0.967619 0.036314 0.156289
Cr1   Cr    Cr6+3 0.769270 0.163730 0.750710 1.105087
Cr2   Cr    Cr6+3 0.385840 0.322500 0.252290 1.169280
Cr3   Cr    Cr6+3 0.114160 0.822500 0.747710 1.176060
Cr4   Cr    Cr6+3 0.885840 0.822500 0.252290 1.169285
Cr5   Cr    Cr6+3 0.230730 0.163730 0.249290 1.118880
Cr6   Cr    Cr6+3 0.269270 0.663730 0.750710 1.105095
Cr7   Cr    Cr6+3 0.730730 0.663730 0.249290 1.118871
Cr8   Cr    Cr6+3 0.612620 0.009790 0.748780 1.146939
Cr9   Cr    Cr6+3 0.387380 0.009790 0.251220 1.148360
Cr10  Cr    Cr6+3 0.112620 0.509790 0.748780 1.146936
Cr11  Cr    Cr6+3 0.887380 0.509790 0.251220 1.148363
Cr12  Cr    Cr6+3 0.614160 0.322500 0.747710 1.176064
H1    H     H_    0.886490 0.431860 0.458508 0.178822
H2    H     H_    0.484807 0.251244 0.946848 0.121287
H3    H     H_    0.014173 0.754377 0.054437 0.131630
H4    H     H_    0.984807 0.751244 0.946848 0.121288
H5    H     H_    0.864581 0.361592 0.054717 0.231755
H6    H     H_    0.160308 0.293253 0.932059 0.227245
H7    H     H_    0.364583 0.861598 0.054716 0.231754
H8    H     H_    0.660307 0.793254 0.932060 0.227247
H9    H     H_    0.854911 0.349810 0.929946 0.225075
H10   H     H_    0.165252 0.275532 0.056678 0.229031
H11   H     H_    0.354912 0.849816 0.929945 0.225074
H12   H     H_    0.172425 0.274831 0.571479 0.243844
H13   H     H_    0.665251 0.775534 0.056678 0.229032
H14   H     H_    0.440931 0.332217 0.579535 0.169746
H15   H     H_    0.426664 0.339979 0.452986 0.191379
H16   H     H_    0.940930 0.832217 0.579536 0.169743
H17   H     H_    0.926662 0.839978 0.452986 0.191386
H18   H     H_    0.864731 0.379666 0.581725 0.201032
H19   H     H_    0.175850 0.255204 0.445442 0.212142
H20   H     H_    0.364731 0.879669 0.581725 0.201036
H21   H     H_    0.675848 0.755208 0.445442 0.212141
H22   H     H_    0.527278 0.623296 0.516202 0.406748
H23   H     H_    0.386490 0.931863 0.458508 0.178816
H24   H     H_    0.427632 0.723774 0.450309 0.392024
H25   H     H_    0.027280 0.123409 0.516283 0.406792
H26   H     H_    0.927638 0.223763 0.450313 0.392033
H27   H     H_    0.672425 0.774833 0.571478 0.243860
H28   H     H_    0.671446 0.544075 0.432117 0.194725
H29   H     H_    0.324986 0.562655 0.563970 0.201075
H30   H     H_    0.171444 0.044069 0.432116 0.194755
H31   H     H_    0.824987 0.062655 0.563970 0.201069
H32   H     H_    0.514173 0.254377 0.054437 0.131629
O1    O     O_R   0.784320 0.290430 0.830510 -0.491934
O2    O     O_R   0.456080 0.282180 0.333210 -0.477082
O3    O     O_R   0.043920 0.782180 0.666790 -0.451454
O4    O     O_R   0.956080 0.782180 0.333210 -0.477075
O5    O     O_R   0.679040 0.374160 0.674430 -0.425019
O6    O     O_R   0.320960 0.374160 0.325570 -0.450709
O7    O     O_R   0.179040 0.874160 0.674430 -0.425017
O8    O     O_R   0.820960 0.874160 0.325570 -0.450715
O9    O     O_3   0.665350 0.165340 0.749070 -0.300239
O10   O     O_3   0.334650 0.165340 0.250930 -0.343849
O11   O     O_3   0.165350 0.665340 0.749070 -0.300239
O12   O     O_R   0.215680 0.290430 0.169490 -0.490161
O13   O     O_3   0.834650 0.665340 0.250930 -0.343849
O14   O     O_R   0.762640 0.040960 0.825200 -0.464602
O15   O     O_R   0.237360 0.040960 0.174800 -0.462337
O16   O     O_R   0.262640 0.540960 0.825200 -0.464602
O17   O     O_R   0.737360 0.540960 0.174800 -0.462337
O18   O     O_R   0.667400 0.923970 0.829950 -0.482637
O19   O     O_R   0.332600 0.923970 0.170050 -0.479050
O20   O     O_R   0.167400 0.423970 0.829950 -0.482637
O21   O     O_R   0.832600 0.423970 0.170050 -0.479051
O22   O     O_R   0.553960 0.081340 0.821780 -0.458686
O23   O     O_R   0.284320 0.790430 0.830510 -0.491933
O24   O     O_R   0.446040 0.081340 0.178220 -0.457946
O25   O     O_R   0.053960 0.581340 0.821780 -0.458686
O26   O     O_R   0.946040 0.581340 0.178220 -0.457946
O27   O     O_R   0.543180 0.283240 0.826740 -0.470245
O28   O     O_R   0.456820 0.283240 0.173260 -0.461742
O29   O     O_R   0.043180 0.783240 0.826740 -0.470244
O30   O     O_R   0.956820 0.783240 0.173260 -0.461741
O31   O     O_R   0.678360 0.375140 0.822710 -0.462381
O32   O     O_R   0.321640 0.375140 0.177290 -0.453291
O33   O     O_R   0.178360 0.875140 0.822710 -0.462380
O34   O     O_R   0.715680 0.790430 0.169490 -0.490161
O35   O     O_R   0.821640 0.875140 0.177290 -0.453292
O36   O     O_R   0.785050 0.289380 0.670560 -0.517135
O37   O     O_R   0.214950 0.289380 0.329440 -0.507331
O38   O     O_R   0.285050 0.789380 0.670560 -0.517131
O39   O     O_R   0.714950 0.789380 0.329440 -0.507335
O40   O     O_R   0.763320 0.039990 0.676930 -0.510225
O41   O     O_R   0.236680 0.039990 0.323070 -0.494831
O42   O     O_R   0.263320 0.539990 0.676930 -0.510224
O43   O     O_R   0.736680 0.539990 0.323070 -0.494832
O44   O     O_R   0.668130 0.922920 0.670000 -0.458569
O45   O     O_R   0.554640 0.080370 0.673500 -0.467880
O46   O     O_R   0.331870 0.922920 0.330000 -0.428059
O47   O     O_R   0.168130 0.422920 0.670000 -0.458567
O48   O     O_R   0.831870 0.422920 0.330000 -0.428055
O49   O     O_2   0.572347 0.416054 0.560555 -0.276928
O50   O     O_2   0.615109 0.578279 0.640145 -0.245917
O51   O     O_3   0.578758 0.634101 0.511157 -0.528614
O52   O     O_2   0.410506 0.527146 0.379276 -0.258821
O53   O     O_2   0.305926 0.656979 0.364197 -0.216627
O54   O     O_3   0.386102 0.690008 0.474835 -0.554640
O55   O     O_2   0.072346 0.916051 0.560558 -0.276864
O56   O     O_R   0.445360 0.080370 0.326500 -0.492612
O57   O     O_2   0.115111 0.078284 0.640143 -0.245992
O58   O     O_3   0.078755 0.134089 0.511153 -0.528655
O59   O     O_2   0.910507 0.027144 0.379277 -0.258778
O60   O     O_2   0.805928 0.156978 0.364196 -0.216629
O61   O     O_3   0.886103 0.190008 0.474835 -0.554650
O62   O     O_R   0.054640 0.580370 0.673500 -0.467872
O63   O     O_R   0.945360 0.580370 0.326500 -0.492614
O64   O     O_R   0.543920 0.282180 0.666790 -0.451447
S1    S     S_3+6 0.615363 0.529461 0.565593 0.010246
S2    S     S_3+6 0.351030 0.589731 0.417303 0.028898
S3    S     S_3+6 0.115363 0.029458 0.565592 0.010230
S4    S     S_3+6 0.851031 0.089731 0.417303 0.028927

loop_
_geom_bond_atom_site_label_1
_geom_bond_atom_site_label_2
_ccdc_geom_bond_type
C58   C75   S    
C57   C61   A    
C13   H13   S    
C75   O36   A    
Cr11  O63   S    
Cr6   O38   S    
C43   C83   S    
C20   C26   A    
C42   C82   S    
C60   C77   S    
C63   O12   A    
Cr7   O17   S    
Cr9   O56   S    
C9    H9    S    
Cr4   O35   S    
C14   C88   A    
Cr10  O20   S    
Cr2   O10   S    
C29   C30   A    
O54   S2    S    
C82   H4    S    
O59   S4    D    
C78   C92   A    
C54   S2    S    
C42   O29   A    
C53   S1    S    
C48   C52   A    
O50   S1    D    
C7    H7    S    
C20   C21   A    
Cr12  O27   S    
Br12  C88   S    
C1    O14   A    
C55   C60   A    
C18   C19   A    
Br2   C56   S    
C69   O42   A    
C73   O3    A    
C51   C55   A    
C38   C47   A    
C18   H14   S    
Cr1   O40   S    
C82   C87   D    
C13   C17   A    
Cr3   O29   S    
C1    C4    S    
C55   S3    S    
C63   O32   A    
C76   O6    A    
C62   O31   A    
C26   C30   A    
C4    C78   A    
C23   O16   A    
C77   O7    A    
Cr3   O7    S    
C8    C13   A    
C5    C9    A    
C36   C44   A    
C12   O15   A    
Cr5   O10   S    
C69   O47   A    
C4    C8    A    
C16   C91   A    
C34   C89   S    
C64   O33   A    
Cr11  O26   S    
C7    C11   A    
Cr7   O13   S    
Cr1   O1    S    
Cr11  O13   S    
C66   O44   A    
Cr2   O6    S    
C79   O39   A    
Cr7   O39   S    
C25   C74   S    
Br5   C27   S    
Cr2   O32   S    
C10   C15   A    
Br6   C28   S    
C80   C85   D    
C51   H30   S    
C32   C59   A    
C17   C92   A    
C72   O56   A    
C3    C67   A    
Cr10  O47   S    
C20   H16   S    
Br1   C84   S    
C74   O63   A    
O61   S4    S    
H24   O54   S    
C35   H21   S    
Cr1   O36   S    
C2    C56   A    
C32   C37   A    
O53   S2    D    
C46   C69   S    
C47   C51   A    
Cr10  O11   S    
Cr3   O33   S    
O51   S1    S    
Cr11  O48   S    
O57   S3    D    
Cr8   O9    S    
Br10  C86   S    
C19   C22   A    
Cr3   O11   S    
C64   O23   A    
C50   H29   S    
Cr1   O14   S    
C19   H15   S    
Cr7   O34   S    
C46   C50   A    
C1    O18   A    
Cr4   O30   S    
O60   S4    D    
C68   O46   A    
C52   C57   A    
C77   O38   A    
C61   C79   S    
O58   S3    S    
C79   O8    A    
C57   S4    S    
C40   O22   A    
C72   O2    A    
Br15  C92   S    
C43   O30   A    
C3    C7    A    
C2    C23   S    
C35   C61   A    
C23   O20   A    
Cr2   O2    S    
C70   O43   A    
C16   C64   S    
C41   O24   A    
C36   H1    S    
Cr9   O19   S    
C12   O19   A    
C39   H27   S    
Cr2   O28   S    
C68   O41   A    
C71   O64   A    
C41   C81   S    
C39   C48   A    
C45   C88   A    
C33   C60   A    
Cr8   O18   S    
C53   C58   A    
Cr10  O62   S    
C37   H12   S    
C49   H28   S    
Cr6   O16   S    
C3    C12   S    
C48   C66   S    
C59   C76   S    
Br4   C78   S    
Cr12  O9    S    
Cr9   O24   S    
Br14  C91   S    
C56   C90   A    
C44   C49   A    
C34   O21   A    
C27   C28   A    
Br3   C67   S    
Cr12  O5    S    
C15   C90   A    
C18   C24   A    
Cr3   O3    S    
Br16  C45   S    
C71   O45   A    
C11   H11   S    
C74   O4    A    
Br7   C29   S    
C65   O34   A    
C81   C84   D    
C45   C89   A    
C76   O37   A    
C24   C71   S    
C83   H3    S    
H25   O58   S    
C9    C14   A    
C40   C80   S    
Cr7   O43   S    
Cr6   O23   S    
C44   C70   S    
Cr6   O42   S    
C32   H19   S    
C66   O40   A    
C11   C16   A    
C2    C6    A    
Cr5   O41   S    
C43   O26   A    
C22   C72   S    
C31   C58   A    
Br13  C90   S    
C10   H10   S    
Cr5   O15   S    
C41   O28   A    
Br11  C87   S    
C62   O1    A    
C15   C63   S    
C31   C36   A    
Cr8   O22   S    
Cr9   O10   S    
Cr12  O64   S    
Cr5   O37   S    
O55   S3    D    
C80   H2    S    
C47   C68   S    
C26   C73   S    
H22   O51   S    
O49   S1    D    
C22   C27   A    
C52   H31   S    
Cr1   O9    S    
Cr11  O21   S    
Cr5   O12   S    
Cr8   O45   S    
Cr6   O11   S    
C50   C54   A    
C14   C62   S    
C49   C53   A    
Cr4   O13   S    
C31   H18   S    
C84   C85   S    
C81   H32   S    
C67   C91   A    
C38   H23   S    
C42   O25   A    
C35   C39   A    
C21   C25   A    
C86   C87   S    
Cr12  O31   S    
Br8   C30   S    
C75   O5    A    
H26   O61   S    
C6    H6    S    
C34   O17   A    
Cr8   O44   S    
Cr10  O25   S    
Cr4   O8    S    
C24   C28   A    
C83   C86   D    
C5    H5    S    
C37   C46   A    
Br9   C85   S    
C6    C10   A    
C33   H20   S    
O52   S2    D    
C54   C59   A    
C8    H8    S    
C25   C29   A    
C21   H17   S    
C17   C65   S    
C65   O35   A    
C5    C89   A    
Cr9   O46   S    
C33   C38   A    
Cr4   O4    S    
C70   O48   A    
C73   O62   A    
C40   O27   A    
