data_mof_unit_27502.cif
_audit_creation_date              2012-12-10T17:22:13-0500
_audit_creation_method            fapswitch 2.2
_symmetry_space_group_name_H-M    P1
_symmetry_Int_Tables_number       1
_space_group_crystal_system       triclinic
_cell_length_a                    15.87529
_cell_length_b                    10.789399
_cell_length_c                    9.666856
_cell_angle_alpha                 89.793832
_cell_angle_beta                  89.953663
_cell_angle_gamma                 94.288042
_cell_volume                      1651.13926918

loop_
_atom_site_label
_atom_site_type_symbol
_atom_type_description
_atom_site_fract_x
_atom_site_fract_y
_atom_site_fract_z
_atom_type_partial_charge
C1    C     C_R   0.496710 0.262702 0.500314 0.903754
C2    C     C_R   0.265840 0.025818 0.600274 0.253023
C3    C     C_R   0.272443 0.896392 0.609805 0.333777
C4    C     C_R   0.340487 0.500811 0.500006 0.837901
C5    C     C_R   0.347455 0.847072 0.572973 -0.214734
C6    C     C_R   0.419799 0.923403 0.535801 -0.153105
C7    C     C_R   0.416368 0.054131 0.535492 -0.003273
C8    C     C_R   0.491552 0.128321 0.501235 -0.076518
C9    C     C_R   0.566431 0.074529 0.470605 -0.333320
C10   C     C_R   0.569820 0.946159 0.472487 0.445707
C11   C     C_R   0.496202 0.871040 0.501315 -0.061948
C12   C     C_3   0.944348 0.394026 0.617387 0.402668
C13   C     C_R   0.639097 0.622733 0.139468 0.421315
C14   C     C_R   0.716654 0.632752 0.070453 -0.361102
C15   C     C_R   0.717278 0.636716 0.927804 0.124460
C16   C     C_R   0.500753 0.737262 0.500025 0.892933
C17   C     C_R   0.638963 0.624992 0.858795 0.391913
C18   C     C_R   0.567505 0.561024 0.925126 0.061528
C19   C     C_R   0.567311 0.561102 0.073914 0.019081
C20   C     C_R   0.437282 0.438047 0.074457 0.503481
C21   C     C_R   0.437435 0.439458 0.926126 -0.157320
C22   C     C_R   0.659389 0.499243 0.499859 0.850155
C23   C     C_3   0.916278 0.489108 0.503448 0.111903
C24   C     C_3   0.044893 0.400969 0.617794 0.224030
C25   C     C_3   0.044364 0.440364 0.355259 0.095346
C26   C     C_3   0.947032 0.452705 0.357131 -0.462509
C27   C     C_1   0.748706 0.495876 0.499633 -0.207308
C28   C     C_3   0.081978 0.485695 0.498191 0.124207
C29   C     C_3   0.889226 0.174620 0.685384 -0.634823
C30   C     C_3   0.950247 0.404949 0.882354 -0.726040
C31   C     C_3   0.837065 0.786579 0.881896 -0.678446
C32   C     C_3   0.147919 0.289138 0.284432 -0.547734
C33   C     C_3   0.958171 0.620976 0.536233 0.188700
C34   C     C_3   0.055279 0.619229 0.525196 -0.490119
C35   C     C_1   0.823994 0.492580 0.500520 -0.045033
C36   C     C_1   0.174746 0.492429 0.499020 0.018478
C37   C     C_1   0.250573 0.497706 0.499869 -0.149120
C38   C     C_R   0.338352 0.105221 0.567956 0.347169
Cu1   Cu    Cu3+1 0.499990 0.499990 0.640660 1.012073
Cu2   Cu    Cu3+1 0.500010 0.500010 0.359340 1.053195
H1    H     H_    0.070387 0.446127 0.713973 0.084366
H2    H     H_    0.080116 0.682734 0.441081 0.240716
H3    H     H_    0.942462 0.647049 0.644290 0.126392
H4    H     H_    0.932956 0.231819 0.492017 0.287991
H5    H     H_    0.857911 0.090372 0.636372 0.209829
H6    H     H_    0.844653 0.206886 0.763458 0.236020
H7    H     H_    0.947849 0.147600 0.735697 0.231718
H8    H     H_    0.844964 0.427201 0.757628 0.270685
H9    H     H_    0.902295 0.396915 0.966369 0.232733
H10   H     H_    0.996822 0.482906 0.909398 0.231807
H11   H     H_    0.982017 0.317070 0.878544 0.223540
H12   H     H_    0.623177 0.133504 0.447860 0.126870
H13   H     H_    0.877691 0.740537 0.483558 0.324954
H14   H     H_    0.279955 0.254821 0.606468 0.364358
H15   H     H_    0.143187 0.015468 0.591000 0.346727
H16   H     H_    0.170612 0.860259 0.718402 0.327458
H17   H     H_    0.690717 0.958029 0.434079 0.314935
H18   H     H_    0.333250 0.330987 0.079849 0.289023
H19   H     H_    0.084177 0.252413 0.704042 0.333627
H20   H     H_    0.687122 0.730396 0.284782 0.335575
H21   H     H_    0.792295 0.643705 0.751100 0.248347
H22   H     H_    0.895172 0.799199 0.817841 0.217708
H23   H     H_    0.348718 0.747350 0.578068 0.163678
H24   H     H_    0.856222 0.794958 0.991982 0.243486
H25   H     H_    0.795350 0.861370 0.855352 0.219124
H26   H     H_    0.677938 0.756819 0.728276 0.324136
H27   H     H_    0.020182 0.271310 0.249972 0.237567
H28   H     H_    0.177869 0.365910 0.220173 0.200167
H29   H     H_    0.148268 0.201542 0.224352 0.199603
H30   H     H_    0.185477 0.275662 0.379069 0.286062
H31   H     H_    0.774241 0.658504 0.126701 0.179877
H32   H     H_    0.386648 0.389479 0.870208 0.147965
H33   H     H_    0.071622 0.503343 0.272332 0.128474
H34   H     H_    0.910667 0.366874 0.321110 0.156141
H35   H     H_    0.931795 0.525115 0.280643 0.211268
H36   H     H_    0.083663 0.655337 0.623549 0.196180
N1    N     N_R   0.500800 0.501210 0.147910 -0.185781
N2    N     N_R   0.500820 0.501290 0.852040 -0.181528
N3    N     N_2   0.908312 0.268690 0.580061 -0.401540
N4    N     N_2   0.909996 0.431412 0.751642 -0.449978
N5    N     N_2   0.794521 0.665611 0.854800 -0.416119
N6    N     N_2   0.061904 0.312498 0.320879 -0.378871
O1    O     O_R   0.499990 0.319640 0.618810 -0.569132
O2    O     O_3   0.333280 0.232247 0.563553 -0.747114
O3    O     O_3   0.189483 0.077107 0.618426 -0.743933
O4    O     O_3   0.207671 0.814962 0.657118 -0.760734
O5    O     O_3   0.644924 0.892149 0.451495 -0.749924
O6    O     O_3   0.374023 0.371238 0.146485 -0.696260
O7    O     O_3   0.075391 0.282144 0.608249 -0.676770
O8    O     O_3   0.630744 0.694626 0.254545 -0.645175
O9    O     O_3   0.628232 0.697439 0.744090 -0.676563
O10   O     O_R   0.500000 0.319660 0.381240 -0.552011
O11   O     O_R   0.379430 0.499990 0.618840 -0.578807
O12   O     O_R   0.379440 0.500020 0.381260 -0.523145
O13   O     O_R   0.500000 0.680340 0.618760 -0.526219
O14   O     O_R   0.500010 0.680360 0.381190 -0.523290
O15   O     O_R   0.620560 0.499980 0.618740 -0.554917
O16   O     O_R   0.620570 0.500010 0.381160 -0.556423
O17   O     O_3   0.930320 0.710791 0.444229 -0.719211

loop_
_geom_bond_atom_site_label_1
_geom_bond_atom_site_label_2
_ccdc_geom_bond_type
C30   H11   S    
C22   O16   A    
C13   O8    S    
C1    C8    S    
C14   H31   S    
C17   O9    S    
C24   O7    S    
H14   O2    S    
C7    C8    A    
C15   N5    S    
H13   O17   S    
C25   C28   S    
C12   C23   S    
C20   N1    A    
C29   H7    S    
C36   C37   T    
C4    C37   S    
Cu2   O16   S    
C5    C6    A    
Cu1   O15   S    
C12   N3    S    
C12   N4    S    
C5    H23   S    
C2    O3    S    
C31   H25   S    
C18   C19   A    
H19   O7    S    
C23   C26   S    
C19   N1    A    
Cu1   O11   S    
C8    C9    A    
C23   C33   S    
C34   H2    S    
C21   N2    A    
C9    C10   A    
C32   H28   S    
C30   N4    S    
C30   H10   S    
C28   C34   S    
C22   O15   A    
C13   C14   A    
C3    O4    S    
C24   H1    S    
C31   H22   S    
C9    H12   S    
Cu2   O14   S    
C26   H35   S    
C6    C7    A    
C10   O5    S    
C16   O14   A    
C13   C19   A    
C21   H32   S    
C33   H3    S    
Cu1   N2    S    
C6    C11   A    
C32   H30   S    
C27   C35   T    
C25   C26   S    
H17   O5    S    
C29   H5    S    
C33   O17   S    
H15   O3    S    
C11   C16   S    
C2    C38   A    
H16   O4    S    
C29   N3    S    
C18   N2    A    
C17   C18   A    
Cu2   O10   S    
Cu1   O13   S    
C32   H29   S    
C4    O12   A    
C30   H9    S    
C1    O10   A    
C23   C35   S    
C22   C27   S    
C25   N6    S    
Cu1   Cu2   S    
C15   C17   A    
C16   O13   A    
C38   O2    S    
C14   C15   A    
C31   H24   S    
H4    N3    S    
C24   C28   S    
Cu2   O12   S    
C3    C5    A    
H18   O6    S    
H26   O9    S    
H20   O8    S    
C1    O1    A    
C32   N6    S    
C12   C24   S    
C31   N5    S    
C29   H6    S    
H8    N4    S    
C2    C3    A    
Cu1   O1    S    
H21   N5    S    
C20   O6    S    
C26   H34   S    
C7    C38   A    
C33   C34   S    
C25   H33   S    
C10   C11   A    
C4    O11   A    
C20   C21   A    
C28   C36   S    
H27   N6    S    
Cu2   N1    S    
C34   H36   S    
