data_mof_unit_60725.cif
_audit_creation_date              2012-12-10T16:48:10-0500
_audit_creation_method            fapswitch 2.2
_symmetry_space_group_name_H-M    P1
_symmetry_Int_Tables_number       1
_space_group_crystal_system       triclinic
_cell_length_a                    18.833894
_cell_length_b                    18.71455
_cell_length_c                    32.734591
_cell_angle_alpha                 90.045431
_cell_angle_beta                  90.212049
_cell_angle_gamma                 89.272407
_cell_volume                      11536.8784219

loop_
_atom_site_label
_atom_site_type_symbol
_atom_type_description
_atom_site_fract_x
_atom_site_fract_y
_atom_site_fract_z
_atom_type_partial_charge
C1    C     C_1   0.000080 0.500018 0.731165 -0.002621
C2    C     C_1   0.999839 0.499947 0.350832 -0.011434
C3    C     C_3   0.700523 0.650169 0.422813 -0.277184
C4    C     C_3   0.673965 0.597899 0.390563 -0.477796
C5    C     C_3   0.368694 0.739098 0.558366 0.050442
C6    C     C_3   0.425000 0.701809 0.530609 -0.260473
C7    C     C_3   0.480896 0.661319 0.555782 -0.502818
C8    C     C_3   0.790464 0.099320 0.003334 0.026666
C9    C     C_3   0.800543 0.102983 0.049934 -0.236663
C10   C     C_3   0.817295 0.029567 0.067948 -0.488401
C11   C     C_3   0.143196 0.220617 0.045314 0.050191
C12   C     C_3   0.101642 0.229800 0.085137 -0.256711
C13   C     C_1   0.999718 0.500020 0.850885 -0.004020
C14   C     C_3   0.040188 0.177541 0.087383 -0.497158
C15   C     C_3   0.221180 0.920027 0.982371 0.013350
C16   C     C_3   0.196898 0.942755 0.025380 -0.245349
C17   C     C_3   0.181922 0.022426 0.028451 -0.483409
C18   C     C_3   0.823211 0.732959 0.070263 0.046878
C19   C     C_3   0.841581 0.678559 0.103791 -0.258800
C20   C     C_3   0.904338 0.703026 0.129629 -0.465892
C21   C     C_3   0.793583 0.893594 0.982808 -0.016375
C22   C     C_3   0.835253 0.864185 0.946283 -0.279883
C23   C     C_3   0.876549 0.923065 0.925063 -0.483144
C24   C     C_1   0.499835 0.999965 0.850833 -0.012264
C25   C     C_3   0.123059 0.772309 0.049174 0.051818
C26   C     C_3   0.071223 0.800005 0.015486 -0.266228
C27   C     C_3   0.009233 0.841903 0.034187 -0.495217
C28   C     C_3   0.242354 0.120951 0.944592 -0.022630
C29   C     C_3   0.257785 0.164414 0.905959 -0.270045
C30   C     C_3   0.259365 0.116694 0.868157 -0.473001
C31   C     C_3   0.766257 0.303099 0.075257 -0.012703
C32   C     C_3   0.816118 0.345186 0.103246 -0.242621
C33   C     C_3   0.877150 0.298809 0.119631 -0.377806
C34   C     C_1   0.499931 0.000014 0.268803 -0.002779
C35   C     C_1   0.999549 0.500016 0.268778 -0.007333
C36   C     C_1   0.999920 0.500022 0.768803 -0.002630
C37   C     C_1   0.499776 0.000031 0.768779 -0.007384
C38   C     C_1   0.000281 0.500006 0.649083 -0.006278
C39   C     C_1   0.499926 0.000070 0.649111 -0.025615
C40   C     C_1   0.500288 0.000012 0.149083 -0.006559
C41   C     C_1   0.499807 0.000058 0.731153 -0.009830
C42   C     C_1   0.999600 0.500076 0.149111 -0.023575
C43   C     C_R   0.499985 0.000025 0.603942 0.486079
C44   C     C_R   0.000110 0.500000 0.603877 0.496796
C45   C     C_R   0.999842 0.500027 0.103942 0.484367
C46   C     C_R   0.500111 0.000005 0.103877 0.495525
C47   C     C_R   0.499890 0.000002 0.396091 0.487340
C48   C     C_R   0.999980 0.499977 0.396018 0.475877
C49   C     C_R   0.999890 0.500011 0.896091 0.485433
C50   C     C_R   0.499939 0.999982 0.896018 0.475878
C51   C     C_R   0.359858 0.138242 0.501052 0.522318
C52   C     C_1   0.500092 0.000016 0.231165 -0.002954
C53   C     C_R   0.140605 0.636790 0.498514 0.530447
C54   C     C_R   0.640099 0.861763 0.501106 0.520939
C55   C     C_R   0.859452 0.363210 0.498441 0.530230
C56   C     C_R   0.361603 0.860137 0.500385 0.523014
C57   C     C_R   0.139297 0.361285 0.499339 0.539818
C58   C     C_R   0.638303 0.139920 0.500400 0.521879
C59   C     C_R   0.860770 0.638685 0.499287 0.538895
C60   C     C_R   0.860193 0.638263 0.000738 0.526533
C61   C     C_R   0.640375 0.137832 0.998923 0.526093
C62   C     C_R   0.139274 0.361124 0.000765 0.533874
C63   C     C_1   0.999471 0.500056 0.231152 -0.009077
C64   C     C_R   0.359890 0.862805 0.998523 0.533265
C65   C     C_R   0.860258 0.361729 0.000760 0.548400
C66   C     C_R   0.639763 0.861766 0.999204 0.541228
C67   C     C_R   0.138040 0.640220 0.000067 0.510339
C68   C     C_R   0.361619 0.139165 0.999725 0.542494
C69   C     C_1   0.499767 0.000010 0.313246 -0.035989
C70   C     C_1   0.999700 0.499968 0.313203 -0.042617
C71   C     C_1   0.999761 0.500024 0.813245 -0.036462
C72   C     C_1   0.499781 0.999992 0.813204 -0.042798
C73   C     C_2   0.192305 0.752485 0.483884 0.117364
C74   C     C_1   0.000239 0.500012 0.686722 -0.037658
C75   C     C_2   0.747969 0.803694 0.475124 0.108755
C76   C     C_2   0.807688 0.247304 0.484180 0.117179
C77   C     C_2   0.251935 0.196420 0.474919 0.107782
C78   C     C_2   0.189878 0.244485 0.480418 0.114414
C79   C     C_2   0.747103 0.198455 0.477247 0.111495
C80   C     C_2   0.810104 0.755657 0.480685 0.114485
C81   C     C_2   0.252846 0.801280 0.477008 0.111036
C82   C     C_2   0.685062 0.259223 0.990254 0.099798
C83   C     C_2   0.257524 0.311365 0.984800 0.108515
C84   C     C_2   0.308998 0.745982 0.987144 0.127638
C85   C     C_1   0.499868 0.000075 0.686732 -0.053278
C86   C     C_2   0.759289 0.702912 0.971543 0.103491
C87   C     C_2   0.695920 0.749806 0.975309 0.109869
C88   C     C_2   0.249118 0.697097 0.978262 0.118818
C89   C     C_2   0.315613 0.260210 0.993865 0.116978
C90   C     C_2   0.742855 0.311233 0.982666 0.098390
C91   C     C_2   0.203116 0.681801 0.491140 0.348442
C92   C     C_2   0.701444 0.812197 0.506204 0.331823
C93   C     C_2   0.796932 0.318113 0.490967 0.348476
C94   C     C_2   0.298519 0.187656 0.506116 0.331684
C95   C     C_2   0.199923 0.313141 0.491927 0.342588
C96   C     C_1   0.500250 0.000016 0.186723 -0.037963
C97   C     C_2   0.692701 0.196276 0.504224 0.334957
C98   C     C_2   0.800115 0.686845 0.491753 0.343277
C99   C     C_2   0.307159 0.803934 0.504231 0.335043
C100  C     C_2   0.700129 0.188550 0.994249 0.328551
C101  C     C_2   0.198347 0.310388 0.007890 0.327014
C102  C     C_2   0.298156 0.817514 0.989768 0.350714
C103  C     C_2   0.799251 0.687632 0.004902 0.332756
C104  C     C_2   0.701799 0.814880 0.992993 0.335779
C105  C     C_2   0.191636 0.697559 0.003131 0.320576
C106  C     C_2   0.303151 0.189419 0.992275 0.334841
C107  C     C_1   0.999478 0.500082 0.186732 -0.051272
C108  C     C_2   0.799961 0.314098 0.008053 0.345825
C109  C     C_3   0.283198 0.580482 0.496524 0.018037
C110  C     C_3   0.294838 0.566479 0.542621 -0.243360
C111  C     C_3   0.307575 0.487896 0.552480 -0.470369
C112  C     C_3   0.667265 0.761993 0.569573 0.039732
C113  C     C_3   0.653420 0.816409 0.603828 -0.249589
C114  C     C_3   0.588066 0.797825 0.628824 -0.468568
C115  C     C_3   0.716886 0.419535 0.495605 0.018010
C116  C     C_3   0.704913 0.434013 0.541585 -0.243412
C117  C     C_3   0.692148 0.512680 0.551207 -0.470017
C118  C     C_1   0.499721 0.000006 0.350885 -0.002899
C119  C     C_3   0.332986 0.238333 0.569416 0.040397
C120  C     C_3   0.347912 0.184565 0.603868 -0.249805
C121  C     C_3   0.413737 0.203927 0.628548 -0.468795
C122  C     C_3   0.283011 0.388144 0.464165 -0.024684
C123  C     C_3   0.300622 0.350053 0.423927 -0.277282
C124  C     C_3   0.327882 0.402456 0.392110 -0.477092
C125  C     C_3   0.631027 0.261994 0.557716 0.050196
C126  C     C_3   0.574735 0.298545 0.529437 -0.260858
C127  C     C_3   0.518682 0.339460 0.554071 -0.502440
C128  C     C_3   0.717443 0.611875 0.463125 -0.024401
H1    H     H_    0.120557 0.825029 0.504796 0.228074
H2    H     H_    0.115485 0.200426 0.443813 0.220952
H3    H     H_    0.002242 0.187287 0.061860 0.159880
H4    H     H_    0.011611 0.184930 0.116722 0.143686
H5    H     H_    0.060350 0.121588 0.085739 0.141502
H6    H     H_    0.177884 0.934765 0.960711 0.127171
H7    H     H_    0.267661 0.950350 0.971410 0.117158
H8    H     H_    0.146857 0.916581 0.032878 0.155060
H9    H     H_    0.236220 0.926697 0.049008 0.203149
H10   H     H_    0.231269 0.052114 0.023746 0.219443
H11   H     H_    0.161480 0.035224 0.059413 0.130045
H12   H     H_    0.141498 0.039302 0.005505 0.138767
H13   H     H_    0.793186 0.117241 0.445571 0.225399
H14   H     H_    0.799318 0.780819 0.085198 0.170328
H15   H     H_    0.871356 0.752779 0.054521 0.148568
H16   H     H_    0.794640 0.671622 0.123818 0.155977
H17   H     H_    0.854680 0.625696 0.090179 0.187740
H18   H     H_    0.952528 0.707712 0.110391 0.164154
H19   H     H_    0.915346 0.663249 0.154074 0.155707
H20   H     H_    0.892190 0.755528 0.144014 0.135289
H21   H     H_    0.830381 0.924825 0.002146 0.147643
H22   H     H_    0.751480 0.931530 0.972058 0.112008
H23   H     H_    0.873031 0.821819 0.956725 0.174136
H24   H     H_    0.756855 0.182870 0.416407 0.227099
H25   H     H_    0.797678 0.840626 0.923988 0.147356
H26   H     H_    0.839730 0.965983 0.914312 0.150555
H27   H     H_    0.905062 0.900409 0.898300 0.153227
H28   H     H_    0.916154 0.946280 0.946348 0.138559
H29   H     H_    0.133722 0.817228 0.070350 0.132611
H30   H     H_    0.098307 0.732585 0.069628 0.160701
H31   H     H_    0.098732 0.834318 0.993292 0.192357
H32   H     H_    0.048387 0.756130 0.997266 0.169831
H33   H     H_    0.981856 0.808590 0.057114 0.144374
H34   H     H_    0.970687 0.857363 0.009913 0.147413
H35   H     H_    0.885260 0.828278 0.493922 0.234648
H36   H     H_    0.028129 0.891202 0.049379 0.134530
H37   H     H_    0.190274 0.094676 0.940437 0.144728
H38   H     H_    0.281947 0.076883 0.948528 0.113378
H39   H     H_    0.216041 0.206382 0.902014 0.171520
H40   H     H_    0.310026 0.190878 0.908941 0.161623
H41   H     H_    0.301703 0.075134 0.871237 0.149964
H42   H     H_    0.270543 0.149529 0.840741 0.153223
H43   H     H_    0.207302 0.090427 0.863863 0.145625
H44   H     H_    0.741783 0.259840 0.093426 0.142842
H45   H     H_    0.721423 0.338623 0.065268 0.085962
H46   H     H_    0.884595 0.800397 0.444790 0.220914
H47   H     H_    0.837836 0.391611 0.086539 0.158800
H48   H     H_    0.785083 0.366425 0.129493 0.108864
H49   H     H_    0.856191 0.252272 0.136594 0.129072
H50   H     H_    0.910403 0.330866 0.140691 0.132923
H51   H     H_    0.911100 0.279389 0.094203 0.202949
H52   H     H_    0.206785 0.881982 0.444782 0.225551
H53   H     H_    0.243213 0.815938 0.416063 0.227897
H54   H     H_    0.611999 0.325324 0.015811 0.213897
H55   H     H_    0.598850 0.308757 0.965587 0.232162
H56   H     H_    0.307629 0.391927 0.956121 0.229614
H57   H     H_    0.110856 0.803259 0.454906 0.227654
H58   H     H_    0.275533 0.328188 0.924768 0.216462
H59   H     H_    0.372229 0.677798 0.019075 0.236019
H60   H     H_    0.395876 0.688278 0.969714 0.232896
H61   H     H_    0.737139 0.641773 0.922177 0.234596
H62   H     H_    0.780764 0.717726 0.911523 0.210445
H63   H     H_    0.618774 0.675859 0.972851 0.234776
H64   H     H_    0.634325 0.717779 0.928070 0.219726
H65   H     H_    0.303014 0.655006 0.929387 0.219111
H66   H     H_    0.215424 0.661773 0.923414 0.229108
H67   H     H_    0.379499 0.321757 0.028459 0.234609
H68   H     H_    0.781207 0.874002 0.432560 0.230250
H69   H     H_    0.403387 0.315537 0.978864 0.225569
H70   H     H_    0.691890 0.390799 0.952169 0.220093
H71   H     H_    0.728951 0.327043 0.922126 0.235517
H72   H     H_    0.332598 0.563490 0.480618 0.119018
H73   H     H_    0.241710 0.546643 0.482614 0.124063
H74   H     H_    0.342342 0.594261 0.553123 0.152543
H75   H     H_    0.250254 0.587450 0.561243 0.203733
H76   H     H_    0.261840 0.455904 0.542662 0.225513
H77   H     H_    0.314322 0.481250 0.585984 0.137460
H78   H     H_    0.356702 0.468109 0.537376 0.133291
H79   H     H_    0.739732 0.801948 0.413348 0.210988
H80   H     H_    0.685579 0.711325 0.584069 0.156830
H81   H     H_    0.618614 0.747177 0.552412 0.153490
H82   H     H_    0.700489 0.817540 0.624399 0.159223
H83   H     H_    0.646152 0.870902 0.590966 0.188773
H84   H     H_    0.539469 0.803620 0.609790 0.173024
H85   H     H_    0.583341 0.835068 0.655129 0.154491
H86   H     H_    0.592425 0.742298 0.640617 0.131977
H87   H     H_    0.667616 0.436394 0.479329 0.119032
H88   H     H_    0.758515 0.453205 0.481902 0.123517
H89   H     H_    0.657272 0.406427 0.551798 0.152700
H90   H     H_    0.879341 0.175125 0.505829 0.228182
H91   H     H_    0.749332 0.413162 0.560552 0.204217
H92   H     H_    0.738031 0.544522 0.541710 0.226332
H93   H     H_    0.685032 0.519605 0.584644 0.137442
H94   H     H_    0.643216 0.532400 0.535681 0.133545
H95   H     H_    0.314398 0.289051 0.583711 0.157577
H96   H     H_    0.381275 0.253290 0.552169 0.153212
H97   H     H_    0.301325 0.183494 0.624601 0.158479
H98   H     H_    0.355206 0.129907 0.591218 0.189740
H99   H     H_    0.461924 0.198076 0.609372 0.172519
H100  H     H_    0.419270 0.167154 0.655009 0.154172
H101  H     H_    0.889181 0.195948 0.455877 0.227547
H102  H     H_    0.409347 0.259632 0.640093 0.131765
H103  H     H_    0.330266 0.418980 0.473505 0.144524
H104  H     H_    0.239142 0.427658 0.459335 0.107852
H105  H     H_    0.341786 0.308049 0.429469 0.177530
H106  H     H_    0.252016 0.324676 0.411670 0.147233
H107  H     H_    0.287352 0.444788 0.385978 0.148945
H108  H     H_    0.339161 0.373531 0.363178 0.154032
H109  H     H_    0.377635 0.427589 0.402969 0.143220
H110  H     H_    0.645357 0.300573 0.582022 0.132350
H111  H     H_    0.609230 0.217232 0.575745 0.156106
H112  H     H_    0.218579 0.126388 0.432030 0.230600
H113  H     H_    0.599825 0.335771 0.507924 0.195611
H114  H     H_    0.546347 0.259896 0.510014 0.178383
H115  H     H_    0.492824 0.303325 0.576050 0.141859
H116  H     H_    0.477518 0.361819 0.533138 0.144955
H117  H     H_    0.542697 0.384179 0.571304 0.137793
H118  H     H_    0.669995 0.581070 0.471935 0.144647
H119  H     H_    0.761316 0.572300 0.458625 0.107479
H120  H     H_    0.659173 0.692056 0.428048 0.177708
H121  H     H_    0.749294 0.675727 0.411134 0.146954
H122  H     H_    0.714701 0.555700 0.384721 0.147880
H123  H     H_    0.260035 0.198550 0.413176 0.211338
H124  H     H_    0.663141 0.626977 0.361604 0.153181
H125  H     H_    0.624081 0.572581 0.400835 0.143624
H126  H     H_    0.354217 0.701044 0.582821 0.132355
H127  H     H_    0.390535 0.784217 0.576221 0.155975
H128  H     H_    0.399921 0.664162 0.509208 0.195869
H129  H     H_    0.453544 0.739921 0.511073 0.178928
H130  H     H_    0.506979 0.697942 0.577545 0.141911
H131  H     H_    0.521917 0.638178 0.535185 0.144789
H132  H     H_    0.456698 0.617210 0.573299 0.137932
H133  H     H_    0.842756 0.084636 0.989924 0.136303
H134  H     H_    0.114550 0.171771 0.492771 0.234662
H135  H     H_    0.754827 0.056044 0.993241 0.129323
H136  H     H_    0.845195 0.139189 0.057151 0.194402
H137  H     H_    0.752069 0.124848 0.064817 0.185800
H138  H     H_    0.773312 0.992186 0.061437 0.188857
H139  H     H_    0.823643 0.034220 0.101577 0.145475
H140  H     H_    0.867598 0.007921 0.055025 0.128524
H141  H     H_    0.167258 0.166379 0.045664 0.177471
H142  H     H_    0.106410 0.222671 0.018509 0.142516
H143  H     H_    0.137917 0.220254 0.111492 0.167591
H144  H     H_    0.080205 0.285141 0.087638 0.205856
N1    N     N_3   0.121711 0.782674 0.483957 -0.626981
N2    N     N_3   0.264275 0.358919 0.950674 -0.621367
N3    N     N_3   0.377871 0.715279 0.995686 -0.629946
N4    N     N_3   0.777912 0.675095 0.931991 -0.639505
N5    N     N_3   0.629222 0.725375 0.959554 -0.617303
N6    N     N_3   0.254960 0.647812 0.944568 -0.617793
N7    N     N_3   0.384885 0.286534 0.003834 -0.632430
N8    N     N_3   0.736853 0.358299 0.948190 -0.622808
N9    N     N_3   0.738365 0.839876 0.436740 -0.631738
N10   N     N_3   0.878265 0.217086 0.484764 -0.627467
N11   N     N_3   0.261440 0.160476 0.436462 -0.632339
N12   N     N_3   0.119869 0.216823 0.474227 -0.618290
N13   N     N_3   0.749365 0.151632 0.442459 -0.627363
N14   N     N_3   0.880100 0.783509 0.475076 -0.618544
N15   N     N_3   0.250635 0.847577 0.442023 -0.627624
N16   N     N_3   0.613248 0.285436 0.993448 -0.634551
O1    O     O_3   0.500000 0.000000 0.499990 -0.419822
O2    O     O_R   0.439860 1.000000 0.084000 -0.524621
O3    O     O_R   1.000000 0.560140 0.084000 -0.542245
O4    O     O_R   0.560140 1.000000 0.084000 -0.530147
O5    O     O_R   0.439920 0.000000 0.415980 -0.522066
O6    O     O_R   1.000000 0.560080 0.415980 -0.537181
O7    O     O_R   0.560080 0.000000 0.415980 -0.521477
O8    O     O_R   1.000000 0.439920 0.415980 -0.537506
O9    O     O_R   0.939920 0.500000 0.915980 -0.520704
O10   O     O_R   0.500000 0.060080 0.915980 -0.538305
O11   O     O_R   0.060080 0.500000 0.915980 -0.528333
O12   O     O_3   0.000000 0.500000 0.499990 -0.427715
O13   O     O_R   0.500000 0.939920 0.915980 -0.535855
O14   O     O_R   0.415460 0.144560 0.522020 -0.579778
O15   O     O_R   0.144560 0.584540 0.522020 -0.574174
O16   O     O_R   0.584540 0.855440 0.522020 -0.580264
O17   O     O_R   0.855440 0.415460 0.522020 -0.573445
O18   O     O_R   0.415460 0.855440 0.522020 -0.582335
O19   O     O_R   0.144560 0.415460 0.522020 -0.560902
O20   O     O_R   0.584540 0.144560 0.522020 -0.582712
O21   O     O_R   0.855440 0.584540 0.522020 -0.560681
O22   O     O_R   0.915460 0.644560 0.022020 -0.581106
O23   O     O_3   0.000000 0.500000 0.999990 -0.425317
O24   O     O_R   0.644560 0.084540 0.022020 -0.576640
O25   O     O_R   0.084540 0.355440 0.022020 -0.560973
O26   O     O_R   0.355440 0.915460 0.022020 -0.567828
O27   O     O_R   0.915460 0.355440 0.022020 -0.543482
O28   O     O_R   0.644560 0.915460 0.022020 -0.546954
O29   O     O_R   0.084540 0.644560 0.022020 -0.572652
O30   O     O_R   0.355440 0.084540 0.022020 -0.564113
O31   O     O_R   0.644640 0.915430 0.477970 -0.510793
O32   O     O_R   0.915430 0.355360 0.477970 -0.516478
O33   O     O_R   0.355360 0.084570 0.477970 -0.511141
O34   O     O_3   0.500000 0.000000 0.999990 -0.427932
O35   O     O_R   0.084570 0.644640 0.477970 -0.515296
O36   O     O_R   0.644640 0.084570 0.477970 -0.509461
O37   O     O_R   0.915430 0.644640 0.477970 -0.523768
O38   O     O_R   0.355360 0.915430 0.477970 -0.509841
O39   O     O_R   0.084570 0.355360 0.477970 -0.522834
O40   O     O_R   0.144640 0.415430 0.977970 -0.508510
O41   O     O_R   0.415430 0.855360 0.977970 -0.524941
O42   O     O_R   0.855360 0.584570 0.977970 -0.515766
O43   O     O_R   0.584570 0.144640 0.977970 -0.511638
O44   O     O_R   0.144640 0.584570 0.977970 -0.514830
O45   O     O_R   0.500000 0.939860 0.584000 -0.546563
O46   O     O_R   0.415430 0.144640 0.977970 -0.534909
O47   O     O_R   0.855360 0.415430 0.977970 -0.526760
O48   O     O_R   0.584570 0.855360 0.977970 -0.519241
O49   O     O_3   0.272977 0.654494 0.488329 -0.591017
O50   O     O_3   0.722930 0.786088 0.544512 -0.587320
O51   O     O_3   0.727096 0.345421 0.487671 -0.591231
O52   O     O_3   0.277215 0.213251 0.544489 -0.587144
O53   O     O_3   0.268572 0.338886 0.495878 -0.600367
O54   O     O_3   0.695920 0.242736 0.538075 -0.576255
O55   O     O_3   0.731470 0.660961 0.495099 -0.599673
O56   O     O_R   0.939860 0.500000 0.584000 -0.527333
O57   O     O_3   0.303876 0.758045 0.538285 -0.576435
O58   O     O_3   0.770594 0.166595 0.986968 -0.579608
O59   O     O_3   0.199307 0.270385 0.043910 -0.585301
O60   O     O_3   0.230320 0.844759 0.979937 -0.598221
O61   O     O_3   0.771730 0.704630 0.043375 -0.582839
O62   O     O_3   0.767518 0.837365 0.007218 -0.593021
O63   O     O_3   0.190626 0.748188 0.034952 -0.574004
O64   O     O_3   0.236882 0.165529 0.979505 -0.632812
O65   O     O_3   0.803743 0.270844 0.042438 -0.571474
O66   O     O_R   0.500000 0.060140 0.584000 -0.546316
O67   O     O_R   0.060140 0.500000 0.584000 -0.528546
O68   O     O_R   0.000000 0.439860 0.084000 -0.545651
Zn1   Zn    Zn3+2 0.414160 0.000000 0.468520 0.968276
Zn2   Zn    Zn3+2 0.085780 0.500000 0.531460 0.922658
Zn3   Zn    Zn3+2 0.500000 0.914220 0.531460 0.892851
Zn4   Zn    Zn3+2 0.914220 0.500000 0.531460 0.922561
Zn5   Zn    Zn3+2 0.000000 0.585780 0.031460 0.895169
Zn6   Zn    Zn3+2 0.585780 0.000000 0.031460 0.927120
Zn7   Zn    Zn3+2 0.000000 0.414220 0.031460 0.913487
Zn8   Zn    Zn3+2 0.414220 0.000000 0.031460 0.927680
Zn9   Zn    Zn3+2 0.000000 0.585840 0.468520 0.951061
Zn10  Zn    Zn3+2 0.585840 0.000000 0.468520 0.967509
Zn11  Zn    Zn3+2 0.000000 0.414160 0.468520 0.951025
Zn12  Zn    Zn3+2 0.914160 0.500000 0.968520 0.958379
Zn13  Zn    Zn3+2 0.500000 0.085840 0.968520 0.947360
Zn14  Zn    Zn3+2 0.085840 0.500000 0.968520 0.969040
Zn15  Zn    Zn3+2 0.500000 0.914160 0.968520 0.952380
Zn16  Zn    Zn3+2 0.500000 0.085780 0.531460 0.893050

loop_
_geom_bond_atom_site_label_1
_geom_bond_atom_site_label_2
_ccdc_geom_bond_type
C126  C127  S    
C23   H27   S    
O23   Zn12  S    
C7    H131  S    
C19   C20   S    
C122  O53   S    
C55   C93   S    
C14   H4    S    
C40   C46   S    
O1    Zn1   S    
C76   N10   S    
C113  H82   S    
O11   Zn14  S    
C60   O22   A    
C5    C6    S    
C31   H44   S    
H13   N13   S    
C57   O19   A    
C110  C111  S    
O7    Zn10  S    
C45   O68   A    
O39   Zn11  S    
C89   C106  D    
C76   C79   S    
C26   H32   S    
O43   Zn13  S    
O33   Zn1   S    
C83   N2    S    
C66   O48   A    
C65   C108  S    
C36   C71   S    
C28   H38   S    
C62   C101  S    
O12   Zn9   S    
C21   C22   S    
O34   Zn6   S    
C50   O13   A    
C73   C81   S    
O8    Zn11  S    
O20   Zn16  S    
C95   O53   S    
H67   N7    S    
C4    H124  S    
C59   O21   A    
O12   Zn2   S    
C67   C105  S    
C81   C99   D    
C9    H137  S    
O23   Zn7   S    
C42   C45   S    
C30   H41   S    
C54   C92   S    
O66   Zn16  S    
H71   N8    S    
C43   O66   A    
C119  H95   S    
C115  H87   S    
C61   O43   A    
C49   O9    A    
C34   C69   S    
C112  H80   S    
C104  O62   S    
H55   N16   S    
O25   Zn7   S    
C11   H142  S    
C20   H18   S    
C3    H120  S    
C39   C85   T    
C128  O55   S    
C48   O6    A    
C58   O36   A    
O1    Zn3   S    
C79   C97   D    
C84   C88   S    
C39   C43   S    
H58   N2    S    
C6    C7    S    
C125  O54   S    
C80   N14   S    
C121  H99   S    
C68   O30   A    
C110  H74   S    
C112  H81   S    
O31   Zn10  S    
C50   O10   A    
C119  O52   S    
O26   Zn8   S    
C5    O57   S    
C124  H108  S    
O12   Zn11  S    
C22   C23   S    
C35   C63   T    
C125  H110  S    
C99   O57   S    
C84   C102  D    
C114  H86   S    
C12   H143  S    
O12   Zn4   S    
C123  C124  S    
C64   C102  S    
C122  H103  S    
C10   H140  S    
O23   Zn5   S    
C6    H129  S    
C65   O47   A    
C1    C74   S    
C29   H40   S    
C18   H15   S    
O42   Zn12  S    
C8    O58   S    
C115  C116  S    
H46   N14   S    
C77   C94   D    
C49   O11   A    
O37   Zn9   S    
O35   Zn9   S    
O9    Zn12  S    
C126  H114  S    
O44   Zn14  S    
C20   H20   S    
C21   H21   S    
C43   O45   A    
C47   O7    A    
C9    C10   S    
C48   O8    A    
H64   N5    S    
H35   N14   S    
H62   N4    S    
C117  H94   S    
C60   O42   A    
C31   O65   S    
C24   C50   S    
C83   C89   S    
C32   H47   S    
O34   Zn15  S    
C33   H49   S    
C127  H115  S    
C3    C128  S    
C67   O44   A    
C25   C26   S    
C44   O56   A    
H112  N11   S    
C64   O41   A    
C29   C30   S    
H79   N9    S    
C123  H106  S    
O13   Zn15  S    
O10   Zn13  S    
C31   C32   S    
C45   O3    A    
C17   H11   S    
H123  N11   S    
C103  O61   S    
O6    Zn9   S    
C55   O17   A    
O24   Zn6   S    
H66   N6    S    
C44   O67   A    
C37   C72   S    
C61   C100  S    
C21   O62   S    
C3    C4    S    
C16   H8    S    
C120  H98   S    
C82   N16   S    
C120  C121  S    
C24   C72   T    
C38   C74   T    
C22   H23   S    
O68   Zn7   S    
C10   H138  S    
O22   Zn5   S    
C15   O60   S    
C105  O63   S    
C128  H119  S    
C3    H121  S    
C7    H130  S    
C112  O50   S    
C65   O27   A    
C94   O52   S    
H60   N3    S    
C66   O28   A    
H90   N10   S    
O2    Zn8   S    
C5    H127  S    
H52   N15   S    
C90   C108  D    
C27   H33   S    
C88   C105  D    
C60   C103  S    
C37   C41   T    
C47   O5    A    
H69   N7    S    
H70   N8    S    
C25   H30   S    
C59   C98   S    
C56   C99   S    
C8    H133  S    
C88   N6    S    
C1    C36   T    
C22   H25   S    
H59   N3    S    
C79   N13   S    
C67   O29   A    
C19   H16   S    
O34   Zn13  S    
C33   H51   S    
H1    N1    S    
C102  O60   S    
C55   O32   A    
O17   Zn4   S    
C62   O40   A    
C15   H6    S    
C77   C78   S    
C26   C27   S    
C59   O37   A    
C28   C29   S    
C25   O63   S    
C56   O38   A    
C51   O33   A    
C9    H136  S    
C69   C118  T    
C89   N7    S    
C90   N8    S    
C18   C19   S    
C30   H42   S    
C47   C118  S    
H134  N12   S    
C16   C17   S    
C81   N15   S    
O29   Zn5   S    
C42   C107  T    
C111  H77   S    
C28   O64   S    
O18   Zn3   S    
O15   Zn2   S    
C23   H28   S    
C11   H141  S    
C7    H132  S    
C40   C96   T    
O56   Zn4   S    
C14   H3    S    
H56   N2    S    
O4    Zn6   S    
C11   O59   S    
C53   O15   A    
H68   N9    S    
H24   N13   S    
C61   O24   A    
C13   C71   T    
C2    C48   S    
O16   Zn3   S    
C106  O64   S    
C110  H75   S    
C86   N4    S    
C93   O51   S    
C38   C44   S    
C66   C104  S    
C76   C93   D    
C78   C95   D    
C98   O55   S    
C6    H128  S    
C26   H31   S    
C46   O4    A    
C77   N11   S    
C8    H135  S    
C113  H83   S    
C28   H37   S    
C109  O49   S    
C14   H5    S    
C125  C126  S    
O45   Zn3   S    
O46   Zn13  S    
C54   O31   A    
C113  C114  S    
H65   N6    S    
O1    Zn16  S    
C80   C98   D    
C86   C87   S    
C64   O26   A    
C12   H144  S    
C111  H76   S    
C119  C120  S    
O23   Zn14  S    
C122  H104  S    
C101  O59   S    
C34   C52   T    
C82   C90   S    
C128  H118  S    
C32   C33   S    
C29   H39   S    
C109  H73   S    
C56   O18   A    
C109  C110  S    
O5    Zn1   S    
H101  N10   S    
C62   O25   A    
C119  H96   S    
C115  H88   S    
H53   N15   S    
H54   N16   S    
C87   C104  D    
O30   Zn8   S    
C84   N3    S    
C109  H72   S    
C116  H89   S    
C2    C70   T    
C117  H93   S    
C16   H9    S    
O38   Zn1   S    
C57   O39   A    
O19   Zn2   S    
C32   H48   S    
C19   H17   S    
C121  H100  S    
O47   Zn12  S    
C46   O2    A    
C15   H7    S    
O21   Zn4   S    
C15   C16   S    
O40   Zn14  S    
C116  C117  S    
C117  H92   S    
C87   N5    S    
C114  H84   S    
H63   N5    S    
H2    N12   S    
C123  H105  S    
C124  H107  S    
C35   C70   S    
C73   N1    S    
C8    C9    S    
C58   O20   A    
C17   H10   S    
C127  H117  S    
C75   C80   S    
C92   O50   S    
C125  H111  S    
C114  H85   S    
C58   C97   S    
C68   C106  S    
C4    H125  S    
C86   C103  D    
C112  C113  S    
C53   O35   A    
C10   H139  S    
C18   H14   S    
C73   C91   D    
C54   O16   A    
C18   O61   S    
O32   Zn11  S    
O36   Zn10  S    
C23   H26   S    
O27   Zn7   S    
C5    H126  S    
C53   C91   S    
O3    Zn5   S    
H57   N1    S    
C27   H36   S    
C111  H78   S    
O48   Zn15  S    
C115  O51   S    
C78   N12   S    
C126  H113  S    
C20   H19   S    
C100  O58   S    
C21   H22   S    
C116  H91   S    
C75   C92   D    
C13   C49   S    
C27   H34   S    
H61   N4    S    
C12   C14   S    
C25   H29   S    
C63   C107  S    
O28   Zn6   S    
C31   H45   S    
C121  H102  S    
C33   H50   S    
C82   C100  D    
C127  H116  S    
O34   Zn8   S    
C51   O14   A    
C11   C12   S    
C41   C85   S    
C75   N9    S    
O41   Zn15  S    
O14   Zn16  S    
C91   O49   S    
C4    H122  S    
C124  H109  S    
C52   C96   S    
C17   H12   S    
C97   O54   S    
C68   O46   A    
C30   H43   S    
C108  O65   S    
C51   C94   S    
O67   Zn2   S    
C57   C95   S    
C83   C101  D    
O1    Zn10  S    
C122  C123  S    
C120  H97   S    
