data_mof_unit_58091.cif
_audit_creation_date              2012-12-11T14:39:41-0500
_audit_creation_method            fapswitch 2.2
_symmetry_space_group_name_H-M    P1
_symmetry_Int_Tables_number       1
_space_group_crystal_system       triclinic
_cell_length_a                    7.226184
_cell_length_b                    14.089175
_cell_length_c                    16.277724
_cell_angle_alpha                 90.009557
_cell_angle_beta                  97.773341
_cell_angle_gamma                 89.996876
_cell_volume                      1642.02218441

loop_
_atom_site_label
_atom_site_type_symbol
_atom_type_description
_atom_site_fract_x
_atom_site_fract_y
_atom_site_fract_z
_atom_type_partial_charge
O1    O     O_R   0.525340 0.338340 0.164530 -0.550595
O2    O     O_R   0.474660 0.661660 0.835470 -0.550594
O3    O     O_R   0.974660 0.838340 0.835470 -0.550796
O4    O     O_R   0.025340 0.161660 0.164530 -0.550796
O5    O     O_R   0.253520 0.352000 0.336710 -0.538641
O6    O     O_R   0.746480 0.648000 0.663290 -0.538641
O7    O     O_R   0.246480 0.852000 0.663290 -0.538742
O8    O     O_R   0.753520 0.148000 0.336710 -0.538743
O9    O     O_R   0.083330 0.168380 0.337300 -0.535967
O10   O     O_R   0.916670 0.831620 0.662700 -0.535967
O11   O     O_R   0.416670 0.668380 0.662700 -0.535485
O12   O     O_R   0.583330 0.331620 0.337300 -0.535485
C1    C     C_R   0.432573 0.368446 0.363790 0.688349
C2    C     C_R   0.567427 0.631554 0.636210 0.688348
C3    C     C_R   0.067345 0.868656 0.636370 0.687437
C4    C     C_R   0.932655 0.131344 0.363630 0.687437
O13   O     O_R   0.195840 0.349670 0.165140 -0.537029
O14   O     O_R   0.804160 0.650330 0.834860 -0.537029
O15   O     O_R   0.304160 0.849670 0.834860 -0.537549
O16   O     O_R   0.695840 0.150330 0.165140 -0.537549
C5    C     C_R   0.357411 0.374263 0.139391 0.711380
C6    C     C_R   0.642589 0.625738 0.860609 0.711380
C7    C     C_R   0.142632 0.874244 0.860636 0.711040
C8    C     C_R   0.857368 0.125756 0.139364 0.711040
O17   O     O_3   0.387830 0.193120 0.250910 -0.374774
O18   O     O_3   0.612170 0.806880 0.749090 -0.374774
O19   O     O_3   0.112170 0.693120 0.749090 -0.373713
O20   O     O_3   0.887830 0.306880 0.250910 -0.373713
V1    V     V_3+5 0.113010 0.264540 0.250910 1.403533
V2    V     V_3+5 0.886990 0.735460 0.749090 1.403533
V3    V     V_3+5 0.386990 0.764540 0.749090 1.402113
V4    V     V_3+5 0.613010 0.235460 0.250910 1.402112
C9    C     C_R   0.870985 0.185653 0.528125 -0.195429
C10   C     C_R   0.129013 0.814346 0.471874 -0.195429
C11   C     C_R   0.627668 0.685792 0.471425 -0.196879
C12   C     C_R   0.372333 0.314208 0.528574 -0.196880
C13   C     C_R   0.837777 0.213446 0.606946 -0.115464
C14   C     C_R   0.162223 0.786554 0.393054 -0.115464
C15   C     C_R   0.658980 0.713633 0.392348 -0.116724
C16   C     C_R   0.341021 0.286367 0.607652 -0.116723
C17   C     C_R   0.866979 0.149901 0.673203 0.209051
C18   C     C_R   0.133024 0.850099 0.326797 0.209051
C19   C     C_R   0.627409 0.650410 0.325996 0.209298
C20   C     C_R   0.372591 0.349590 0.674003 0.209301
C21   C     C_R   0.931416 0.058206 0.660006 -0.149974
C22   C     C_R   0.068587 0.941794 0.339994 -0.149975
C23   C     C_R   0.563593 0.558578 0.339412 -0.144923
C24   C     C_R   0.436406 0.441422 0.660588 -0.144921
C25   C     C_R   0.965244 0.028195 0.580313 0.019794
C26   C     C_R   0.034757 0.971805 0.419687 0.019794
C27   C     C_R   0.532610 0.528363 0.419438 0.019378
C28   C     C_R   0.467389 0.471637 0.580562 0.019377
C29   C     C_R   0.933900 0.092841 0.513203 0.058656
C30   C     C_R   0.066100 0.907159 0.486797 0.058657
C31   C     C_R   0.564986 0.592997 0.486536 0.057765
C32   C     C_R   0.435015 0.407003 0.513464 0.057765
C33   C     C_R   0.031690 0.935680 0.566867 -0.150217
C34   C     C_R   0.968310 0.064319 0.433133 -0.150218
C35   C     C_R   0.467889 0.435609 0.433201 -0.149483
C36   C     C_R   0.532111 0.564391 0.566798 -0.149483
H1    H     H_    0.847648 0.238089 0.479272 0.129730
H2    H     H_    0.152349 0.761911 0.520727 0.129729
H3    H     H_    0.652419 0.738119 0.520330 0.129798
H4    H     H_    0.347583 0.261881 0.479670 0.129797
H5    H     H_    0.789448 0.284963 0.616132 0.134355
H6    H     H_    0.210553 0.715037 0.383868 0.134355
H7    H     H_    0.707404 0.785056 0.382758 0.139828
H8    H     H_    0.292599 0.214944 0.617242 0.139829
H9    H     H_    0.954956 0.011011 0.712868 0.116823
H10   H     H_    0.045049 0.988990 0.287132 0.116824
H11   H     H_    0.538411 0.511258 0.286711 0.110255
H12   H     H_    0.461587 0.488743 0.713289 0.110257
H13   H     H_    0.090809 0.097622 0.031200 0.136815
H14   H     H_    0.909197 0.902377 0.968802 0.136814
H15   H     H_    0.410366 0.598087 0.969406 0.138496
H16   H     H_    0.589638 0.401915 0.030595 0.138497
C37   C     C_2   0.145928 0.953934 0.921152 0.000519
C38   C     C_2   0.854072 0.046066 0.078848 0.000518
C39   C     C_2   0.354386 0.454119 0.079072 -0.004182
C40   C     C_2   0.645614 0.545881 0.920928 -0.004180
C41   C     C_2   0.009783 0.959785 0.970993 -0.123310
C42   C     C_2   0.990219 0.040214 0.029008 -0.123310
C43   C     C_2   0.489915 0.459684 0.028869 -0.127729
C44   C     C_2   0.510087 0.540317 0.971132 -0.127727
C45   C     C_3   0.169941 0.821003 0.241779 -0.819679
H17   H     H_    0.279277 0.867476 0.221461 0.215211
H18   H     H_    0.218191 0.746186 0.240743 0.212875
H19   H     H_    0.040086 0.828095 0.197290 0.208532
C46   C     C_3   0.830068 0.178998 0.758222 -0.819675
H20   H     H_    0.720739 0.132524 0.778544 0.215212
H21   H     H_    0.959928 0.171911 0.802709 0.208530
H22   H     H_    0.781813 0.253814 0.759257 0.212875
C47   C     C_3   0.337212 0.318447 0.758715 -0.819288
H23   H     H_    0.371126 0.375385 0.805561 0.213422
H24   H     H_    0.187705 0.299417 0.756998 0.222491
H25   H     H_    0.424216 0.255402 0.778381 0.212116
C48   C     C_3   0.662788 0.681554 0.241285 -0.819264
H26   H     H_    0.628863 0.624615 0.194437 0.213418
H27   H     H_    0.575790 0.744603 0.221620 0.212112
H28   H     H_    0.812301 0.700578 0.243002 0.222487
C49   C     C_3   0.709660 0.968570 0.079598 -0.805874
H29   H     H_    0.605366 0.985667 0.121544 0.218493
H30   H     H_    0.634793 0.957527 0.016303 0.220342
H31   H     H_    0.779336 0.901227 0.101446 0.206692
C50   C     C_3   0.290336 0.031431 0.920400 -0.805876
H32   H     H_    0.394625 0.014337 0.878452 0.218493
H33   H     H_    0.220655 0.098774 0.898553 0.206693
H34   H     H_    0.365208 0.042475 0.983693 0.220342
C51   C     C_3   0.788455 0.467766 0.919283 -0.803661
H35   H     H_    0.891579 0.484480 0.876687 0.220664
H36   H     H_    0.865073 0.456483 0.982236 0.220652
H37   H     H_    0.717002 0.400752 0.897560 0.210194
C52   C     C_3   0.211543 0.532234 0.080716 -0.803651
H38   H     H_    0.108411 0.515520 0.123311 0.220662
H39   H     H_    0.282995 0.599248 0.102441 0.210191
H40   H     H_    0.134928 0.543517 0.017762 0.220651

loop_
_geom_bond_atom_site_label_1
_geom_bond_atom_site_label_2
_ccdc_geom_bond_type
C17   C46   S    
O1    C5    A    
C47   H23   S    
O13   V1    S    
C11   C15   A    
C40   C44   D    
O15   V3    S    
C41   C42   S    
C45   H17   S    
C50   H33   S    
C49   H29   S    
O20   V1    S    
O9    C4    A    
C14   C18   A    
O10   C3    A    
C51   H36   S    
O4    C8    A    
O11   C2    A    
H15   C44   S    
C10   H2    S    
C25   C33   A    
C18   C22   A    
O10   V2    S    
C20   C47   S    
C28   C36   A    
O3    C7    A    
C14   H6    S    
C13   H5    S    
C40   C51   S    
O2    C6    A    
O14   V2    S    
C37   C41   D    
C46   H21   S    
C16   C20   A    
O5    C1    A    
O4    V1    S    
O9    V1    S    
C52   H40   S    
O17   V4    S    
O7    C3    A    
O11   V3    S    
O18   V3    S    
C49   H30   S    
O14   C6    A    
C31   C36   A    
O12   V4    S    
C38   C49   S    
C3    C33   S    
C24   H12   S    
H16   C43   S    
C48   H27   S    
C48   H26   S    
O5    V1    S    
C45   H18   S    
C9    C29   A    
C50   H34   S    
O7    V3    S    
C21   H9    S    
C26   C34   A    
O16   C8    A    
C12   C16   A    
C51   H37   S    
O19   V2    S    
C15   C19   A    
C11   C31   A    
O1    V4    S    
C9    C13   A    
O2    V3    S    
O8    V4    S    
O3    V2    S    
O15   C7    A    
C12   C32   A    
O6    C2    A    
C38   C42   D    
C43   C44   S    
C21   C25   A    
C5    C39   S    
C18   C45   S    
C4    C34   S    
C7    C37   S    
C46   H22   S    
C23   H11   S    
C8    C38   S    
O6    V2    S    
C10   C30   A    
C47   H25   S    
C39   C52   S    
C27   C35   A    
H14   C41   S    
H13   C42   S    
C48   H28   S    
C52   H38   S    
O16   V4    S    
C45   H19   S    
O8    C4    A    
C10   C14   A    
C15   H7    S    
C19   C48   S    
C23   C27   A    
C29   C34   A    
C1    C35   S    
C49   H31   S    
C2    C36   S    
C50   H32   S    
C22   C26   A    
C32   C35   A    
C37   C50   S    
C6    C40   S    
C26   C30   A    
C51   H35   S    
C39   C43   D    
C9    H1    S    
C25   C29   A    
C27   C31   A    
C13   C17   A    
O13   C5    A    
C22   H10   S    
C28   C32   A    
C24   C28   A    
O12   C1    A    
C47   H24   S    
C16   H8    S    
C17   C21   A    
C11   H3    S    
C46   H20   S    
C12   H4    S    
C19   C23   A    
C20   C24   A    
C52   H39   S    
C30   C33   A    
