data_mof_unit_25722.cif
_audit_creation_date              2012-10-26T20:32:02-0400
_audit_creation_method            fapswitch 2.2
_symmetry_space_group_name_H-M    P1
_symmetry_Int_Tables_number       1
_space_group_crystal_system       triclinic
_cell_length_a                    10.633926
_cell_length_b                    10.784774
_cell_length_c                    9.580058
_cell_angle_alpha                 89.644498
_cell_angle_beta                  90.752573
_cell_angle_gamma                 90.168015
_cell_volume                      1098.56366695

loop_
_atom_site_label
_atom_site_type_symbol
_atom_type_description
_atom_site_fract_x
_atom_site_fract_y
_atom_site_fract_z
_atom_type_partial_charge
C1    C     C_R   0.503699 0.262494 0.500522 0.538444
C2    C     C_R   0.503399 0.935123 0.622297 0.007778
C3    C     C_3   0.396417 0.923926 0.721177 -0.264599
C4    C     C_R   0.259528 0.501264 0.499024 0.550866
C5    C     C_3   0.393379 0.064688 0.722958 -0.270899
C6    C     C_R   0.609400 0.513160 0.075699 0.138450
C7    C     C_R   0.390462 0.501769 0.072524 -0.024950
C8    C     C_R   0.390445 0.502188 0.924386 -0.026353
C9    C     C_R   0.609907 0.510306 0.928888 0.155151
C10   C     C_3   0.721667 0.424712 0.931665 -0.131113
C11   C     C_3   0.720558 0.431231 0.090162 -0.242950
C12   C     C_3   0.956514 0.613993 0.475706 -0.133388
C13   C     C_R   0.508741 0.737385 0.499474 0.544676
C14   C     C_R   0.740619 0.497938 0.500597 0.537893
C15   C     C_3   0.042879 0.385033 0.520736 0.025130
C16   C     C_3   0.956823 0.422723 0.397323 -0.107193
C17   C     C_3   0.877573 0.496791 0.500625 0.038207
C18   C     C_3   0.962090 0.457420 0.624018 -0.108759
C19   C     C_3   0.043106 0.574696 0.599322 -0.134663
C20   C     C_3   0.696981 0.293670 0.873856 -0.252472
C21   C     C_3   0.801155 0.202807 0.915493 -0.478453
C22   C     C_3   0.095750 0.255571 0.548019 -0.277356
C23   C     C_3   0.038323 0.539982 0.373060 -0.132403
C24   C     C_3   0.991536 0.158151 0.552056 -0.451204
C25   C     C_3   0.638050 0.879104 0.259023 -0.258333
C26   C     C_3   0.547006 0.872125 0.134582 -0.415494
C27   C     C_3   0.122738 0.500771 0.496926 0.043902
C28   C     C_R   0.500696 0.062138 0.624075 0.007731
C29   C     C_R   0.521365 0.129832 0.502522 -0.013207
C30   C     C_R   0.569942 0.068654 0.386128 -0.147992
C31   C     C_R   0.577352 0.938582 0.384140 -0.016080
C32   C     C_R   0.529339 0.870660 0.500086 0.009522
Cu1   Cu    Cu3+1 0.499990 0.499980 0.640670 0.910501
Cu2   Cu    Cu3+1 0.500010 0.500020 0.359330 0.908168
H1    H     H_    0.919511 0.359282 0.315849 0.097650
H2    H     H_    0.933618 0.418040 0.725269 0.099336
H3    H     H_    0.080834 0.637207 0.681551 0.102745
H4    H     H_    0.917650 0.708217 0.457258 0.098719
H5    H     H_    0.072108 0.574121 0.270581 0.102675
H6    H     H_    0.599792 0.121547 0.295740 0.126113
H7    H     H_    0.311181 0.881682 0.672298 0.131711
H8    H     H_    0.894644 0.240549 0.886850 0.143044
H9    H     H_    0.800308 0.183562 0.029393 0.142866
H10   H     H_    0.786067 0.113760 0.860027 0.140764
H11   H     H_    0.605141 0.257035 0.910379 0.158858
H12   H     H_    0.425972 0.882461 0.822906 0.139187
H13   H     H_    0.694540 0.298656 0.758524 0.198480
H14   H     H_    0.921348 0.181901 0.632249 0.151342
H15   H     H_    0.943468 0.151898 0.448708 0.145607
H16   H     H_    0.032666 0.066272 0.578281 0.133467
H17   H     H_    0.163008 0.231952 0.464564 0.145655
H18   H     H_    0.146918 0.256102 0.649756 0.139234
H19   H     H_    0.461014 0.819364 0.162248 0.179174
H20   H     H_    0.519625 0.966813 0.099759 0.134498
H21   H     H_    0.593250 0.824669 0.046520 0.129892
H22   H     H_    0.721328 0.934995 0.228087 0.117118
H23   H     H_    0.306553 0.103824 0.674870 0.129147
H24   H     H_    0.675865 0.785833 0.284518 0.168365
H25   H     H_    0.420862 0.104401 0.825766 0.132076
H26   H     H_    0.301425 0.499366 0.125334 0.117267
H27   H     H_    0.301194 0.500383 0.869556 0.119959
H28   H     H_    0.805624 0.471217 0.888452 0.120181
H29   H     H_    0.697217 0.343197 0.145189 0.149157
H30   H     H_    0.803293 0.481675 0.133754 0.110526
N1    N     N_R   0.500800 0.500930 0.147930 -0.232465
N2    N     N_R   0.500800 0.500890 0.852020 -0.233287
O1    O     O_R   0.500000 0.319640 0.618810 -0.510555
O2    O     O_R   0.500010 0.319680 0.381230 -0.503677
O3    O     O_R   0.316850 0.499950 0.618770 -0.515504
O4    O     O_R   0.316860 0.499990 0.381190 -0.512016
O5    O     O_R   0.499990 0.680320 0.618770 -0.493594
O6    O     O_R   0.500000 0.680360 0.381190 -0.502799
O7    O     O_R   0.683140 0.500010 0.618810 -0.514579
O8    O     O_R   0.683150 0.500050 0.381230 -0.514890

loop_
_geom_bond_atom_site_label_1
_geom_bond_atom_site_label_2
_ccdc_geom_bond_type
C25   C31   S    
C15   C18   S    
C8    N2    A    
C13   C32   S    
C25   H22   S    
C26   H21   S    
C6    C9    A    
C4    O4    A    
C7    C8    A    
C12   C23   S    
C14   O8    A    
C28   C29   A    
C11   H29   S    
C16   H1    S    
C30   C31   A    
C15   C16   S    
C21   H10   S    
C1    O2    A    
C2    C32   A    
C18   C19   S    
C9    N2    A    
C19   H3    S    
C21   H9    S    
C6    N1    A    
C10   C20   S    
C16   C17   S    
C12   C17   S    
C23   C27   S    
C19   C27   S    
C9    C10   S    
Cu2   O4    S    
C20   H11   S    
Cu1   O3    S    
C8    H27   S    
C14   C17   S    
C10   H28   S    
C26   H20   S    
Cu2   N1    S    
C4    O3    A    
Cu1   N2    S    
Cu1   Cu2   S    
C15   C22   S    
C24   H16   S    
C5    H25   S    
C24   H14   S    
C14   O7    A    
C11   H30   S    
Cu2   O2    S    
C6    C11   S    
C13   O5    A    
C25   C26   S    
C29   C30   A    
C7    N1    A    
C5    C28   S    
C15   C27   S    
C31   C32   A    
C1    C29   S    
C17   C18   S    
C30   H6    S    
Cu2   O8    S    
Cu1   O7    S    
C16   C23   S    
C22   C24   S    
C25   H24   S    
C26   H19   S    
Cu2   O6    S    
C7    H26   S    
C4    C27   S    
Cu1   O1    S    
C22   H18   S    
C24   H15   S    
C3    H7    S    
C3    C5    S    
C13   O6    A    
C3    H12   S    
C5    H23   S    
C2    C3    S    
C23   H5    S    
C12   C19   S    
C1    O1    A    
C12   H4    S    
C20   H13   S    
C10   C11   S    
Cu1   O5    S    
C21   H8    S    
C20   C21   S    
C2    C28   A    
C18   H2    S    
C22   H17   S    
