data_mof_unit_25337.cif
_audit_creation_date              2012-12-10T20:57:14-0500
_audit_creation_method            fapswitch 2.2
_symmetry_space_group_name_H-M    P1
_symmetry_Int_Tables_number       1
_space_group_crystal_system       triclinic
_cell_length_a                    15.799591
_cell_length_b                    15.101212
_cell_length_c                    14.843399
_cell_angle_alpha                 89.620796
_cell_angle_beta                  90.060655
_cell_angle_gamma                 89.939339
_cell_volume                      3541.44914017

loop_
_atom_site_label
_atom_site_type_symbol
_atom_type_description
_atom_site_fract_x
_atom_site_fract_y
_atom_site_fract_z
_atom_type_partial_charge
C1    C     C_R   0.338979 0.500116 0.499288 0.895314
C2    C     C_R   0.086865 0.503579 0.491604 -0.231259
C3    C     C_1   0.823904 0.500287 0.502340 0.119490
C4    C     C_1   0.175924 0.502059 0.492480 0.082098
C5    C     C_1   0.250741 0.500746 0.495327 -0.199639
C6    C     C_1   0.749120 0.499975 0.502145 -0.182392
C7    C     C_R   0.530499 0.953086 0.423757 -0.088751
C8    C     C_R   0.479860 0.046751 0.579777 -0.071842
C9    C     C_R   0.478329 0.952137 0.579290 -0.077815
C10   C     C_R   0.530504 0.047772 0.423705 -0.091058
C11   C     C_R   0.503359 0.904897 0.501149 -0.006041
C12   C     C_R   0.660948 0.499972 0.500871 0.880764
C13   C     C_R   0.504151 0.095020 0.501387 -0.000349
C14   C     C_1   0.501428 0.806863 0.500481 0.269138
C15   C     C_1   0.501778 0.193114 0.500661 0.274473
C16   C     C_R   0.499924 0.500392 0.326397 0.915402
C17   C     C_R   0.498435 0.499817 0.673462 0.921082
C18   C     C_R   0.568013 0.531141 0.815538 -0.148510
C19   C     C_R   0.420322 0.480785 0.186250 -0.155109
C20   C     C_R   0.496376 0.501425 0.769494 -0.216706
C21   C     C_R   0.495694 0.503422 0.230258 -0.236172
C22   C     C_R   0.418731 0.486100 0.812160 0.415155
C23   C     C_R   0.334850 0.494022 0.047634 0.533610
C24   C     C_R   0.565284 0.538848 0.184919 0.456581
C25   C     C_R   0.411003 0.502658 0.905111 -0.110457
C26   C     C_R   0.557816 0.560074 0.093072 -0.137483
C27   C     C_R   0.484265 0.530986 0.952410 -0.049418
C28   C     C_R   0.484391 0.531793 0.046545 -0.054355
C29   C     C_R   0.559418 0.554344 0.906249 -0.028038
C30   C     C_R   0.412767 0.500139 0.093772 -0.014293
C31   C     C_R   0.333506 0.492725 0.952921 -0.148261
C32   C     C_R   0.621297 0.607621 0.045869 -0.154694
C33   C     C_2   0.651904 0.530566 0.769228 0.500421
C34   C     C_R   0.621589 0.604887 0.951479 0.513062
C35   C     C_2   0.353980 0.431091 0.236816 0.546896
C36   C     C_3   0.345037 0.365842 0.762437 0.085336
C37   C     C_3   0.265411 0.338215 0.711259 -0.319037
C38   C     C_3   0.257422 0.237792 0.705908 -0.902687
C39   C     C_3   0.700060 0.483894 0.206881 0.048762
C40   C     C_3   0.685250 0.396662 0.257937 -0.339848
C41   C     C_3   0.754105 0.329031 0.236772 -0.903119
C42   C     C_2   0.250070 0.485472 0.906957 0.439915
C43   C     C_2   0.683116 0.664925 0.093895 0.462664
C44   C     C_3   0.227181 0.581436 0.101338 0.075046
C45   C     C_R   0.956340 0.574357 0.534432 0.337225
C46   C     C_3   0.241383 0.617316 0.196399 -0.392889
C47   C     C_3   0.196848 0.705970 0.209410 -0.902899
C48   C     C_3   0.644965 0.728279 0.864903 0.072720
C49   C     C_3   0.709467 0.772635 0.802606 -0.275330
C50   C     C_3   0.670122 0.849408 0.749822 -0.985658
C51   C     C_3   0.114176 0.636578 0.650927 0.110298
C52   C     C_3   0.161326 0.719737 0.680935 -0.289573
C53   C     C_3   0.202961 0.707089 0.772897 -0.942236
C54   C     C_3   0.897337 0.294140 0.490366 0.129408
C55   C     C_3   0.832200 0.227955 0.455364 -0.346924
C56   C     C_R   0.042856 0.432217 0.453481 0.353256
C57   C     C_3   0.815705 0.153901 0.523537 -0.940671
C58   C     C_3   0.887232 0.705666 0.513128 0.124915
C59   C     C_3   0.818125 0.763209 0.554964 -0.350471
C60   C     C_3   0.785527 0.832972 0.488606 -0.905555
C61   C     C_3   0.111763 0.384663 0.326560 0.136408
C62   C     C_3   0.046041 0.354919 0.257171 -0.394606
C63   C     C_3   0.077198 0.371018 0.161201 -0.798742
C64   C     C_2   0.562194 0.096639 0.342677 0.349905
C65   C     C_2   0.453149 0.903170 0.662791 0.322863
C66   C     C_2   0.453323 0.094719 0.662662 0.318849
C67   C     C_R   0.044468 0.574569 0.532395 0.334731
C68   C     C_2   0.555990 0.905142 0.340373 0.345213
C69   C     C_R   0.955172 0.429298 0.461419 0.323406
C70   C     C_R   0.912840 0.500946 0.500396 -0.225461
H1    H     H_    0.657072 0.548348 0.698563 0.022966
H2    H     H_    0.763984 0.508970 0.224639 0.187041
H3    H     H_    0.701012 0.471580 0.132955 0.160471
H4    H     H_    0.685021 0.409220 0.331450 0.241037
H5    H     H_    0.623035 0.368374 0.238535 0.244526
H6    H     H_    0.756257 0.316002 0.163249 0.268142
H7    H     H_    0.740199 0.265850 0.272400 0.266351
H8    H     H_    0.816805 0.353630 0.259380 0.282741
H9    H     H_    0.237467 0.522166 0.845558 0.096077
H10   H     H_    0.666595 0.693573 0.158364 0.121429
H11   H     H_    0.158043 0.578632 0.088060 0.183725
H12   H     H_    0.337887 0.449473 0.305189 -0.007971
H13   H     H_    0.253974 0.628743 0.050637 0.105830
H14   H     H_    0.216785 0.569165 0.246809 0.220069
H15   H     H_    0.310215 0.626412 0.208340 0.215431
H16   H     H_    0.221156 0.755675 0.160405 0.264537
H17   H     H_    0.208964 0.730270 0.278678 0.272871
H18   H     H_    0.127460 0.698372 0.200158 0.264032
H19   H     H_    0.626279 0.775781 0.918430 0.137891
H20   H     H_    0.588015 0.711288 0.824183 0.131952
H21   H     H_    0.763392 0.797583 0.843308 0.242391
H22   H     H_    0.734194 0.723144 0.754122 0.230903
H23   H     H_    0.340604 0.340282 0.832892 0.161559
H24   H     H_    0.619616 0.824575 0.704461 0.270436
H25   H     H_    0.719391 0.882124 0.708028 0.271066
H26   H     H_    0.642928 0.899030 0.796539 0.272298
H27   H     H_    0.157458 0.578592 0.657370 0.143955
H28   H     H_    0.058453 0.626428 0.695815 0.165170
H29   H     H_    0.211184 0.736448 0.630812 0.256731
H30   H     H_    0.116060 0.776042 0.684065 0.221971
H31   H     H_    0.155791 0.684612 0.823552 0.254626
H32   H     H_    0.230469 0.770867 0.795405 0.279750
H33   H     H_    0.254898 0.657773 0.768136 0.274191
H34   H     H_    0.401242 0.335585 0.729688 0.204210
H35   H     H_    0.872741 0.322675 0.554407 0.137009
H36   H     H_    0.957960 0.258891 0.504217 0.171363
H37   H     H_    0.771723 0.263185 0.441331 0.239540
H38   H     H_    0.855402 0.198595 0.391487 0.230241
H39   H     H_    0.790837 0.181689 0.587375 0.276201
H40   H     H_    0.874985 0.116674 0.537627 0.265289
H41   H     H_    0.768051 0.107357 0.495866 0.266933
H42   H     H_    0.860915 0.674873 0.450942 0.132303
H43   H     H_    0.942071 0.748096 0.494279 0.168628
H44   H     H_    0.764385 0.720425 0.576216 0.237770
H45   H     H_    0.208718 0.365454 0.745673 0.232933
H46   H     H_    0.843677 0.796745 0.615621 0.230313
H47   H     H_    0.837689 0.877915 0.467843 0.257859
H48   H     H_    0.735109 0.872887 0.521084 0.267981
H49   H     H_    0.758474 0.800722 0.428025 0.298660
H50   H     H_    0.172080 0.349166 0.313540 0.197434
H51   H     H_    0.125519 0.456618 0.317356 0.109051
H52   H     H_    0.032677 0.283210 0.266654 0.247418
H53   H     H_    0.986283 0.392414 0.266954 0.239851
H54   H     H_    0.136950 0.334181 0.149013 0.307246
H55   H     H_    0.088150 0.442787 0.149693 0.273459
H56   H     H_    0.267430 0.365953 0.641807 0.237094
H57   H     H_    0.028695 0.347938 0.112561 0.259883
H58   H     H_    0.611850 0.068222 0.301516 0.064164
H59   H     H_    0.468104 0.929978 0.728525 0.072507
H60   H     H_    0.404375 0.067455 0.705846 0.071954
H61   H     H_    0.543565 0.934104 0.274605 0.071619
H62   H     H_    0.310432 0.210171 0.665974 0.272196
H63   H     H_    0.197025 0.220393 0.672087 0.264327
H64   H     H_    0.257777 0.207874 0.774476 0.269149
N1    N     N_1   0.500000 0.270550 0.500000 -0.073645
N2    N     N_1   0.500000 0.729450 0.500000 -0.071984
O1    O     O_R   0.378020 0.573650 0.500030 -0.601810
O2    O     O_2   0.319634 0.366613 0.203699 -0.534162
O3    O     O_3   0.350494 0.459243 0.760478 -0.694087
O4    O     O_3   0.640562 0.549688 0.232184 -0.663784
O5    O     O_2   0.194195 0.438320 0.937635 -0.541003
O6    O     O_2   0.752900 0.680704 0.062416 -0.524112
O7    O     O_3   0.259212 0.493895 0.094964 -0.592872
O8    O     O_3   0.682456 0.652185 0.904198 -0.561808
O9    O     O_3   0.088166 0.648741 0.560686 -0.617539
O10   O     O_3   0.910171 0.360120 0.423967 -0.633799
O11   O     O_3   0.913217 0.641780 0.577419 -0.611378
O12   O     O_R   0.621980 0.426350 0.499970 -0.622430
O13   O     O_3   0.085276 0.361694 0.414825 -0.619005
O14   O     O_2   0.532465 0.168021 0.319891 -0.554886
O15   O     O_2   0.414148 0.833510 0.659382 -0.573302
O16   O     O_2   0.487006 0.163986 0.684825 -0.579914
O17   O     O_2   0.592596 0.833955 0.343956 -0.577167
O18   O     O_R   0.621980 0.573650 0.499970 -0.603534
O19   O     O_R   0.378020 0.426350 0.500030 -0.616756
O20   O     O_R   0.499980 0.573670 0.367860 -0.587241
O21   O     O_R   0.500020 0.426330 0.632140 -0.609380
O22   O     O_R   0.500020 0.573670 0.632140 -0.618040
O23   O     O_R   0.499980 0.426330 0.367860 -0.618149
O24   O     O_2   0.715578 0.506092 0.808948 -0.512611
Zn1   Zn    Zn3+2 0.500000 0.598370 0.500000 1.027045
Zn2   Zn    Zn3+2 0.500000 0.401630 0.500000 1.012515

loop_
_geom_bond_atom_site_label_1
_geom_bond_atom_site_label_2
_ccdc_geom_bond_type
C25   C31   A    
C7    C10   A    
O1    Zn1   S    
C51   H27   S    
C8    C13   A    
C31   C42   S    
C27   C29   A    
O18   Zn1   S    
C3    C6    T    
C63   H54   S    
C24   O4    S    
C26   C32   A    
C34   O8    S    
C62   C63   S    
C1    C5    S    
C36   C37   S    
C19   C21   A    
C24   C26   A    
C59   H44   S    
C35   O2    D    
C6    C12   S    
C11   C14   S    
C50   H25   S    
C15   N1    T    
C51   O9    S    
C17   C20   S    
C48   O8    S    
C60   H49   S    
C61   H51   S    
C46   C47   S    
C38   H63   S    
C1    O19   A    
O22   Zn1   S    
C32   C34   A    
C7    C68   S    
C39   O4    S    
C36   H23   S    
C57   H39   S    
C53   H31   S    
C59   H46   S    
C64   H58   S    
C22   C25   A    
C67   O9    S    
C58   H43   S    
C39   H2    S    
C60   H48   S    
C8    C66   S    
C17   O21   A    
C33   O24   D    
C54   O10   S    
C46   H15   S    
C44   H13   S    
C51   H28   S    
C39   H3    S    
C59   C60   S    
C48   H20   S    
C16   O23   A    
C69   O10   S    
C23   O7    S    
C69   C70   A    
C49   H21   S    
C62   H53   S    
C18   C33   S    
C35   H12   S    
C44   C46   S    
C7    C11   A    
N2    Zn1   S    
O19   Zn2   S    
C54   H36   S    
C51   C52   S    
C47   H16   S    
C3    C70   S    
C68   O17   D    
C41   H8    S    
C56   C69   A    
C58   O11   S    
C50   H24   S    
C58   C59   S    
C22   O3    S    
C52   H30   S    
C55   H37   S    
C38   H62   S    
C65   O15   D    
C68   H61   S    
C2    C4    S    
C23   C30   A    
C45   C67   A    
C37   C38   S    
C44   H11   S    
C57   H40   S    
C53   H32   S    
C42   O5    D    
C8    C9    A    
O23   Zn2   S    
C60   H47   S    
C18   C29   A    
C17   O22   A    
C9    C11   A    
C63   H55   S    
C46   H14   S    
C48   C49   S    
C20   C22   A    
O20   Zn1   S    
C2    C67   A    
C48   H19   S    
C55   C57   S    
N1    Zn2   S    
C58   H42   S    
C49   H22   S    
C62   H52   S    
C1    O1    A    
C52   C53   S    
C37   H56   S    
C54   C55   S    
C40   C41   S    
C54   H35   S    
C45   C70   A    
C45   O11   S    
C10   C64   S    
C12   O18   A    
C4    C5    T    
C10   C13   A    
C65   H59   S    
C16   C21   S    
C37   H45   S    
C25   C27   A    
C52   H29   S    
C26   C28   A    
C40   H5    S    
C55   H38   S    
C36   H34   S    
O12   Zn2   S    
C47   H18   S    
C12   O12   A    
C13   C15   S    
C43   H10   S    
C19   C35   S    
C41   H6    S    
C41   H7    S    
C50   H26   S    
C57   H41   S    
C14   N2    T    
C53   H33   S    
C44   O7    S    
C29   C34   A    
C28   C30   A    
C66   O16   D    
C32   C43   S    
C40   H4    S    
C16   O20   A    
C18   C20   A    
C38   H64   S    
C61   C62   S    
C36   O3    S    
C9    C65   S    
C33   H1    S    
C39   C40   S    
C42   H9    S    
C49   C50   S    
C21   C24   A    
C64   O14   D    
C27   C28   A    
C43   O6    D    
C2    C56   A    
C66   H60   S    
C56   O13   S    
C19   C30   A    
C61   O13   S    
O21   Zn2   S    
C63   H57   S    
C23   C31   A    
C61   H50   S    
C47   H17   S    
