data_mof_unit_45789.cif
_audit_creation_date              2012-12-11T14:38:27-0500
_audit_creation_method            fapswitch 2.2
_symmetry_space_group_name_H-M    P1
_symmetry_Int_Tables_number       1
_space_group_crystal_system       monoclinic
_cell_length_a                    19.573477
_cell_length_b                    11.152443
_cell_length_c                    19.667267
_cell_angle_alpha                 90.0
_cell_angle_beta                  96.824593
_cell_angle_gamma                 90.0
_cell_volume                      4262.78962425

loop_
_atom_site_label
_atom_site_type_symbol
_atom_type_description
_atom_site_fract_x
_atom_site_fract_y
_atom_site_fract_z
_atom_type_partial_charge
C1    C     C_R   0.724223 0.955700 0.360915 0.545844
C2    C     C_3   0.177370 0.486674 0.469639 -0.223814
C3    C     C_3   0.322630 0.986674 0.530361 -0.223814
C4    C     C_3   0.677370 0.986674 0.469639 -0.223814
C5    C     C_3   0.764578 0.294799 0.554108 -0.266044
C6    C     C_3   0.235422 0.294799 0.445892 -0.266043
C7    C     C_3   0.264578 0.794799 0.554108 -0.266044
C8    C     C_3   0.735422 0.794799 0.445892 -0.266043
C9    C     C_3   0.762738 0.429173 0.566412 0.027512
C10   C     C_3   0.237262 0.429173 0.433588 0.027512
C11   C     C_3   0.262738 0.929173 0.566412 0.027512
C12   C     C_R   0.275777 0.955699 0.639085 0.545844
C13   C     C_3   0.737262 0.929173 0.433588 0.027512
C14   C     C_3   0.746344 0.391987 0.435268 0.095584
C15   C     C_3   0.253655 0.391987 0.564732 0.095583
C16   C     C_3   0.246344 0.891987 0.435268 0.095584
C17   C     C_3   0.753655 0.891987 0.564732 0.095583
C18   C     C_3   0.805103 0.482261 0.452215 -0.245754
C19   C     C_3   0.194896 0.482261 0.547785 -0.245754
C20   C     C_3   0.305103 0.982261 0.452215 -0.245754
C21   C     C_3   0.694896 0.982261 0.547785 -0.245754
C22   C     C_3   0.767175 0.276449 0.477393 -0.261917
C23   C     C_R   0.224223 0.455699 0.360915 0.545844
C24   C     C_3   0.232824 0.276449 0.522607 -0.261916
C25   C     C_3   0.267175 0.776449 0.477393 -0.261916
C26   C     C_3   0.732824 0.776449 0.522607 -0.261916
C27   C     C_3   0.428180 0.236901 0.968974 -0.218370
C28   C     C_3   0.444944 0.235427 0.046956 -0.249244
C29   C     C_3   0.055055 0.735427 0.953044 -0.249244
C30   C     C_3   0.071820 0.736898 0.031026 -0.218371
C31   C     C_3   0.491075 0.040774 0.960860 -0.234675
C32   C     C_3   0.571820 0.236895 0.031026 -0.218369
C33   C     C_3   0.928179 0.736895 0.968973 -0.218371
C34   C     C_R   0.775777 0.455699 0.639085 0.545844
C35   C     C_3   0.008922 0.540774 0.039140 -0.234677
C36   C     C_3   0.555056 0.235421 0.953044 -0.249244
C37   C     C_3   0.508920 0.040773 0.039141 -0.234676
C38   C     C_3   0.991080 0.540774 0.960859 -0.234677
C39   C     C_3   0.944944 0.735424 0.046956 -0.249244
C40   C     C_R   0.536395 0.180375 0.338689 0.530914
C41   C     C_R   0.463605 0.180375 0.661311 0.530914
C42   C     C_R   0.036395 0.680375 0.338689 0.530914
C43   C     C_R   0.963605 0.680375 0.661311 0.530914
C44   C     C_3   0.485538 0.172045 0.933935 0.053256
C45   C     C_3   0.678080 0.440646 0.458381 0.116628
C46   C     C_3   0.514461 0.172045 0.066065 0.053257
C47   C     C_3   0.985538 0.672045 0.933935 0.053257
C48   C     C_3   0.014462 0.672045 0.066065 0.053256
C49   C     C_1   0.762542 0.427770 0.904628 -0.013284
C50   C     C_1   0.237458 0.427770 0.095372 -0.013285
C51   C     C_1   0.262542 0.927770 0.904628 -0.013284
C52   C     C_1   0.737458 0.927770 0.095372 -0.013285
C53   C     C_1   0.747944 0.406485 0.034557 -0.053058
C54   C     C_1   0.252055 0.406485 0.965443 -0.053058
C55   C     C_1   0.247945 0.906485 0.034557 -0.053058
C56   C     C_3   0.321920 0.440646 0.541619 0.116629
C57   C     C_1   0.752055 0.906485 0.965443 -0.053058
C58   C     C_1   0.754283 0.416311 0.964033 -0.051217
C59   C     C_1   0.245717 0.416311 0.035966 -0.051217
C60   C     C_1   0.254283 0.916311 0.964033 -0.051217
C61   C     C_1   0.745717 0.916311 0.035966 -0.051217
C62   C     C_1   0.743148 0.391968 0.094525 -0.015444
C63   C     C_1   0.256852 0.391969 0.905475 -0.015444
C64   C     C_1   0.243148 0.891969 0.094525 -0.015444
C65   C     C_1   0.756852 0.891969 0.905475 -0.015444
C66   C     C_R   0.738497 0.359208 0.362380 0.567006
C67   C     C_3   0.178080 0.940646 0.458381 0.116629
C68   C     C_R   0.261503 0.359208 0.637620 0.567006
C69   C     C_R   0.238497 0.859208 0.362380 0.567006
C70   C     C_R   0.761503 0.859208 0.637620 0.567006
C71   C     C_R   0.721982 0.954557 0.163145 0.542939
C72   C     C_R   0.278018 0.954557 0.836854 0.542939
C73   C     C_R   0.221982 0.454557 0.163145 0.542939
C74   C     C_R   0.778018 0.454557 0.836854 0.542940
C75   C     C_R   0.534353 0.179072 0.140055 0.538243
C76   C     C_R   0.465646 0.179072 0.859946 0.538244
C77   C     C_R   0.034353 0.679072 0.140054 0.538243
C78   C     C_3   0.821920 0.940646 0.541619 0.116628
C79   C     C_R   0.965647 0.679072 0.859945 0.538243
C80   C     C_R   0.735856 0.357914 0.163546 0.544018
C81   C     C_R   0.264144 0.357914 0.836454 0.544018
C82   C     C_R   0.235856 0.857914 0.163546 0.544018
C83   C     C_R   0.764144 0.857914 0.836454 0.544018
C84   C     C_1   0.485032 0.172928 0.594222 -0.031570
C85   C     C_1   0.514968 0.172927 0.405777 -0.031570
C86   C     C_1   0.985032 0.672928 0.594222 -0.031570
C87   C     C_1   0.014968 0.672928 0.405777 -0.031570
C88   C     C_1   0.504506 0.169804 0.464923 -0.073138
C89   C     C_3   0.822630 0.486674 0.530361 -0.223814
C90   C     C_1   0.495494 0.169804 0.535077 -0.073137
C91   C     C_1   0.004506 0.669804 0.464923 -0.073138
C92   C     C_1   0.995494 0.669804 0.535077 -0.073137
C93   C     C_3   0.689890 0.471281 0.535017 -0.200578
C94   C     C_3   0.310110 0.471281 0.464983 -0.200579
C95   C     C_3   0.189890 0.971281 0.535017 -0.200577
C96   C     C_3   0.810110 0.971281 0.464983 -0.200579
Cr1   Cr    Cr6+3 0.765780 0.160710 0.267420 1.014017
Cr2   Cr    Cr6+3 0.383970 0.323720 0.751490 1.039111
Cr3   Cr    Cr6+3 0.116030 0.823720 0.248510 1.039110
Cr4   Cr    Cr6+3 0.883970 0.823720 0.751490 1.039111
Cr5   Cr    Cr6+3 0.234220 0.160710 0.732580 1.014017
Cr6   Cr    Cr6+3 0.265780 0.660710 0.267420 1.014017
Cr7   Cr    Cr6+3 0.734220 0.660710 0.732580 1.014017
Cr8   Cr    Cr6+3 0.612200 0.009560 0.248850 1.019397
Cr9   Cr    Cr6+3 0.387800 0.009560 0.751150 1.019397
Cr10  Cr    Cr6+3 0.112200 0.509560 0.248850 1.019397
Cr11  Cr    Cr6+3 0.887800 0.509560 0.751150 1.019397
Cr12  Cr    Cr6+3 0.616030 0.323720 0.248510 1.039110
H1    H     H_    0.682180 0.566697 0.543585 0.154712
H2    H     H_    0.129868 0.432302 0.456324 0.143359
H3    H     H_    0.370132 0.932302 0.543676 0.143359
H4    H     H_    0.629868 0.932302 0.456324 0.143359
H5    H     H_    0.851725 0.455648 0.428467 0.116481
H6    H     H_    0.148275 0.455648 0.571533 0.116481
H7    H     H_    0.351725 0.955648 0.428467 0.116481
H8    H     H_    0.648275 0.955648 0.571533 0.116481
H9    H     H_    0.377609 0.192351 0.954418 0.118662
H10   H     H_    0.446854 0.329224 0.066486 0.142196
H11   H     H_    0.053145 0.829225 0.933516 0.142196
H12   H     H_    0.317820 0.566697 0.456414 0.154711
H13   H     H_    0.122390 0.692345 0.045581 0.118663
H14   H     H_    0.422669 0.331948 0.951860 0.149754
H15   H     H_    0.403590 0.187766 0.070425 0.117590
H16   H     H_    0.096409 0.687768 0.929574 0.117590
H17   H     H_    0.077333 0.831944 0.048141 0.149755
H18   H     H_    0.441389 0.992798 0.947565 0.149625
H19   H     H_    0.577333 0.331942 0.048140 0.149754
H20   H     H_    0.922665 0.831941 0.951859 0.149754
H21   H     H_    0.058607 0.492795 0.052437 0.149627
H22   H     H_    0.468642 0.991360 0.063268 0.128774
H23   H     H_    0.182179 0.066697 0.543585 0.154712
H24   H     H_    0.553149 0.329218 0.933514 0.142194
H25   H     H_    0.946853 0.829222 0.066484 0.142196
H26   H     H_    0.031358 0.491362 0.936733 0.128774
H27   H     H_    0.596409 0.187757 0.929575 0.117591
H28   H     H_    0.558605 0.992794 0.052436 0.149626
H29   H     H_    0.941395 0.492793 0.947563 0.149627
H30   H     H_    0.903591 0.687764 0.070426 0.117590
H31   H     H_    0.622391 0.192342 0.045582 0.118662
H32   H     H_    0.531351 0.991357 0.936733 0.128776
H33   H     H_    0.968645 0.491360 0.063266 0.128775
H34   H     H_    0.817820 0.066697 0.456414 0.154711
H35   H     H_    0.877609 0.692340 0.954419 0.118663
H36   H     H_    0.649641 0.426067 0.561396 0.084047
H37   H     H_    0.350358 0.426067 0.438604 0.084047
H38   H     H_    0.149641 0.926067 0.561396 0.084047
H39   H     H_    0.850359 0.926067 0.438604 0.084047
H40   H     H_    0.638369 0.368401 0.450349 0.126225
H41   H     H_    0.361631 0.368401 0.549651 0.126225
H42   H     H_    0.138369 0.868401 0.450349 0.126224
H43   H     H_    0.861631 0.868401 0.549651 0.126226
H44   H     H_    0.339626 0.076243 0.548823 0.105509
H45   H     H_    0.821213 0.253865 0.470266 0.146021
H46   H     H_    0.660374 0.076243 0.451177 0.105509
H47   H     H_    0.839626 0.576243 0.548823 0.105509
H48   H     H_    0.160374 0.576243 0.451177 0.105509
H49   H     H_    0.288993 0.069881 0.431191 0.156750
H50   H     H_    0.711007 0.069881 0.568809 0.156749
H51   H     H_    0.788993 0.569881 0.431191 0.156749
H52   H     H_    0.211007 0.569881 0.568809 0.156749
H53   H     H_    0.810110 0.252570 0.583678 0.204874
H54   H     H_    0.189889 0.252570 0.416322 0.204875
H55   H     H_    0.310110 0.752570 0.583678 0.204874
H56   H     H_    0.178787 0.253865 0.529733 0.146021
H57   H     H_    0.689890 0.752570 0.416322 0.204874
H58   H     H_    0.717452 0.255131 0.570646 0.107976
H59   H     H_    0.282547 0.255131 0.429353 0.107976
H60   H     H_    0.217452 0.755131 0.570646 0.107976
H61   H     H_    0.782547 0.755131 0.429353 0.107976
H62   H     H_    0.734039 0.202855 0.458641 0.119029
H63   H     H_    0.265961 0.202855 0.541359 0.119028
H64   H     H_    0.234039 0.702855 0.458641 0.119029
H65   H     H_    0.765961 0.702855 0.541359 0.119028
H66   H     H_    0.606243 0.555111 0.428338 0.317218
H67   H     H_    0.321213 0.753865 0.470266 0.146021
H68   H     H_    0.393757 0.555113 0.571662 0.317218
H69   H     H_    0.106243 0.055111 0.428337 0.317218
H70   H     H_    0.893756 0.055114 0.571661 0.317218
H71   H     H_    0.678787 0.753865 0.529733 0.146021
H72   H     H_    0.870132 0.432302 0.543676 0.143359
O1    O     O_R   0.783100 0.287550 0.345460 -0.548172
O2    O     O_R   0.454350 0.284910 0.836260 -0.524822
O3    O     O_R   0.045650 0.784910 0.163740 -0.524821
O4    O     O_R   0.954350 0.784910 0.836260 -0.524822
O5    O     O_R   0.677950 0.374280 0.185410 -0.498597
O6    O     O_R   0.322050 0.374280 0.814590 -0.498597
O7    O     O_R   0.177950 0.874280 0.185410 -0.498597
O8    O     O_R   0.822050 0.874280 0.814590 -0.498597
O9    O     O_3   0.664670 0.164660 0.254930 -0.269475
O10   O     O_3   0.335330 0.164660 0.745070 -0.269475
O11   O     O_3   0.164670 0.664660 0.254930 -0.269474
O12   O     O_R   0.216900 0.287550 0.654540 -0.548172
O13   O     O_3   0.835330 0.664660 0.745070 -0.269475
O14   O     O_R   0.760020 0.037400 0.337700 -0.516969
O15   O     O_R   0.239980 0.037400 0.662300 -0.516969
O16   O     O_R   0.260020 0.537400 0.337700 -0.516969
O17   O     O_R   0.739980 0.537400 0.662300 -0.516969
O18   O     O_R   0.666600 0.921990 0.332020 -0.517546
O19   O     O_R   0.333400 0.921990 0.667980 -0.517546
O20   O     O_R   0.166600 0.421990 0.332020 -0.517546
O21   O     O_R   0.833400 0.421990 0.667980 -0.517546
O22   O     O_R   0.557260 0.082670 0.312540 -0.499139
O23   O     O_R   0.283100 0.787550 0.345460 -0.548172
O24   O     O_R   0.442740 0.082670 0.687460 -0.499139
O25   O     O_R   0.057260 0.582670 0.312540 -0.499139
O26   O     O_R   0.942740 0.582670 0.687460 -0.499139
O27   O     O_R   0.548410 0.285740 0.316480 -0.508016
O28   O     O_R   0.451590 0.285740 0.683520 -0.508015
O29   O     O_R   0.048410 0.785740 0.316480 -0.508016
O30   O     O_R   0.951590 0.785740 0.683520 -0.508015
O31   O     O_R   0.680500 0.375040 0.327000 -0.456151
O32   O     O_R   0.319500 0.375040 0.673000 -0.456150
O33   O     O_R   0.180500 0.875040 0.327000 -0.456151
O34   O     O_R   0.716900 0.787550 0.654540 -0.548172
O35   O     O_R   0.819500 0.875040 0.673000 -0.456150
O36   O     O_R   0.780350 0.286720 0.192720 -0.507604
O37   O     O_R   0.219650 0.286720 0.807280 -0.507604
O38   O     O_R   0.280350 0.786720 0.192720 -0.507604
O39   O     O_R   0.719650 0.786720 0.807280 -0.507604
O40   O     O_R   0.757470 0.036630 0.196110 -0.495210
O41   O     O_R   0.242530 0.036630 0.803890 -0.495210
O42   O     O_R   0.257470 0.536630 0.196110 -0.495210
O43   O     O_R   0.742530 0.536630 0.803890 -0.495210
O44   O     O_R   0.663840 0.921160 0.179280 -0.510535
O45   O     O_R   0.554710 0.081900 0.170950 -0.508885
O46   O     O_R   0.336160 0.921160 0.820720 -0.510536
O47   O     O_R   0.163840 0.421160 0.179280 -0.510535
O48   O     O_R   0.836160 0.421160 0.820720 -0.510535
O49   O     O_3   0.654745 0.541926 0.420076 -0.724046
O50   O     O_3   0.345254 0.541926 0.579924 -0.724046
O51   O     O_3   0.154746 0.041926 0.420076 -0.724046
O52   O     O_3   0.845254 0.041926 0.579924 -0.724046
O53   O     O_R   0.445290 0.081900 0.829050 -0.508885
O54   O     O_R   0.054710 0.581900 0.170950 -0.508885
O55   O     O_R   0.945290 0.581900 0.829050 -0.508885
O56   O     O_R   0.545650 0.284910 0.163740 -0.524822

loop_
_geom_bond_atom_site_label_1
_geom_bond_atom_site_label_2
_ccdc_geom_bond_type
Cr1   O14   S    
C4    H46   S    
C7    H60   S    
Cr12  O56   S    
Cr4   O35   S    
C8    C13   S    
C53   C58   S    
C87   C91   T    
C43   O30   A    
C45   H40   S    
C8    C26   S    
C21   H50   S    
C14   C18   S    
C1    O18   A    
C47   C79   S    
Cr2   O10   S    
Cr5   O12   S    
C45   C93   S    
Cr10  O25   S    
Cr3   O7    S    
C28   H15   S    
Cr8   O45   S    
C80   O36   A    
C26   H71   S    
C33   H35   S    
C56   C94   S    
C29   H11   S    
C28   C46   S    
C3    H44   S    
C33   C39   S    
C84   C90   T    
C73   O42   A    
C63   C81   S    
C50   C59   T    
C32   C36   S    
C32   H19   S    
C30   C48   S    
Cr4   O8    S    
Cr11  O21   S    
C52   C61   T    
C21   H8    S    
C39   H25   S    
C65   C83   S    
C54   C63   T    
C68   O12   A    
C34   O21   A    
C78   O52   S    
C29   H16   S    
C79   O4    A    
C42   O25   A    
C67   O51   S    
Cr7   O17   S    
C89   H72   S    
C4    C13   S    
C44   C76   S    
C24   H63   S    
C17   C78   S    
Cr11  O26   S    
C74   O48   A    
C18   H51   S    
Cr7   O43   S    
C94   H12   S    
C27   C44   S    
C38   H29   S    
C5    C22   S    
C6    H54   S    
C78   C96   S    
Cr1   O36   S    
C23   O16   A    
Cr4   O4    S    
C80   O5    A    
C31   H32   S    
C76   O53   A    
C35   H21   S    
Cr3   O3    S    
C94   H37   S    
Cr1   O9    S    
C4    H4    S    
C30   H17   S    
H68   O50   S    
C17   C70   S    
C72   O46   A    
C55   C60   S    
Cr11  O48   S    
C43   O26   A    
C67   C95   S    
C18   C89   S    
Cr2   O28   S    
C24   H56   S    
C95   H38   S    
C45   O49   S    
Cr10  O11   S    
Cr12  O27   S    
C76   O2    A    
C35   C48   S    
C18   H5    S    
C46   C75   S    
C27   H14   S    
C78   H43   S    
C7    C11   S    
C14   C45   S    
C54   C59   S    
C27   H9    S    
C37   H28   S    
C31   C44   S    
C13   C96   S    
C70   O34   A    
C75   O56   A    
Cr12  O5    S    
C75   O45   A    
C35   C38   S    
C69   O33   A    
C32   H31   S    
Cr5   O10   S    
C50   C73   S    
C3    H3    S    
C91   C92   S    
C73   O47   A    
Cr6   O38   S    
C69   O23   A    
Cr9   O24   S    
Cr3   O33   S    
C19   H6    S    
C5    H58   S    
C41   C84   S    
Cr2   O32   S    
C74   O43   A    
C95   H23   S    
C33   H20   S    
C17   C21   S    
C49   C58   T    
C31   C37   S    
Cr9   O53   S    
C5    H53   S    
C40   C85   S    
Cr2   O2    S    
C15   C19   S    
Cr6   O23   S    
C5    C9    S    
C29   C30   S    
C83   O39   A    
C53   C62   T    
C25   H67   S    
C82   O38   A    
C30   H13   S    
C16   C20   S    
C6    C24   S    
C55   C64   T    
C48   C77   S    
Cr6   O11   S    
C14   C66   S    
Cr1   O40   S    
C56   O50   S    
C3    C20   S    
C16   C67   S    
Cr9   O46   S    
C41   O24   A    
C57   C61   S    
C93   H36   S    
Cr7   O34   S    
C64   C82   S    
C38   C47   S    
C22   H62   S    
C42   O29   A    
C35   H33   S    
C70   O35   A    
C25   H64   S    
C15   C24   S    
C37   H22   S    
C29   C47   S    
C62   C80   S    
C20   H49   S    
C9    C34   S    
C33   C47   S    
C12   O15   A    
Cr12  O9    S    
C36   C44   S    
C1    C13   S    
C51   C72   S    
C17   C26   S    
C9    C89   S    
C2    C10   S    
C36   H27   S    
C9    C93   S    
C81   O6    A    
Cr11  O13   S    
Cr12  O31   S    
C8    H61   S    
Cr6   O42   S    
Cr10  O20   S    
Cr3   O29   S    
C85   C88   T    
C11   C95   S    
C16   C25   S    
C56   H41   S    
C96   H39   S    
Cr11  O55   S    
C6    H59   S    
C2    H2    S    
C2    H48   S    
C71   O44   A    
Cr10  O54   S    
C2    C19   S    
C49   C74   S    
C43   C86   S    
C32   C46   S    
Cr9   O10   S    
C66   O1    A    
C26   H65   S    
C16   C69   S    
C57   C65   T    
Cr6   O16   S    
C6    C10   S    
C20   H7    S    
C11   C12   S    
Cr1   O1    S    
C81   O37   A    
C51   C60   T    
C10   C23   S    
C15   C68   S    
C7    C25   S    
H69   O51   S    
C82   O7    A    
C15   C56   S    
C14   C22   S    
C41   O28   A    
C36   H24   S    
C88   C90   S    
C66   O31   A    
C79   O55   A    
Cr2   O6    S    
C52   C71   S    
C19   H52   S    
Cr3   O11   S    
C4    C21   S    
C34   O17   A    
C7    H55   S    
C72   O41   A    
C23   O20   A    
Cr4   O30   S    
C77   O54   A    
C77   O3    A    
C12   O19   A    
C1    O14   A    
C28   H10   S    
C38   H26   S    
Cr5   O41   S    
C40   O27   A    
C83   O8    A    
H66   O49   S    
Cr8   O18   S    
C39   H30   S    
C3    C11   S    
C8    H57   S    
C71   O40   A    
C96   H34   S    
Cr5   O37   S    
Cr9   O19   S    
Cr4   O13   S    
Cr7   O39   S    
H70   O52   S    
C93   H1    S    
C27   C28   S    
C89   H47   S    
C10   C94   S    
Cr10  O47   S    
C86   C92   T    
C42   C87   S    
Cr7   O13   S    
C31   H18   S    
C37   C46   S    
C40   O22   A    
Cr8   O9    S    
Cr8   O44   S    
Cr5   O15   S    
Cr8   O22   S    
C39   C48   S    
C67   H42   S    
C22   H45   S    
C68   O32   A    
