data_mof_unit_24660.cif
_audit_creation_date              2012-12-10T19:42:13-0500
_audit_creation_method            fapswitch 2.2
_symmetry_space_group_name_H-M    P1
_symmetry_Int_Tables_number       1
_space_group_crystal_system       triclinic
_cell_length_a                    10.795279
_cell_length_b                    10.918607
_cell_length_c                    9.690011
_cell_angle_alpha                 90.200166
_cell_angle_beta                  89.959
_cell_angle_gamma                 90.002227
_cell_volume                      1142.14860524

loop_
_atom_site_label
_atom_site_type_symbol
_atom_type_description
_atom_site_fract_x
_atom_site_fract_y
_atom_site_fract_z
_atom_type_partial_charge
C1    C     C_R   0.498867 0.265346 0.499821 0.873101
C2    C     C_R   0.239401 0.852635 0.170931 -0.153100
C3    C     C_R   0.934068 0.574326 0.415190 -0.200219
C4    C     C_R   0.870998 0.492890 0.500233 -0.107102
C5    C     C_R   0.935305 0.409077 0.583982 -0.044973
C6    C     C_R   0.064993 0.408521 0.581766 0.120518
C7    C     C_R   0.128201 0.494930 0.499594 -0.112355
C8    C     C_R   0.062281 0.577044 0.414836 0.002834
C9    C     C_R   0.841675 0.344550 0.808297 -0.046144
C10   C     C_R   0.774516 0.260889 0.887643 -0.110127
C11   C     C_R   0.733429 0.151121 0.828699 -0.112716
C12   C     C_R   0.262351 0.497919 0.499990 0.838584
C13   C     C_R   0.759312 0.124953 0.690300 -0.128213
C14   C     C_R   0.825267 0.208986 0.610187 -0.131574
C15   C     C_R   0.867174 0.319038 0.669053 0.131019
C16   C     C_2   0.513229 0.932813 0.387121 -0.166075
C17   C     C_2   0.511288 0.866710 0.503305 -0.320129
C18   C     C_2   0.517085 0.066928 0.387862 -0.188577
C19   C     C_2   0.493382 0.133337 0.501324 -0.300945
C20   C     C_2   0.444961 0.416470 0.922010 -0.031084
C21   C     C_2   0.440117 0.419697 0.077567 -0.048413
C22   C     C_R   0.502817 0.734684 0.500328 0.854784
C23   C     C_R   0.737389 0.497461 0.500040 0.803586
C24   C     C_R   0.217219 0.872495 0.311250 -0.112318
C25   C     C_R   0.160947 0.781516 0.390524 -0.194887
C26   C     C_R   0.124495 0.670588 0.329277 0.073220
C27   C     C_R   0.145432 0.651306 0.187170 0.211453
C28   C     C_R   0.203817 0.742289 0.109122 -0.148386
Cu1   Cu    Cu3+1 0.500020 0.500020 0.638630 0.962673
Cu2   Cu    Cu3+1 0.499980 0.499980 0.361370 0.957051
H1    H     H_    0.283954 0.922914 0.109993 0.139548
H2    H     H_    0.681485 0.086399 0.890199 0.118706
H3    H     H_    0.727598 0.039886 0.644857 0.136395
H4    H     H_    0.843716 0.188510 0.502672 0.133785
H5    H     H_    0.512034 0.887834 0.286954 0.172569
H6    H     H_    0.518843 0.908012 0.604580 0.141126
H7    H     H_    0.538012 0.111768 0.290675 0.166090
H8    H     H_    0.468616 0.092383 0.599001 0.155779
H9    H     H_    0.399109 0.340682 0.870827 0.184533
H10   H     H_    0.538360 0.573046 0.894260 0.189283
H11   H     H_    0.384921 0.350261 0.128584 0.173952
H12   H     H_    0.243923 0.958361 0.358775 0.163813
H13   H     H_    0.555411 0.561257 0.106153 0.191074
H14   H     H_    0.144862 0.797752 0.499422 0.142051
H15   H     H_    0.221136 0.727720 0.000254 0.154313
H16   H     H_    0.883007 0.638476 0.351560 0.155082
H17   H     H_    0.872486 0.429685 0.854482 0.149585
H18   H     H_    0.754137 0.281244 0.994690 0.135719
N1    N     N_2   0.498640 0.498660 0.846910 -0.284834
N2    N     N_2   0.498610 0.498630 0.153040 -0.285684
O1    O     O_R   0.500020 0.321960 0.617040 -0.568351
O2    O     O_R   0.499980 0.321920 0.382900 -0.585099
O3    O     O_R   0.319660 0.500030 0.617070 -0.550593
O4    O     O_R   0.319620 0.499990 0.382930 -0.557942
O5    O     O_R   0.500020 0.678080 0.617100 -0.588704
O6    O     O_R   0.499980 0.678040 0.382960 -0.572633
O7    O     O_R   0.680380 0.500010 0.617070 -0.577844
O8    O     O_R   0.680340 0.499970 0.382930 -0.578620
I1    I     I_    0.092042 0.486961 0.086122 -0.421851
I2    I     I_    0.162452 0.268499 0.692355 -0.402733

loop_
_geom_bond_atom_site_label_1
_geom_bond_atom_site_label_2
_ccdc_geom_bond_type
C14   H4    S    
C23   O8    A    
C22   O6    A    
H13   N2    S    
C13   H3    S    
C22   O5    A    
C17   H6    S    
Cu1   Cu2   S    
C24   H12   S    
C9    C10   A    
C3    H16   S    
C17   C22   S    
C27   I1    S    
Cu2   N2    S    
C7    C8    A    
C25   C26   A    
Cu1   N1    S    
C13   C14   A    
C24   C25   A    
C10   H18   S    
Cu2   O4    S    
H10   N1    S    
C26   C27   A    
C20   N1    D    
Cu1   O3    S    
C21   H11   S    
C5    C6    A    
Cu2   O8    S    
C25   H14   S    
C21   N2    D    
C19   H8    S    
C18   H7    S    
Cu1   O7    S    
C11   H2    S    
C9    H17   S    
C6    C7    A    
C16   H5    S    
C2    C24   A    
C7    C12   S    
C1    O2    A    
C28   H15   S    
C5    C15   S    
C1    C19   S    
C10   C11   A    
C3    C4    A    
C6    I2    S    
C11   C13   A    
C8    C26   S    
C20   C21   S    
C3    C8    A    
C16   C18   S    
C18   C19   D    
Cu1   O1    S    
C27   C28   A    
C23   O7    A    
C20   H9    S    
Cu2   O2    S    
C14   C15   A    
C2    H1    S    
C2    C28   A    
C1    O1    A    
Cu1   O5    S    
C4    C23   S    
C9    C15   A    
Cu2   O6    S    
C12   O4    A    
C12   O3    A    
C16   C17   D    
C4    C5    A    
