data_mof_unit_19337.cif
_audit_creation_date              2012-12-10T20:27:54-0500
_audit_creation_method            fapswitch 2.2
_symmetry_space_group_name_H-M    P1
_symmetry_Int_Tables_number       1
_space_group_crystal_system       triclinic
_cell_length_a                    12.964567
_cell_length_b                    10.764105
_cell_length_c                    9.946464
_cell_angle_alpha                 88.496198
_cell_angle_beta                  95.209736
_cell_angle_gamma                 93.072374
_cell_volume                      1380.00865097

loop_
_atom_site_label
_atom_site_type_symbol
_atom_type_description
_atom_site_fract_x
_atom_site_fract_y
_atom_site_fract_z
_atom_type_partial_charge
C1    C     C_R   0.502500 0.260040 0.501635 0.973466
C2    C     C_R   0.028295 0.483810 0.561362 -0.131073
C3    C     C_R   0.975763 0.522590 0.438773 -0.123402
C4    C     C_R   0.868643 0.504498 0.422799 0.443880
C5    C     C_R   0.865736 0.445392 0.661397 0.297769
C6    C     C_R   0.974473 0.450602 0.674220 0.439926
C7    C     C_R   0.485904 0.056510 0.615098 -0.082138
C8    C     C_R   0.517043 0.128615 0.506047 -0.241544
C9    C     C_R   0.568542 0.072488 0.405203 0.473620
C10   C     C_R   0.575681 0.942422 0.408654 0.316637
C11   C     C_R   0.521251 0.871563 0.503471 -0.234865
C12   C     C_R   0.299360 0.504804 0.475075 0.974055
C13   C     C_R   0.486589 0.930467 0.611789 -0.200269
C14   C     C_3   0.389872 0.908614 0.684149 0.839870
C15   C     C_3   0.390076 0.051949 0.690029 0.795549
C16   C     C_R   0.409764 0.489345 0.060589 0.057051
C17   C     C_R   0.585565 0.541115 0.080984 0.294984
C18   C     C_R   0.588183 0.533938 0.936926 0.510597
C19   C     C_R   0.408893 0.497386 0.919372 -0.063847
C20   C     C_3   0.316588 0.408052 0.905086 0.058190
C21   C     C_3   0.325319 0.390363 0.059210 0.887101
C22   C     C_R   0.505875 0.739505 0.499603 0.939007
C23   C     C_R   0.701283 0.492690 0.524622 0.942299
C24   C     C_R   0.813264 0.480114 0.536853 -0.336154
C25   C     C_R   0.189202 0.517292 0.461663 -0.148575
C26   C     C_R   0.031260 0.575658 0.333618 0.363436
C27   C     C_R   0.140384 0.579712 0.349829 0.361246
C28   C     C_R   0.133982 0.473983 0.567856 -0.328352
H1    H     H_    0.245180 0.453691 0.864809 0.120496
H2    H     H_    0.173385 0.430215 0.655121 0.211332
N1    N     N_R   0.499290 0.499140 0.142710 -0.173205
N2    N     N_R   0.499290 0.499180 0.857070 -0.125884
O1    O     O_R   0.500010 0.316790 0.614690 -0.574942
O2    O     O_R   0.500000 0.316760 0.385350 -0.567457
O3    O     O_R   0.346360 0.499990 0.595720 -0.679213
O4    O     O_R   0.346350 0.499960 0.366370 -0.518982
O5    O     O_R   0.500000 0.683240 0.614650 -0.614095
O6    O     O_R   0.499990 0.683210 0.385310 -0.634163
O7    O     O_R   0.653650 0.500040 0.633630 -0.521836
O8    O     O_R   0.653640 0.500010 0.404280 -0.595389
Zn1   Zn    Zn3+2 0.500010 0.500020 0.653130 1.033723
Zn2   Zn    Zn3+2 0.499990 0.499980 0.346870 1.043883
O9    O     O_3   0.818644 0.504761 0.294347 -0.485472
C29   C     C_3   0.820888 0.384436 0.241642 -0.108296
H3    H     H_    0.901663 0.359271 0.229933 0.107125
H4    H     H_    0.778101 0.383292 0.139868 0.198480
H5    H     H_    0.782032 0.313283 0.305738 0.167776
O10   O     O_3   0.400323 0.846564 0.814398 -0.655505
C30   C     C_3   0.502304 0.848102 0.878405 -0.363090
H6    H     H_    0.537662 0.943635 0.890784 0.190272
H7    H     H_    0.552189 0.792233 0.822175 0.198095
H8    H     H_    0.499515 0.805110 0.980686 0.200072
O11   O     O_3   0.309105 0.112097 0.612106 -0.624596
C31   C     C_3   0.211643 0.091253 0.664293 -0.248869
H9    H     H_    0.214602 0.056504 0.770532 0.134353
H10   H     H_    0.162770 0.025174 0.599072 0.190444
H11   H     H_    0.171895 0.180200 0.659139 0.186454
O12   O     O_3   0.415420 0.100742 0.819021 -0.733425
H12   H     H_    0.367760 0.060079 0.881158 0.332681
O13   O     O_3   0.666881 0.599540 0.155005 -0.701957
H13   H     H_    0.636730 0.646044 0.224776 0.376868
O14   O     O_3   0.680329 0.550459 0.876619 -0.542551
C32   C     C_3   0.738692 0.660943 0.913194 -0.166331
H14   H     H_    0.774096 0.699799 0.822682 0.141357
H15   H     H_    0.803054 0.638766 0.989958 0.236288
H16   H     H_    0.692714 0.734576 0.951050 0.126970
O15   O     O_3   0.335664 0.301842 0.837706 -0.702175
H17   H     H_    0.320053 0.320783 0.740583 0.390533
O16   O     O_3   0.239191 0.429103 0.122058 -0.598696
C33   C     C_3   0.159860 0.333878 0.120101 -0.335934
H18   H     H_    0.180380 0.259930 0.196418 0.195283
H19   H     H_    0.142324 0.293680 0.018070 0.181799
H20   H     H_    0.087988 0.373901 0.148237 0.186878
O17   O     O_3   0.364340 0.277281 0.110793 -0.764328
H21   H     H_    0.320474 0.208660 0.067330 0.331226
O18   O     O_3   0.809469 0.401656 0.766028 -0.689424
H22   H     H_    0.856622 0.372140 0.842728 0.365485
O19   O     O_3   0.977837 0.626041 0.220296 -0.729567
H23   H     H_    0.020747 0.623788 0.143279 0.317063
O20   O     O_3   0.028302 0.430096 0.798659 -0.633822
C34   C     C_3   0.042233 0.545378 0.864177 -0.388191
H24   H     H_    0.966778 0.579641 0.888328 0.182574
H25   H     H_    0.083905 0.616793 0.803349 0.162281
H26   H     H_    0.090649 0.532956 0.960283 0.227911
O21   O     O_3   0.200614 0.646168 0.262262 -0.715068
H27   H     H_    0.161748 0.717100 0.222832 0.331484
O22   O     O_3   0.618359 0.146344 0.311856 -0.622252
C35   C     C_3   0.574338 0.121638 0.179326 -0.099787
H28   H     H_    0.581601 0.208237 0.117105 0.187551
H29   H     H_    0.490338 0.092005 0.173913 0.168327
H30   H     H_    0.618013 0.050354 0.133288 0.184505
O23   O     O_3   0.636403 0.889293 0.321307 -0.763046
H31   H     H_    0.663310 0.812508 0.365263 0.329683
O24   O     O_3   0.308046 0.857048 0.593741 -0.629153
C36   C     C_3   0.234019 0.784091 0.661095 -0.237303
H32   H     H_    0.205831 0.834317 0.745702 0.142934
H33   H     H_    0.266601 0.695139 0.699035 0.217330
H34   H     H_    0.166105 0.761673 0.588217 0.166027

loop_
_geom_bond_atom_site_label_1
_geom_bond_atom_site_label_2
_ccdc_geom_bond_type
O22   C35   S    
C32   H15   S    
C16   C21   S    
N1    Zn2   S    
C1    C8    S    
C20   O15   S    
O4    Zn2   S    
C36   H32   S    
O2    Zn2   S    
C34   H24   S    
C36   H34   S    
C1    O1    A    
C7    C8    A    
O7    Zn1   S    
O11   C31   S    
C25   C28   A    
C26   C27   A    
C26   O19   S    
C15   O11   S    
O6    Zn2   S    
O16   C33   S    
C5    C6    A    
C4    C24   A    
C23   O8    A    
C22   O6    A    
C27   O21   S    
C19   C20   S    
C8    C9    A    
C30   H7    S    
N2    Zn1   S    
C33   H18   S    
C12   O4    A    
C9    C10   A    
C29   H5    S    
C7    C15   S    
C32   H16   S    
C10   O23   S    
C13   C14   S    
C2    C6    A    
C19   N2    A    
C34   H25   S    
C29   H4    S    
C1    O2    A    
C20   H1    S    
C31   H10   S    
O17   H21   S    
O15   H17   S    
O18   H22   S    
O19   H23   S    
C18   O14   S    
C14   O10   S    
O12   H12   S    
O21   H27   S    
C22   O5    A    
C21   O17   S    
C21   O16   S    
O13   H13   S    
C16   N1    A    
O9    C29   S    
O14   C32   S    
C6    O20   S    
C35   H30   S    
C23   C24   S    
C30   H8    S    
C33   H20   S    
C17   C18   A    
C20   C21   S    
C12   O3    A    
O10   C30   S    
C35   H29   S    
C17   N1    A    
C15   O12   S    
C18   N2    A    
C3    C4    A    
C34   H26   S    
C29   H3    S    
C31   H9    S    
C3    C26   A    
O20   C34   S    
C33   H19   S    
C36   H33   S    
C4    O9    S    
C25   C27   A    
C11   C22   S    
C12   C25   S    
O1    Zn1   S    
C5    O18   S    
C28   H2    S    
C2    C3    A    
C9    O22   S    
C11   C13   A    
C5    C24   A    
C16   C19   A    
C23   O7    A    
O8    Zn2   S    
O23   H31   S    
O5    Zn1   S    
O24   C36   S    
O3    Zn1   S    
C10   C11   A    
C17   O13   S    
C32   H14   S    
C7    C13   A    
C35   H28   S    
C30   H6    S    
C14   C15   S    
C2    C28   A    
C14   O24   S    
C31   H11   S    
