data_mof_unit_58318.cif
_audit_creation_date              2012-12-11T14:42:02-0500
_audit_creation_method            fapswitch 2.2
_symmetry_space_group_name_H-M    P1
_symmetry_Int_Tables_number       1
_space_group_crystal_system       triclinic
_cell_length_a                    18.962208
_cell_length_b                    10.967022
_cell_length_c                    18.87423
_cell_angle_alpha                 89.929515
_cell_angle_beta                  90.283714
_cell_angle_gamma                 89.763412
_cell_volume                      3924.98044401

loop_
_atom_site_label
_atom_site_type_symbol
_atom_type_description
_atom_site_fract_x
_atom_site_fract_y
_atom_site_fract_z
_atom_type_partial_charge
C1    C     C_R   0.727241 0.956481 0.853635 0.549412
C2    C     C_R   0.238783 0.431866 0.929459 0.034710
C3    C     C_R   0.252544 0.917497 0.075755 0.029565
C4    C     C_R   0.747541 0.917345 0.924247 0.028427
C5    C     C_R   0.818245 0.391151 0.030042 -0.131053
C6    C     C_R   0.181522 0.392679 0.970148 -0.131008
C7    C     C_R   0.292658 0.826973 0.043221 -0.136994
C8    C     C_R   0.707754 0.826874 0.956815 -0.137672
C9    C     C_R   0.812848 0.385063 0.957579 -0.133157
C10   C     C_R   0.186907 0.386678 0.042621 -0.132235
C11   C     C_R   0.288799 0.812458 0.970995 -0.124873
C12   C     C_R   0.272756 0.956446 0.146350 0.548756
C13   C     C_R   0.711531 0.812384 0.029052 -0.124726
C14   C     C_R   0.748538 0.410981 0.924051 0.030016
C15   C     C_R   0.251273 0.411398 0.076042 0.031671
C16   C     C_R   0.243199 0.885847 0.929932 0.032305
C17   C     C_R   0.756749 0.885716 0.070078 0.033796
C18   C     C_R   0.533103 0.272052 0.527973 -0.132256
C19   C     C_R   0.527885 0.265496 0.455965 -0.132718
C20   C     C_R   0.032993 0.772130 0.527993 -0.132274
C21   C     C_R   0.027808 0.765576 0.455985 -0.132829
C22   C     C_R   0.496859 0.163619 0.425561 0.042586
C23   C     C_R   0.225565 0.459498 0.855251 0.548556
C24   C     C_R   0.512715 0.172962 0.570262 0.015952
C25   C     C_R   0.996875 0.663632 0.425557 0.042638
C26   C     C_R   0.012691 0.672965 0.570266 0.015918
C27   C     C_R   0.476023 0.063813 0.467349 -0.093898
C28   C     C_R   0.485761 0.067427 0.539886 -0.141624
C29   C     C_R   0.976118 0.563756 0.467328 -0.093983
C30   C     C_R   0.985837 0.567368 0.539868 -0.141833
C31   C     C_R   0.794735 0.301361 0.523375 0.037716
C32   C     C_R   0.183719 0.419500 0.454527 0.039469
C33   C     C_R   0.294724 0.801311 0.523365 0.037576
C34   C     C_R   0.774376 0.459360 0.144768 0.547930
C35   C     C_R   0.683721 0.919570 0.454520 0.039168
C36   C     C_R   0.793963 0.316741 0.450681 -0.130239
C37   C     C_R   0.177263 0.431679 0.527314 -0.133711
C38   C     C_R   0.293959 0.816710 0.450671 -0.130319
C39   C     C_R   0.677264 0.931767 0.527308 -0.133545
C40   C     C_R   0.530289 0.177730 0.851027 0.557801
C41   C     C_R   0.469758 0.177586 0.149006 0.556474
C42   C     C_R   0.030093 0.677780 0.850931 0.556295
C43   C     C_R   0.969886 0.677614 0.149058 0.555111
C44   C     C_R   0.749206 0.402407 0.418965 -0.000875
C45   C     C_R   0.697711 0.465344 0.037168 -0.146037
C46   C     C_R   0.237140 0.433774 0.571523 -0.001882
C47   C     C_R   0.249196 0.902367 0.418954 -0.000655
C48   C     C_R   0.737138 0.933794 0.571521 -0.001425
C49   C     C_R   0.696474 0.459133 0.458784 -0.146098
C50   C     C_R   0.304265 0.425146 0.542766 -0.104504
C51   C     C_R   0.196440 0.959036 0.458767 -0.145779
C52   C     C_R   0.804262 0.925113 0.542770 -0.104500
C53   C     C_R   0.691064 0.434011 0.530731 -0.162133
C54   C     C_R   0.311576 0.413014 0.469925 -0.117887
C55   C     C_R   0.191020 0.933887 0.530710 -0.161930
C56   C     C_R   0.302146 0.464688 0.962833 -0.146544
C57   C     C_R   0.811575 0.912972 0.469931 -0.118139
C58   C     C_R   0.739852 0.355752 0.564096 0.003461
C59   C     C_R   0.251611 0.407937 0.425501 0.001897
C60   C     C_R   0.239827 0.855670 0.564084 0.003151
C61   C     C_R   0.751614 0.907939 0.425501 0.001479
C62   C     C_R   0.738245 0.364217 0.852740 0.556315
C63   C     C_R   0.261678 0.364201 0.147307 0.554388
C64   C     C_R   0.236735 0.857607 0.855056 0.558107
C65   C     C_R   0.763237 0.857462 0.144963 0.556308
C66   C     C_R   0.726247 0.958460 0.646073 0.538819
C67   C     C_R   0.203859 0.986881 0.035790 -0.132579
C68   C     C_R   0.271063 0.952422 0.351155 0.548921
C69   C     C_R   0.226248 0.458458 0.646073 0.540689
C70   C     C_R   0.771065 0.452428 0.351157 0.550819
C71   C     C_R   0.531705 0.177142 0.643675 0.545127
C72   C     C_R   0.469860 0.175380 0.355119 0.552798
C73   C     C_R   0.031699 0.677141 0.643677 0.544561
C74   C     C_R   0.969866 0.675381 0.355116 0.552535
C75   C     C_R   0.728820 0.320750 0.638187 0.552499
C76   C     C_R   0.260964 0.361831 0.353880 0.577665
C77   C     C_R   0.228809 0.820707 0.638187 0.553018
C78   C     C_R   0.795893 0.986611 0.964183 -0.132971
C79   C     C_R   0.760964 0.861827 0.353881 0.579554
C80   C     C_2   0.498062 0.168832 0.921135 -0.109763
C81   C     C_2   0.502039 0.168536 0.078924 -0.108192
C82   C     C_2   0.997993 0.669488 0.921166 -0.106177
C83   C     C_2   0.001852 0.669004 0.078766 -0.104724
C84   C     C_2   0.491500 0.069957 0.037979 -0.156558
C85   C     C_2   0.508736 0.070002 0.962110 -0.156553
C86   C     C_2   0.992099 0.569842 0.038132 -0.163046
C87   C     C_2   0.007196 0.569808 0.961719 -0.163134
C88   C     C_R   0.691150 0.453748 0.963904 -0.142239
C89   C     C_R   0.761057 0.431573 0.070636 0.035756
C90   C     C_R   0.308687 0.453176 0.036101 -0.142027
C91   C     C_R   0.198912 0.970450 0.962854 -0.140123
C92   C     C_R   0.800760 0.970206 0.037132 -0.139661
C93   C     C_2   0.859459 0.242253 0.552760 0.593968
C94   C     C_2   0.118995 0.415179 0.410427 0.582133
C95   C     C_2   0.359454 0.742209 0.552746 0.593690
C96   C     C_2   0.618997 0.915333 0.410414 0.582005
Cr1   Cr    Cr6+3 0.769270 0.163730 0.750710 1.043518
Cr2   Cr    Cr6+3 0.385840 0.322500 0.252290 1.031205
Cr3   Cr    Cr6+3 0.114160 0.822500 0.747710 1.023953
Cr4   Cr    Cr6+3 0.885840 0.822500 0.252290 1.034742
Cr5   Cr    Cr6+3 0.230730 0.163730 0.249290 1.042450
Cr6   Cr    Cr6+3 0.269270 0.663730 0.750710 1.044096
Cr7   Cr    Cr6+3 0.730730 0.663730 0.249290 1.042663
Cr8   Cr    Cr6+3 0.612620 0.009790 0.748780 1.025970
Cr9   Cr    Cr6+3 0.387380 0.009790 0.251220 1.027453
Cr10  Cr    Cr6+3 0.112620 0.509790 0.748780 1.022093
Cr11  Cr    Cr6+3 0.887380 0.509790 0.251220 1.023659
Cr12  Cr    Cr6+3 0.614160 0.322500 0.747710 1.020411
H1    H     H_    0.468966 0.987278 0.059905 0.157095
H2    H     H_    0.350630 0.426898 0.576524 0.159091
H3    H     H_    0.161756 0.026766 0.435261 0.154262
H4    H     H_    0.850625 0.926825 0.576532 0.158961
H5    H     H_    0.650370 0.479788 0.560774 0.142788
H6    H     H_    0.364202 0.400954 0.448881 0.165475
H7    H     H_    0.150307 0.979625 0.560747 0.142838
H8    H     H_    0.864199 0.900868 0.448892 0.165310
H9    H     H_    0.526332 0.249753 0.056984 0.106641
H10   H     H_    0.473695 0.250250 0.943059 0.106221
H11   H     H_    0.024718 0.751100 0.056422 0.112257
H12   H     H_    0.531363 0.987156 0.940201 0.157333
H13   H     H_    0.975495 0.752073 0.943568 0.112178
H14   H     H_    0.640731 0.473179 0.939056 0.128779
H15   H     H_    0.359148 0.471723 0.060876 0.129206
H16   H     H_    0.161885 0.024837 0.932283 0.125502
H17   H     H_    0.837511 0.024526 0.067688 0.125790
H18   H     H_    0.653592 0.499779 0.067510 0.118718
H19   H     H_    0.346313 0.498216 0.932411 0.118736
H20   H     H_    0.172425 0.057957 0.060113 0.135687
H21   H     H_    0.827091 0.057626 0.939831 0.135929
H22   H     H_    0.868307 0.366475 0.053918 0.126554
H23   H     H_    0.972072 0.486161 0.060984 0.141892
H24   H     H_    0.131444 0.368812 0.946329 0.126786
H25   H     H_    0.329916 0.771634 0.072988 0.130551
H26   H     H_    0.670778 0.771599 0.927064 0.130555
H27   H     H_    0.858185 0.352504 0.928295 0.132231
H28   H     H_    0.141549 0.355001 0.072007 0.132308
H29   H     H_    0.321594 0.742338 0.947570 0.138592
H30   H     H_    0.678977 0.742332 0.052511 0.138747
H31   H     H_    0.554253 0.354777 0.550335 0.146334
H32   H     H_    0.543411 0.343644 0.424531 0.143484
H33   H     H_    0.054063 0.854909 0.550366 0.146288
H34   H     H_    0.026707 0.485645 0.938790 0.141561
H35   H     H_    0.043277 0.843779 0.424567 0.143447
H36   H     H_    0.449768 0.985489 0.444514 0.180408
H37   H     H_    0.471527 0.989951 0.572130 0.180402
H38   H     H_    0.949933 0.485377 0.444476 0.180444
H39   H     H_    0.971675 0.489832 0.572097 0.180243
H40   H     H_    0.943838 0.254138 0.617996 0.331972
H41   H     H_    0.070580 0.463580 0.319213 0.341551
H42   H     H_    0.443834 0.754085 0.617978 0.332078
H43   H     H_    0.570620 0.963717 0.319179 0.342353
H44   H     H_    0.835279 0.273488 0.419941 0.171572
H45   H     H_    0.124932 0.442518 0.549392 0.162457
H46   H     H_    0.335285 0.773482 0.419933 0.171423
H47   H     H_    0.624936 0.942670 0.549384 0.162535
H48   H     H_    0.661802 0.526883 0.435280 0.154174
O1    O     O_R   0.784320 0.290430 0.830510 -0.520802
O2    O     O_R   0.456080 0.282180 0.333210 -0.523231
O3    O     O_R   0.043920 0.782180 0.666790 -0.530303
O4    O     O_R   0.956080 0.782180 0.333210 -0.523408
O5    O     O_R   0.679040 0.374160 0.674430 -0.508204
O6    O     O_R   0.320960 0.374160 0.325570 -0.509200
O7    O     O_R   0.179040 0.874160 0.674430 -0.506692
O8    O     O_R   0.820960 0.874160 0.325570 -0.508140
O9    O     O_3   0.665350 0.165340 0.749070 -0.272446
O10   O     O_3   0.334650 0.165340 0.250930 -0.256384
O11   O     O_3   0.165350 0.665340 0.749070 -0.275304
O12   O     O_R   0.215680 0.290430 0.169490 -0.521607
O13   O     O_3   0.834650 0.665340 0.250930 -0.259269
O14   O     O_R   0.762640 0.040960 0.825200 -0.507493
O15   O     O_R   0.237360 0.040960 0.174800 -0.508457
O16   O     O_R   0.262640 0.540960 0.825200 -0.508668
O17   O     O_R   0.737360 0.540960 0.174800 -0.509853
O18   O     O_R   0.667400 0.923970 0.829950 -0.521665
O19   O     O_R   0.332600 0.923970 0.170050 -0.523599
O20   O     O_R   0.167400 0.423970 0.829950 -0.524205
O21   O     O_R   0.832600 0.423970 0.170050 -0.526211
O22   O     O_R   0.553960 0.081340 0.821780 -0.491263
O23   O     O_R   0.284320 0.790430 0.830510 -0.520262
O24   O     O_R   0.446040 0.081340 0.178220 -0.497324
O25   O     O_R   0.053960 0.581340 0.821780 -0.495781
O26   O     O_R   0.946040 0.581340 0.178220 -0.501795
O27   O     O_R   0.543180 0.283240 0.826740 -0.516540
O28   O     O_R   0.456820 0.283240 0.173260 -0.516707
O29   O     O_R   0.043180 0.783240 0.826740 -0.512785
O30   O     O_R   0.956820 0.783240 0.173260 -0.512748
O31   O     O_R   0.678360 0.375140 0.822710 -0.500251
O32   O     O_R   0.321640 0.375140 0.177290 -0.504037
O33   O     O_R   0.178360 0.875140 0.822710 -0.496902
O34   O     O_R   0.715680 0.790430 0.169490 -0.521284
O35   O     O_R   0.821640 0.875140 0.177290 -0.500641
O36   O     O_R   0.785050 0.289380 0.670560 -0.458004
O37   O     O_R   0.214950 0.289380 0.329440 -0.481363
O38   O     O_R   0.285050 0.789380 0.670560 -0.456069
O39   O     O_R   0.714950 0.789380 0.329440 -0.480139
O40   O     O_R   0.763320 0.039990 0.676930 -0.506334
O41   O     O_R   0.236680 0.039990 0.323070 -0.502329
O42   O     O_R   0.263320 0.539990 0.676930 -0.505744
O43   O     O_R   0.736680 0.539990 0.323070 -0.501736
O44   O     O_R   0.668130 0.922920 0.670000 -0.518739
O45   O     O_R   0.554640 0.080370 0.673500 -0.504126
O46   O     O_R   0.331870 0.922920 0.330000 -0.523562
O47   O     O_R   0.168130 0.422920 0.670000 -0.517064
O48   O     O_R   0.831870 0.422920 0.330000 -0.522075
O49   O     O_2   0.882093 0.148793 0.525905 -0.548626
O50   O     O_R   0.899570 0.301198 0.604674 -0.681066
O51   O     O_2   0.068638 0.354639 0.429842 -0.535328
O52   O     O_R   0.116308 0.477803 0.345884 -0.693975
O53   O     O_2   0.382106 0.648783 0.525867 -0.548844
O54   O     O_R   0.399558 0.801134 0.604672 -0.680247
O55   O     O_2   0.568582 0.854976 0.429868 -0.535495
O56   O     O_R   0.445360 0.080370 0.326500 -0.512864
O57   O     O_R   0.616366 0.977849 0.345834 -0.691907
O58   O     O_R   0.054640 0.580370 0.673500 -0.504313
O59   O     O_R   0.945360 0.580370 0.326500 -0.512851
O60   O     O_R   0.543920 0.282180 0.666790 -0.530123

loop_
_geom_bond_atom_site_label_1
_geom_bond_atom_site_label_2
_ccdc_geom_bond_type
C44   C49   A    
C77   O7    A    
C32   C94   S    
Cr12  O9    S    
Cr6   O11   S    
Cr3   O3    S    
C74   O59   A    
C85   H12   S    
C43   C83   S    
C90   H15   S    
C49   H48   S    
C76   O6    A    
C42   C82   S    
Cr7   O17   S    
C79   O8    A    
C4    C8    A    
C93   O49   D    
C92   H17   S    
C64   O33   A    
C72   O2    A    
C30   H39   S    
Cr1   O9    S    
C35   C96   S    
Cr8   O45   S    
C7    C11   A    
C47   C51   A    
Cr12  O60   S    
C28   H37   S    
C29   C30   A    
Cr9   O56   S    
C20   C26   A    
C18   C24   A    
H42   O54   S    
Cr1   O40   S    
C78   H21   S    
C10   H28   S    
C7    H25   S    
C3    C7    A    
C10   C15   A    
Cr6   O42   S    
Cr5   O41   S    
C86   H23   S    
C75   O5    A    
C52   H4    S    
C71   O60   A    
C14   C62   S    
C33   C95   S    
C1    O14   A    
C50   H2    S    
C26   C73   S    
C79   O39   A    
Cr9   O10   S    
C25   C74   S    
C56   H19   S    
C83   H11   S    
C46   C69   S    
Cr2   O32   S    
C3    C12   S    
C41   O24   A    
Cr10  O47   S    
Cr1   O36   S    
Cr8   O22   S    
C23   O16   A    
C65   O35   A    
C53   H5    S    
C19   H32   S    
Cr5   O10   S    
C42   O29   A    
C40   C80   S    
C41   O28   A    
C44   C70   S    
C57   H8    S    
C45   C89   A    
C82   H13   S    
H40   O50   S    
C40   O27   A    
C46   C50   A    
C56   C90   A    
Cr8   O9    S    
C96   O55   D    
C55   C60   A    
Cr11  O21   S    
Cr6   O16   S    
Cr6   O23   S    
Cr8   O44   S    
C2    C6    A    
C17   C92   A    
Cr7   O39   S    
C93   O50   S    
Cr6   O38   S    
H41   O52   S    
C22   C72   S    
Cr2   O6    S    
Cr5   O37   S    
C58   C75   S    
C12   O15   A    
Cr3   O11   S    
C54   C59   A    
C42   O25   A    
C25   C29   A    
Cr10  O58   S    
C80   H10   S    
C60   C77   S    
Cr11  O26   S    
C8    H26   S    
C95   O53   D    
Cr2   O2    S    
C19   C22   A    
C94   O52   S    
C84   C85   S    
C21   H35   S    
C88   H14   S    
C52   C57   A    
C29   H38   S    
Cr3   O33   S    
C64   O23   A    
C86   C87   S    
C36   H44   S    
Cr8   O18   S    
C23   O20   A    
C43   O30   A    
C78   C92   A    
C31   C93   S    
C68   O46   A    
Cr10  O20   S    
Cr1   O14   S    
C39   H47   S    
C68   O41   A    
Cr1   O1    S    
Cr5   O12   S    
C35   C39   A    
C77   O38   A    
Cr10  O25   S    
C4    C78   A    
C80   C85   D    
C37   H45   S    
C11   C16   A    
Cr4   O4    S    
C61   C79   S    
C45   H18   S    
C41   C81   S    
C45   C88   A    
C67   C91   A    
C27   H36   S    
C62   O1    A    
Cr4   O8    S    
Cr7   O34   S    
C50   C54   A    
C32   C37   A    
C65   O34   A    
C38   C47   A    
Cr2   O10   S    
C16   C91   A    
C12   O19   A    
Cr3   O7    S    
C9    H27   S    
C81   H9    S    
C6    H24   S    
C63   O12   A    
C69   O47   A    
C33   C60   A    
C91   H16   S    
Cr9   O19   S    
C69   O42   A    
C40   O22   A    
C73   O58   A    
C36   C44   A    
Cr4   O35   S    
C38   H46   S    
Cr9   O24   S    
C47   C68   S    
Cr3   O29   S    
C81   C84   D    
C31   C58   A    
Cr11  O13   S    
C71   O45   A    
C21   C25   A    
C5    H22   S    
C51   H3    S    
C43   O26   A    
Cr12  O27   S    
Cr4   O13   S    
C95   O54   S    
C20   H33   S    
C3    C67   A    
C94   O51   D    
C24   C28   A    
C84   H1    S    
C5    C9    A    
C6    C10   A    
C66   O40   A    
C53   C58   A    
C57   C61   A    
C74   O4    A    
Cr12  O5    S    
C73   O3    A    
Cr12  O31   S    
C17   C65   S    
C33   C38   A    
C13   C17   A    
Cr4   O30   S    
C22   C27   A    
C1    C4    S    
C13   H30   S    
C75   O36   A    
C11   H29   S    
C34   C89   S    
C14   C88   A    
Cr11  O48   S    
C1    O18   A    
C34   O17   A    
C2    C56   A    
C67   H20   S    
Cr10  O11   S    
C15   C90   A    
Cr9   O46   S    
C72   O56   A    
C55   H7    S    
C35   C61   A    
C49   C53   A    
C54   H6    S    
Cr7   O43   S    
C9    C14   A    
Cr5   O15   S    
C51   C55   A    
C87   H34   S    
Cr2   O28   S    
C18   H31   S    
C5    C89   A    
C76   O37   A    
C96   O57   S    
C8    C13   A    
C48   C52   A    
C83   C86   D    
Cr11  O59   S    
C20   C21   A    
C70   O48   A    
C63   O32   A    
H43   O57   S    
C2    C23   S    
Cr7   O13   S    
C18   C19   A    
C15   C63   S    
C31   C36   A    
C39   C48   A    
C34   O21   A    
C16   C64   S    
C32   C59   A    
C48   C66   S    
C37   C46   A    
C59   C76   S    
C70   O43   A    
C66   O44   A    
C82   C87   D    
C24   C71   S    
C62   O31   A    
C27   C28   A    
C26   C30   A    
