data_mof_unit_53720.cif
_audit_creation_date              2012-12-10T21:13:58-0500
_audit_creation_method            fapswitch 2.2
_symmetry_space_group_name_H-M    P1
_symmetry_Int_Tables_number       1
_space_group_crystal_system       triclinic
_cell_length_a                    15.239705
_cell_length_b                    16.762054
_cell_length_c                    17.419746
_cell_angle_alpha                 90.276274
_cell_angle_beta                  90.861737
_cell_angle_gamma                 68.621174
_cell_volume                      4143.19108562

loop_
_atom_site_label
_atom_site_type_symbol
_atom_type_description
_atom_site_fract_x
_atom_site_fract_y
_atom_site_fract_z
_atom_type_partial_charge
C1    C     C_R   0.499478 0.500229 0.646664 0.962666
C2    C     C_R   0.499227 0.500164 0.353167 0.946476
C3    C     C_R   0.082607 0.428056 0.381371 0.447525
C4    C     C_R   0.882849 0.620444 0.440425 0.457329
C5    C     C_R   0.041463 0.366052 0.379088 -0.293871
C6    C     C_R   0.927144 0.678594 0.455208 -0.267914
C7    C     C_R   0.516026 0.434474 0.146504 0.366900
C8    C     C_R   0.524573 0.550726 0.852384 0.368399
C9    C     C_R   0.537745 0.431989 0.224800 0.387311
C10   C     C_R   0.545573 0.534953 0.774923 0.363981
C11   C     C_R   0.489551 0.503581 0.270518 -0.292403
C12   C     C_R   0.488851 0.504091 0.728676 -0.287774
C13   C     C_R   0.427346 0.579102 0.237307 -0.381104
C14   C     C_R   0.417490 0.481418 0.760298 -0.405802
C15   C     C_R   0.412921 0.584915 0.158271 0.464620
C16   C     C_R   0.402154 0.489034 0.838933 0.484333
C17   C     C_R   0.456420 0.512176 0.113533 -0.185830
C18   C     C_R   0.455195 0.524468 0.884329 -0.184955
C19   C     C_1   0.448297 0.519578 0.032858 0.083354
C20   C     C_1   0.447701 0.523620 0.964911 0.078897
C21   C     C_R   0.553371 0.150727 0.555144 -0.504325
C22   C     C_R   0.436497 0.854130 0.456008 -0.504972
C23   C     C_R   0.677372 0.447026 0.498377 0.869554
C24   C     C_R   0.322859 0.553180 0.498761 0.876246
C25   C     C_R   0.552383 0.236462 0.554774 0.610114
C26   C     C_R   0.435866 0.768853 0.455178 0.593976
C27   C     C_R   0.448452 0.268363 0.446198 0.056467
C28   C     C_R   0.562554 0.727073 0.546529 0.069848
C29   C     C_R   0.444483 0.184967 0.447641 0.383269
C30   C     C_R   0.563764 0.811297 0.548785 0.383970
C31   C     C_R   0.499704 0.124683 0.501426 -0.012308
C32   C     C_R   0.501200 0.875296 0.501692 -0.035912
C33   C     C_1   0.501763 0.036112 0.501344 0.046474
C34   C     C_1   0.501948 0.962979 0.501057 0.031517
C35   C     C_R   0.778342 0.416485 0.480473 -0.224088
C36   C     C_R   0.220208 0.588089 0.488259 -0.199236
C37   C     C_R   0.917095 0.317346 0.418294 -0.284089
C38   C     C_R   0.068654 0.705416 0.489108 -0.278072
C39   C     C_R   0.829894 0.333303 0.452887 0.475805
C40   C     C_R   0.165709 0.674739 0.503722 0.476593
C41   C     C_R   0.818884 0.478785 0.478557 -0.267240
C42   C     C_R   0.176894 0.534037 0.458582 -0.276900
C43   C     C_R   0.902220 0.465450 0.439863 0.090758
C44   C     C_R   0.080033 0.564105 0.443066 0.096288
C45   C     C_R   0.953922 0.382438 0.412330 0.033036
C46   C     C_R   0.025125 0.650012 0.461832 0.017696
C47   C     C_R   0.938377 0.531646 0.432683 -0.118034
C48   C     C_R   0.035131 0.507927 0.418102 -0.098793
H1    H     H_    0.079101 0.304639 0.352739 0.159910
H2    H     H_    0.884437 0.745363 0.464961 0.177458
H3    H     H_    0.594947 0.103298 0.595992 0.176001
H4    H     H_    0.387259 0.905157 0.422266 0.182096
H5    H     H_    0.219051 0.467121 0.451389 0.215786
H6    H     H_    0.783835 0.538753 0.507339 0.217807
H7    H     H_    0.955555 0.254063 0.395626 0.157075
H8    H     H_    0.027094 0.771778 0.501754 0.153913
H9    H     H_    0.389543 0.633310 0.272904 0.197459
H10   H     H_    0.373374 0.458684 0.723813 0.181117
N1    N     N_R   0.499980 0.292780 0.499970 -0.123468
N2    N     N_R   0.500020 0.707220 0.500030 -0.153613
O1    O     O_R   0.500000 0.433430 0.610870 -0.586117
O2    O     O_R   0.500000 0.566570 0.389130 -0.604825
O3    O     O_R   0.500010 0.566520 0.610900 -0.588467
O4    O     O_R   0.499990 0.433480 0.389100 -0.566332
O5    O     O_R   0.632240 0.395450 0.499980 -0.549111
O6    O     O_R   0.367760 0.604550 0.500020 -0.531986
O7    O     O_R   0.632250 0.528530 0.500000 -0.613378
O8    O     O_R   0.367750 0.471470 0.500000 -0.628050
Zn1   Zn    Zn3+2 0.500000 0.411140 0.499980 1.004376
Zn2   Zn    Zn3+2 0.500000 0.588860 0.500020 0.988598
O9    O     O_3   0.605541 0.267101 0.604556 -0.631309
C49   C     C_3   0.643930 0.217115 0.670561 0.035051
H11   H     H_    0.693809 0.244147 0.697080 0.162886
H12   H     H_    0.688296 0.149930 0.656645 0.122345
C50   C     C_3   0.567901 0.224257 0.729839 -0.356919
H13   H     H_    0.525422 0.292954 0.739942 0.237065
H14   H     H_    0.519902 0.192596 0.708199 0.213777
C51   C     C_3   0.612172 0.182770 0.805782 -0.976248
H15   H     H_    0.656540 0.114402 0.796694 0.273413
H16   H     H_    0.556134 0.186377 0.847089 0.259140
H17   H     H_    0.656298 0.216662 0.830924 0.265202
O10   O     O_3   0.370601 0.744137 0.413784 -0.590555
C52   C     C_3   0.316954 0.803171 0.357482 0.065202
H18   H     H_    0.294887 0.766476 0.313031 0.154538
H19   H     H_    0.359074 0.834042 0.325861 0.116818
C53   C     C_3   0.226260 0.867468 0.391668 -0.315117
H20   H     H_    0.179025 0.833181 0.407540 0.256110
H21   H     H_    0.241809 0.897244 0.444636 0.222069
C54   C     C_3   0.174684 0.937844 0.334097 -0.983986
H22   H     H_    0.219703 0.974377 0.318454 0.269029
H23   H     H_    0.108946 0.982714 0.359952 0.271045
H24   H     H_    0.155966 0.909636 0.281391 0.270489
N3    N     N_3   0.400155 0.327483 0.387166 -0.383033
H25   H     H_    0.422927 0.298688 0.334067 0.201729
H26   H     H_    0.328550 0.339238 0.391441 0.210978
N4    N     N_3   0.626717 0.661829 0.593921 -0.368767
H27   H     H_    0.611913 0.679564 0.651195 0.203029
H28   H     H_    0.694968 0.659236 0.583110 0.209645
O11   O     O_3   0.393561 0.160235 0.392079 -0.646481
C55   C     C_3   0.297067 0.188541 0.411903 0.079888
H29   H     H_    0.255067 0.215449 0.359127 0.186570
H30   H     H_    0.275339 0.240430 0.456071 0.119058
C56   C     C_3   0.272394 0.112807 0.439628 -0.334983
H31   H     H_    0.299915 0.058764 0.398577 0.232919
H32   H     H_    0.305847 0.091487 0.496724 0.212589
C57   C     C_3   0.166155 0.136718 0.446637 -0.993016
H33   H     H_    0.136003 0.192986 0.484994 0.270318
H34   H     H_    0.151411 0.081934 0.471154 0.272541
H35   H     H_    0.131627 0.151661 0.389163 0.261197
O12   O     O_3   0.632625 0.827976 0.591225 -0.634153
C58   C     C_3   0.595004 0.865140 0.662141 0.058115
H36   H     H_    0.527581 0.920812 0.654361 0.134491
H37   H     H_    0.582227 0.816748 0.699221 0.136135
C59   C     C_3   0.666167 0.896660 0.702274 -0.299880
H38   H     H_    0.734590 0.842337 0.709197 0.228337
H39   H     H_    0.677525 0.946510 0.666217 0.218246
C60   C     C_3   0.632263 0.934349 0.781101 -0.990331
H40   H     H_    0.563756 0.988794 0.775849 0.270099
H41   H     H_    0.684910 0.957905 0.807669 0.265041
H42   H     H_    0.624483 0.884505 0.819164 0.277682
O13   O     O_3   0.206856 0.730843 0.530398 -0.633494
C61   C     C_3   0.216274 0.723918 0.611124 0.099260
H43   H     H_    0.250309 0.655878 0.630053 0.120513
H44   H     H_    0.145661 0.752332 0.637826 0.131261
C62   C     C_3   0.278012 0.772878 0.638733 -0.293501
H45   H     H_    0.347287 0.747022 0.609883 0.239277
H46   H     H_    0.243533 0.841633 0.623077 0.209838
C63   C     C_3   0.294417 0.765043 0.725438 -0.988289
H47   H     H_    0.226158 0.789310 0.755814 0.269391
H48   H     H_    0.336700 0.803720 0.743526 0.267723
H49   H     H_    0.333476 0.697141 0.741795 0.271490
O14   O     O_3   0.793185 0.269082 0.452414 -0.654036
C64   C     C_3   0.807891 0.228736 0.525129 0.150636
H50   H     H_    0.760094 0.192324 0.527842 0.192344
H51   H     H_    0.788519 0.275761 0.573270 0.129393
C65   C     C_3   0.909391 0.164844 0.535501 -0.418815
H52   H     H_    0.928678 0.120792 0.485432 0.239540
H53   H     H_    0.958789 0.199797 0.539093 0.223748
C66   C     C_3   0.920160 0.112418 0.608786 -0.963506
H54   H     H_    0.901658 0.155361 0.659601 0.260120
H55   H     H_    0.994348 0.067619 0.615326 0.272340
H56   H     H_    0.873703 0.074497 0.606149 0.260495
O15   O     O_3   0.167259 0.410296 0.344575 -0.693025
C67   C     C_3   0.150551 0.456326 0.274816 0.078837
H57   H     H_    0.120604 0.526700 0.285388 0.153117
H58   H     H_    0.101048 0.437891 0.237326 0.144204
C68   C     C_3   0.243796 0.435155 0.233147 -0.359386
H59   H     H_    0.293644 0.453937 0.269568 0.234770
H60   H     H_    0.275199 0.364995 0.222699 0.229024
C69   C     C_3   0.229403 0.482275 0.156572 -0.920153
H61   H     H_    0.179637 0.464687 0.119135 0.259765
H62   H     H_    0.297663 0.464209 0.126945 0.261285
H63   H     H_    0.201528 0.552660 0.165971 0.280322
O16   O     O_3   0.785634 0.652403 0.433103 -0.653665
C70   C     C_3   0.760384 0.647861 0.355238 0.064559
H64   H     H_    0.790813 0.581082 0.332966 0.140636
H65   H     H_    0.785061 0.690293 0.319471 0.142846
C71   C     C_3   0.653269 0.677719 0.348456 -0.288024
H66   H     H_    0.628303 0.638658 0.387433 0.260821
H67   H     H_    0.621404 0.745930 0.366243 0.221438
C72   C     C_3   0.620960 0.668135 0.266796 -0.986883
H68   H     H_    0.645166 0.706418 0.226176 0.263831
H69   H     H_    0.542854 0.691545 0.264501 0.264900
H70   H     H_    0.648971 0.599729 0.249146 0.263623
O17   O     O_3   0.562524 0.363433 0.101652 -0.624679
C73   C     C_3   0.499840 0.322259 0.079391 0.083918
H71   H     H_    0.530367 0.281624 0.028737 0.159099
H72   H     H_    0.429582 0.368075 0.060436 0.114271
C74   C     C_3   0.488799 0.264634 0.143748 -0.305896
H73   H     H_    0.559234 0.217847 0.160881 0.251075
H74   H     H_    0.456708 0.304233 0.194506 0.219077
C75   C     C_3   0.425772 0.216373 0.118040 -0.990248
H75   H     H_    0.354626 0.262260 0.101532 0.264651
H76   H     H_    0.418399 0.175916 0.165960 0.283886
H77   H     H_    0.457087 0.174436 0.068320 0.267311
O18   O     O_3   0.578102 0.584776 0.897384 -0.623763
C76   C     C_3   0.524443 0.671481 0.914738 0.113035
H78   H     H_    0.556007 0.688979 0.967027 0.157032
H79   H     H_    0.449937 0.682134 0.928959 0.126201
C77   C     C_3   0.527578 0.731075 0.849091 -0.341441
H80   H     H_    0.601921 0.723077 0.837876 0.237701
H81   H     H_    0.497141 0.714329 0.795894 0.229290
C78   C     C_3   0.471488 0.824566 0.868613 -1.014870
H82   H     H_    0.397809 0.833231 0.883040 0.277339
H83   H     H_    0.469724 0.865661 0.818397 0.266489
H84   H     H_    0.504853 0.845290 0.918032 0.274699
O19   O     O_3   0.602834 0.357583 0.255859 -0.620846
C79   C     C_3   0.688230 0.369625 0.273785 0.127263
H85   H     H_    0.730777 0.315279 0.310851 0.212602
H86   H     H_    0.677076 0.429005 0.307576 0.097310
C80   C     C_3   0.745159 0.368833 0.201589 -0.348770
H87   H     H_    0.754549 0.310007 0.167704 0.257548
H88   H     H_    0.706702 0.425604 0.165408 0.220929
C81   C     C_3   0.841745 0.371310 0.222467 -0.971751
H89   H     H_    0.834086 0.428632 0.258013 0.263459
H90   H     H_    0.879608 0.374378 0.169270 0.268947
H91   H     H_    0.884313 0.312587 0.254623 0.272642
O20   O     O_3   0.620159 0.551785 0.744213 -0.634743
C82   C     C_3   0.699787 0.474705 0.743801 0.106827
H92   H     H_    0.683760 0.422104 0.714516 0.115427
H93   H     H_    0.724154 0.454801 0.803763 0.164927
C83   C     C_3   0.779115 0.489058 0.700432 -0.332685
H94   H     H_    0.754738 0.509588 0.640978 0.224694
H95   H     H_    0.797317 0.540576 0.728931 0.230121
C84   C     C_3   0.866816 0.407494 0.697056 -0.977401
H96   H     H_    0.894059 0.386162 0.755904 0.268478
H97   H     H_    0.922416 0.420136 0.664388 0.273641
H98   H     H_    0.850291 0.355649 0.667604 0.255371
O21   O     O_3   0.352107 0.659711 0.124638 -0.629825
C85   C     C_3   0.394013 0.722230 0.127577 0.074047
H99   H     H_    0.466990 0.696463 0.104484 0.134531
H100  H     H_    0.396095 0.744373 0.187656 0.129243
C86   C     C_3   0.335108 0.799114 0.078831 -0.319342
H101  H     H_    0.331024 0.778049 0.018736 0.220374
H102  H     H_    0.262423 0.826253 0.101638 0.228886
C87   C     C_3   0.377818 0.868507 0.079405 -0.976306
H103  H     H_    0.379587 0.892533 0.138744 0.267623
H104  H     H_    0.334422 0.922815 0.042522 0.271490
H105  H     H_    0.450584 0.842732 0.056799 0.262753
O22   O     O_3   0.331512 0.467060 0.871067 -0.628938
C88   C     C_3   0.359649 0.376791 0.876092 0.075800
H106  H     H_    0.351847 0.360607 0.936726 0.152545
H107  H     H_    0.434752 0.340539 0.861022 0.124480
C89   C     C_3   0.294693 0.346708 0.825599 -0.327116
H108  H     H_    0.220249 0.381998 0.841833 0.235700
H109  H     H_    0.302754 0.360704 0.764433 0.209633
C90   C     C_3   0.317000 0.250760 0.834560 -0.978293
H110  H     H_    0.389809 0.213902 0.815606 0.266565
H111  H     H_    0.267258 0.231592 0.798543 0.267807
H112  H     H_    0.309591 0.234871 0.895374 0.267575

loop_
_geom_bond_atom_site_label_1
_geom_bond_atom_site_label_2
_ccdc_geom_bond_type
C4    O16   S    
C63   H49   S    
N3    H25   S    
C9    O19   S    
C27   C29   A    
C41   C43   A    
C74   H73   S    
C36   C42   A    
C68   H59   S    
C87   H105  S    
C78   H82   S    
C63   H47   S    
C59   H38   S    
C56   C57   S    
O17   C73   S    
O6    Zn2   S    
C84   H96   S    
C77   H80   S    
C40   O13   S    
C21   C31   A    
C24   C36   S    
C22   C32   A    
C30   O12   S    
C79   C80   S    
C68   H60   S    
C87   H104  S    
C88   C89   S    
C60   H41   S    
C42   H5    S    
C66   H56   S    
C53   H21   S    
C84   H98   S    
C81   H91   S    
C13   H9    S    
C57   H33   S    
O15   C67   S    
C1    O3    A    
C3    C48   A    
O2    Zn2   S    
C79   H86   S    
C23   O7    A    
O12   C58   S    
C56   H31   S    
C71   C72   S    
C17   C19   S    
C71   H67   S    
C8    O18   S    
C47   C48   A    
C77   H81   S    
O14   C64   S    
C76   H79   S    
C83   C84   S    
N4    H28   S    
C82   C83   S    
C31   C33   S    
O20   C82   S    
C25   O9    S    
C14   C16   A    
C54   H23   S    
C43   C47   A    
C75   H77   S    
C24   O6    A    
C66   H55   S    
C86   H102  S    
C81   H89   S    
C7    O17   S    
C82   H92   S    
C26   O10   S    
C38   C40   A    
C89   H108  S    
C70   C71   S    
C73   H72   S    
C74   H74   S    
C5    H1    S    
C73   H71   S    
C1    C12   S    
C42   C44   A    
C67   C68   S    
C2    C11   S    
C10   O20   S    
O22   C88   S    
C72   H69   S    
C44   C46   A    
C72   H68   S    
C10   C12   A    
C28   N2    A    
C14   H10   S    
C83   H94   S    
C29   O11   S    
C52   H18   S    
C80   H87   S    
C36   C40   A    
C68   C69   S    
C3    O15   S    
C87   H103  S    
C2    O4    A    
C67   H58   S    
C78   H84   S    
C51   H15   S    
O8    Zn1   S    
C7    C17   A    
C86   H101  S    
C5    C45   A    
C69   H63   S    
C55   C56   S    
C8    C18   A    
C1    O1    A    
C79   H85   S    
C65   C66   S    
C71   H66   S    
C35   C39   A    
C50   H13   S    
C80   H88   S    
C88   H106  S    
C62   C63   S    
C78   H83   S    
C9    C11   A    
C90   H110  S    
O3    Zn2   S    
N2    Zn2   S    
C29   C31   A    
C76   C77   S    
N4    H27   S    
C15   O21   S    
C55   H30   S    
O21   C85   S    
O16   C70   S    
C51   H16   S    
C58   H37   S    
C16   C18   A    
O4    Zn1   S    
C6    H2    S    
C54   H24   S    
C70   H65   S    
C50   H14   S    
O13   C61   S    
C26   N2    A    
C83   H95   S    
N1    Zn1   S    
C64   C65   S    
C49   H12   S    
O18   C76   S    
C90   H111  S    
C12   C14   A    
C85   H99   S    
C23   C35   S    
C13   C15   A    
C22   C26   A    
C64   H50   S    
C56   H32   S    
C69   H62   S    
C60   H42   S    
C4    C6    A    
C90   H112  S    
C37   C45   A    
C89   C90   S    
C81   H90   S    
C21   H3    S    
C72   H70   S    
C89   H109  S    
C75   H75   S    
C65   H53   S    
C22   H4    S    
C86   C87   S    
O1    Zn1   S    
C7    C9    A    
C21   C25   A    
C6    C46   A    
C58   H36   S    
C52   H19   S    
C53   H20   S    
C8    C10   A    
C75   H76   S    
C49   H11   S    
C3    C5    A    
C53   C54   S    
C63   H48   S    
C59   H39   S    
C66   H54   S    
C77   C78   S    
C15   C17   A    
C85   C86   S    
C85   H100  S    
O11   C55   S    
C28   N4    S    
C67   H57   S    
O7    Zn2   S    
C23   O5    A    
C19   C20   T    
C28   C30   A    
C54   H22   S    
C80   C81   S    
O9    C49   S    
C88   H107  S    
C27   N1    A    
C60   H40   S    
C30   C32   A    
C11   C13   A    
C51   H17   S    
C49   C50   S    
C62   H45   S    
C57   H34   S    
C61   C62   S    
O5    Zn1   S    
C55   H29   S    
C74   C75   S    
C33   C34   T    
C16   O22   S    
C58   C59   S    
C18   C20   S    
C35   C41   A    
C50   C51   S    
C82   H93   S    
C41   H6    S    
C38   C46   A    
C59   C60   S    
C27   N3    S    
C24   O8    A    
C37   H7    S    
C44   C48   A    
C37   C39   A    
C52   C53   S    
C38   H8    S    
C73   C74   S    
N3    H26   S    
C76   H78   S    
C39   O14   S    
C70   H64   S    
C62   H46   S    
C64   H51   S    
C69   H61   S    
C65   H52   S    
O19   C79   S    
C25   N1    A    
O10   C52   S    
C61   H43   S    
C84   H97   S    
C61   H44   S    
C43   C45   A    
C4    C47   A    
C2    O2    A    
C32   C34   S    
C57   H35   S    
