data_mof_unit_11010.cif
_audit_creation_date              2012-12-11T17:06:31-0500
_audit_creation_method            fapswitch 2.2
_symmetry_space_group_name_H-M    P1
_symmetry_Int_Tables_number       1
_space_group_crystal_system       triclinic
_cell_length_a                    6.963181
_cell_length_b                    14.541979
_cell_length_c                    15.9392
_cell_angle_alpha                 90.487996
_cell_angle_beta                  89.805194
_cell_angle_gamma                 89.911596
_cell_volume                      1613.90853487

loop_
_atom_site_label
_atom_site_type_symbol
_atom_type_description
_atom_site_fract_x
_atom_site_fract_y
_atom_site_fract_z
_atom_type_partial_charge
O1    O     O_R   0.494400 0.415450 0.412630 -0.532816
O2    O     O_R   0.823940 0.405730 0.586760 -0.545134
O3    O     O_R   0.994240 0.584550 0.587370 -0.541200
C1    C     C_R   0.655066 0.383513 0.615218 0.689197
O4    O     O_R   0.824110 0.404430 0.413240 -0.545140
O5    O     O_R   0.994420 0.583240 0.412620 -0.542652
C2    C     C_R   0.655852 0.382774 0.383908 0.717551
O6    O     O_R   0.494230 0.416760 0.587380 -0.539568
O7    O     O_3   0.660800 0.558670 0.500000 -0.366800
V1    V     V_3+5 0.935650 0.489120 0.500000 1.396181
O8    O     O_R   0.324140 0.594270 0.413240 -0.523163
C3    C     C_R   0.155382 0.615564 0.383833 0.713874
O9    O     O_R   0.323960 0.595570 0.586760 -0.542538
C4    C     C_R   0.154657 0.617665 0.615459 0.686479
V2    V     V_3+5 0.435660 0.510880 0.500000 1.426548
O10   O     O_3   0.160640 0.441330 0.500000 -0.375403
C5    C     C_3   0.953830 0.721314 0.726720 -0.171963
C6    C     C_3   0.050043 0.710987 0.812748 0.385857
H1    H     H_    0.806309 0.698359 0.710713 0.118817
C7    C     C_3   0.123329 0.809714 0.809817 -0.023985
C8    C     C_3   0.030066 0.821568 0.722847 -0.199802
C9    C     C_3   0.218312 0.786602 0.680642 -0.129248
C10   C     C_3   0.311537 0.775308 0.768337 -0.156209
C11   C     C_3   0.236668 0.674833 0.772449 -0.197279
C12   C     C_3   0.142802 0.687153 0.685605 -0.053520
H2    H     H_    0.945824 0.882336 0.702722 0.110776
H3    H     H_    0.288519 0.817616 0.625034 0.102042
H4    H     H_    0.458769 0.797902 0.785249 0.130407
H5    H     H_    0.319462 0.613883 0.793235 0.111820
C13   C     C_R   0.279894 0.809910 0.234368 0.079845
C14   C     C_R   0.119936 0.813442 0.181455 -0.090028
C15   C     C_R   0.967082 0.753307 0.198813 -0.174146
H6    H     H_    0.843253 0.751813 0.158302 0.156713
C16   C     C_R   0.978747 0.689854 0.264941 -0.190321
H7    H     H_    0.864485 0.641044 0.273657 0.194245
C17   C     C_R   0.142810 0.684390 0.315808 -0.117855
C18   C     C_R   0.291557 0.746290 0.299535 0.031878
C19   C     C_3   0.496662 0.725776 0.279129 0.186005
C20   C     C_3   0.484851 0.797284 0.210165 -0.458175
H8    H     H_    0.596041 0.744237 0.330995 0.112865
H9    H     H_    0.501905 0.769277 0.145404 0.180383
H10   H     H_    0.570617 0.859978 0.223681 0.143999
C21   C     C_R   0.492853 0.315530 0.741386 0.098509
C22   C     C_R   0.647356 0.317058 0.684936 -0.110659
C23   C     C_R   0.799173 0.254926 0.698749 -0.178571
H11   H     H_    0.921691 0.253666 0.656985 0.133900
C24   C     C_R   0.788130 0.189261 0.762963 -0.181361
H12   H     H_    0.903084 0.139715 0.769072 0.125193
C25   C     C_R   0.624582 0.183581 0.814960 -0.109938
C26   C     C_R   0.481505 0.250281 0.804697 0.105881
C27   C     C_3   0.270952 0.238169 0.792533 -0.407630
C28   C     C_3   0.283252 0.309700 0.723841 -0.400187
H13   H     H_    0.186533 0.261644 0.848041 0.176433
H14   H     H_    0.235271 0.168264 0.768630 0.164538
H15   H     H_    0.206771 0.374731 0.739794 0.166275
H16   H     H_    0.253901 0.281516 0.660125 0.170563
C29   C     C_R   0.507257 0.244660 0.314625 0.061205
C30   C     C_R   0.649172 0.312293 0.316580 -0.090976
C31   C     C_R   0.793169 0.306600 0.254336 -0.161046
H17   H     H_    0.910835 0.355158 0.254387 0.119981
C32   C     C_R   0.779103 0.242030 0.187877 -0.188663
H18   H     H_    0.887075 0.242742 0.138827 0.124750
C33   C     C_R   0.623319 0.179804 0.183073 -0.118457
C34   C     C_R   0.498148 0.177746 0.252264 0.056929
C35   C     C_3   0.284006 0.170316 0.261540 -0.168169
C36   C     C_3   0.295778 0.247500 0.327542 -0.408719
H19   H     H_    0.206253 0.191243 0.203895 0.131095
H20   H     H_    0.254314 0.227667 0.392360 0.168306
H21   H     H_    0.232356 0.313323 0.305976 0.165951
O11   O     O_R   0.771650 0.079500 0.908680 -0.542510
O12   O     O_R   0.441690 0.091800 0.082800 -0.540210
O13   O     O_R   0.271460 0.912980 0.083410 -0.535683
C37   C     C_R   0.610217 0.113116 0.112530 0.689742
O14   O     O_R   0.441930 0.090510 0.909280 -0.541297
O15   O     O_R   0.271690 0.911670 0.908660 -0.544422
C38   C     C_R   0.611056 0.112530 0.880642 0.692495
O16   O     O_R   0.771410 0.080810 0.083440 -0.545801
O17   O     O_3   0.605100 0.937580 0.996050 -0.365197
V3    V     V_3+5 0.330220 0.007110 0.996030 1.405908
O18   O     O_R   0.941980 0.900620 0.909250 -0.531316
C39   C     C_R   0.111286 0.878711 0.880412 0.714312
O19   O     O_R   0.941740 0.901920 0.082770 -0.543805
C40   C     C_R   0.110672 0.879440 0.111146 0.718170
V4    V     V_3+5 0.830220 0.985300 0.996000 1.415691
O20   O     O_3   0.105210 0.054870 0.996020 -0.376354
O21   O     O_3   0.961713 0.672548 0.883059 -0.652217
H22   H     H_    0.927835 0.608901 0.866060 0.275493
C41   C     C_R   0.215101 0.080650 0.299642 0.140467
C42   C     C_R   0.034595 0.045916 0.276751 -0.134797
C43   C     C_R   0.955436 0.970766 0.318536 -0.127017
C44   C     C_R   0.057392 0.928226 0.382760 -0.086255
C45   C     C_R   0.239679 0.960196 0.404657 -0.142647
C46   C     C_R   0.318288 0.036115 0.363712 -0.135723
H23   H     H_    0.953215 0.078180 0.227734 0.121408
H24   H     H_    0.814857 0.945604 0.301164 0.100829
H25   H     H_    0.996162 0.869817 0.414845 0.100474
H26   H     H_    0.319295 0.926722 0.454012 0.100171
H27   H     H_    0.457377 0.061218 0.383485 0.110096
O22   O     O_3   0.523365 0.635272 0.248687 -0.646392
H28   H     H_    0.431792 0.623623 0.202125 0.302721

loop_
_geom_bond_atom_site_label_1
_geom_bond_atom_site_label_2
_ccdc_geom_bond_type
C36   H20   S    
C8    H2    S    
C29   C36   S    
O18   V4    S    
O12   V3    S    
C43   C44   A    
C43   H24   S    
C20   H9    S    
C23   H11   S    
C6    O21   S    
O14   C38   A    
C35   C41   S    
C6    C11   S    
C17   C18   A    
O13   V3    S    
O5    C3    A    
C19   C20   S    
O18   C39   A    
C21   C28   S    
C36   H21   S    
V2    O10   S    
C14   C40   S    
C16   H7    S    
C42   H23   S    
C32   C33   A    
C11   H5    S    
C44   H25   S    
O8    V2    S    
C24   H12   S    
C35   H19   S    
C9    C12   S    
C10   C11   S    
O1    V2    S    
O9    C4    A    
C3    C17   S    
O11   V4    S    
O7    V1    S    
C2    C30   S    
C16   C17   A    
C28   H15   S    
C1    O6    A    
C41   C42   A    
C31   H17   S    
C8    C9    S    
C45   H26   S    
C5    C6    S    
C20   H10   S    
C23   C24   A    
C31   C32   A    
C27   C28   S    
C11   C12   S    
C24   C25   A    
C44   C45   A    
O4    C2    A    
O17   V3    S    
O15   C39   A    
C1    C22   S    
O16   V4    S    
C30   C31   A    
C5    C8    S    
C13   C18   A    
C27   H13   S    
C15   C16   A    
O2    C1    A    
C21   C22   A    
C18   C19   S    
O22   H28   S    
C7    C10   S    
C26   C27   S    
C25   C38   S    
C10   H4    S    
V4    O20   S    
O3    C4    A    
O19   C40   A    
O6    V2    S    
O19   V4    S    
O14   V3    S    
O9    V2    S    
O11   C38   A    
O2    V1    S    
V3    O20   S    
C22   C23   A    
O21   H22   S    
C29   C34   A    
O12   C37   A    
C41   C46   A    
O1    C2    A    
C14   C15   A    
C19   O22   S    
O5    V1    S    
O8    C3    A    
C21   C26   A    
C33   C37   S    
C9    H3    S    
C27   H14   S    
C5    C12   S    
C15   H6    S    
O7    V2    S    
O4    V1    S    
O3    V1    S    
V1    O10   S    
C34   C35   S    
C19   H8    S    
C29   C30   A    
C13   C14   A    
C45   C46   A    
C5    H1    S    
C13   C20   S    
C6    C7    S    
C35   C36   S    
C4    C12   S    
C32   H18   S    
O13   C40   A    
C33   C34   A    
O17   V4    S    
C7    C8    S    
C25   C26   A    
C37   O16   A    
C9    C10   S    
C42   C43   A    
C7    C39   S    
O15   V3    S    
C46   H27   S    
C28   H16   S    
