data_mof_unit_13836.cif
_audit_creation_date              2012-12-10T18:11:09-0500
_audit_creation_method            fapswitch 2.2
_symmetry_space_group_name_H-M    P1
_symmetry_Int_Tables_number       1
_space_group_crystal_system       triclinic
_cell_length_a                    10.838137
_cell_length_b                    9.503858
_cell_length_c                    10.660399
_cell_angle_alpha                 89.678792
_cell_angle_beta                  90.425202
_cell_angle_gamma                 90.37234
_cell_volume                      1097.99458149

loop_
_atom_site_label
_atom_site_type_symbol
_atom_type_description
_atom_site_fract_x
_atom_site_fract_y
_atom_site_fract_z
_atom_type_partial_charge
C1    C     C_R   0.259433 0.499268 0.500667 0.756130
C2    C     C_3   0.506892 0.501048 0.123477 0.002090
C3    C     C_3   0.069922 0.628592 0.584879 0.127089
C4    C     C_3   0.065103 0.352346 0.559956 0.167748
C5    C     C_3   0.927025 0.611807 0.597994 -0.424856
C6    C     C_3   0.922228 0.355258 0.550788 -0.490194
C7    C     C_3   0.067301 0.516154 0.361835 0.296569
C8    C     C_3   0.119710 0.498383 0.502051 0.014877
C9    C     C_3   0.876306 0.500181 0.505216 0.005264
C10   C     C_3   0.923793 0.529314 0.370405 -0.355643
C11   C     C_3   0.622733 0.084970 0.543200 0.117093
C12   C     C_3   0.622536 0.916015 0.543985 0.120654
C13   C     C_3   0.406257 0.081533 0.588889 -0.220095
C14   C     C_3   0.405667 0.915892 0.588456 -0.262119
C15   C     C_3   0.475759 0.084369 0.374388 -0.133875
C16   C     C_3   0.476368 0.916890 0.374407 -0.131019
C17   C     C_R   0.503891 0.500434 0.259941 0.816701
C18   C     C_R   0.739252 0.500349 0.503329 0.809569
C19   C     C_R   0.500914 0.499749 0.740398 0.829149
C20   C     C_3   0.391451 0.530159 0.042363 -0.155413
C21   C     C_3   0.541957 0.372854 0.043421 -0.192871
C22   C     C_3   0.428243 0.404261 0.961725 0.192603
C23   C     C_3   0.504577 0.500017 0.877121 -0.061423
C24   C     C_3   0.470400 0.628697 0.957301 -0.168207
C25   C     C_3   0.620580 0.471146 0.957819 -0.243508
C26   C     C_3   0.584167 0.596963 0.039416 0.209466
Cu1   Cu    Cu3+1 0.499860 0.642410 0.500060 0.936611
Cu2   Cu    Cu3+1 0.499860 0.357590 0.500060 0.954400
H1    H     H_    0.893528 0.636343 0.341039 0.162106
H2    H     H_    0.877841 0.455097 0.304107 0.154352
H3    H     H_    0.692161 0.117321 0.471833 0.096622
H4    H     H_    0.692674 0.884189 0.473797 0.098947
H5    H     H_    0.419906 0.119890 0.685834 0.190642
H6    H     H_    0.417956 0.875595 0.685430 0.171339
H7    H     H_    0.552435 0.118729 0.311821 0.134846
H8    H     H_    0.553948 0.885371 0.312924 0.133266
H9    H     H_    0.313474 0.118687 0.563482 0.196924
H10   H     H_    0.312573 0.878474 0.562386 0.165941
H11   H     H_    0.297079 0.550818 0.077099 0.151593
H12   H     H_    0.569704 0.267716 0.079233 0.166082
H13   H     H_    0.443467 0.734021 0.921211 0.162203
H14   H     H_    0.714291 0.449752 0.921417 0.144915
H15   H     H_    0.900842 0.579650 0.694904 0.177034
H16   H     H_    0.878947 0.329663 0.642666 0.155350
H17   H     H_    0.881211 0.714482 0.581826 0.185694
H18   H     H_    0.886646 0.273114 0.485737 0.187260
N1    N     N_3   0.500250 0.143650 0.502780 -0.171018
N2    N     N_3   0.500250 0.856350 0.502780 -0.161948
O1    O     O_R   0.317570 0.620260 0.500070 -0.591797
O2    O     O_R   0.317570 0.379740 0.500070 -0.551668
O3    O     O_R   0.499850 0.620240 0.316900 -0.573200
O4    O     O_R   0.499850 0.379760 0.316900 -0.583459
O5    O     O_R   0.682190 0.620260 0.500030 -0.579288
O6    O     O_R   0.682190 0.379740 0.500030 -0.580469
O7    O     O_R   0.499910 0.620280 0.683200 -0.582009
O8    O     O_R   0.499910 0.379720 0.683200 -0.547337
N3    N     N_3   0.342883 0.296817 0.917692 -0.508295
H19   H     H_    0.282698 0.272608 0.990835 0.267313
H20   H     H_    0.393820 0.206206 0.899968 0.229667
N4    N     N_3   0.665300 0.148740 0.661353 -0.535413
H21   H     H_    0.757271 0.121283 0.677556 0.178097
H22   H     H_    0.613993 0.114471 0.738061 0.203192
N5    N     N_3   0.663409 0.852555 0.663306 -0.532361
H23   H     H_    0.755193 0.880980 0.680758 0.183394
H24   H     H_    0.611276 0.886392 0.738978 0.202860
C27   C     C_2   0.359181 0.142310 0.314085 0.465230
H25   H     H_    0.272310 0.135462 0.361481 0.072151
O9    O     O_2   0.359850 0.184590 0.205882 -0.596260
C28   C     C_2   0.361108 0.856448 0.312753 0.446593
H26   H     H_    0.274544 0.852444 0.362196 0.091817
O10   O     O_2   0.362265 0.822919 0.202328 -0.574282
N6    N     N_3   0.671447 0.702341 0.084845 -0.604090
H27   H     H_    0.716650 0.743882 0.006566 0.219402
H28   H     H_    0.620201 0.784345 0.122495 0.232430
N7    N     N_3   0.096941 0.765890 0.524485 -0.581496
H29   H     H_    0.030967 0.790903 0.456130 0.232033
H30   H     H_    0.088979 0.847592 0.589385 0.221055
N8    N     N_3   0.108727 0.225783 0.493509 -0.563142
H31   H     H_    0.058630 0.204660 0.411881 0.231192
H32   H     H_    0.090909 0.135608 0.547553 0.210988
C29   C     C_2   0.130896 0.634474 0.714745 0.314501
H33   H     H_    0.219377 0.585165 0.732350 0.080162
O11   O     O_2   0.084806 0.702052 0.799371 -0.556759
C30   C     C_2   0.100519 0.334145 0.697680 0.304802
H34   H     H_    0.048454 0.385463 0.770773 0.073270
O12   O     O_2   0.185519 0.257953 0.728736 -0.541995
N9    N     N_3   0.118076 0.642364 0.299724 -0.596743
H35   H     H_    0.210457 0.625096 0.278010 0.233424
H36   H     H_    0.072876 0.658318 0.213768 0.228213
N10   N     N_3   0.097521 0.394678 0.283014 -0.612507
H37   H     H_    0.193187 0.386643 0.274231 0.234965
H38   H     H_    0.062244 0.409948 0.192335 0.216877

loop_
_geom_bond_atom_site_label_1
_geom_bond_atom_site_label_2
_ccdc_geom_bond_type
C19   O8    A    
Cu1   N2    S    
C7    C10   S    
C27   O9    D    
N9    H35   S    
N5    H24   S    
Cu2   N1    S    
C1    C8    S    
C26   N6    S    
C11   N1    S    
C15   N1    S    
C12   N2    S    
C17   O3    A    
C6    C9    S    
C29   H33   S    
Cu2   O8    S    
C7    C8    S    
C13   H5    S    
C5    C9    S    
C24   C26   S    
Cu1   O7    S    
N3    H20   S    
C15   C16   S    
N4    H22   S    
C28   O10   D    
C18   O5    A    
Cu2   O2    S    
C7    N9    S    
C20   C24   S    
C3    C29   S    
C23   C24   S    
C3    N7    S    
C1    O2    A    
C13   H9    S    
C4    C8    S    
C27   H25   S    
C5    H15   S    
C11   H3    S    
C6    H16   S    
C21   C22   S    
C12   H4    S    
C2    C17   S    
C24   H13   S    
C16   N2    S    
C22   N3    S    
C17   O4    A    
C15   H7    S    
C29   O11   D    
Cu1   O3    S    
C2    C20   S    
C30   H34   S    
C4    C6    S    
C3    C8    S    
C13   N1    S    
C20   H11   S    
Cu2   O6    S    
N8    H31   S    
C14   N2    S    
C25   C26   S    
C7    N10   S    
C5    H17   S    
N4    H21   S    
C19   C23   S    
N7    H29   S    
C4    N8    S    
C14   H10   S    
C10   H2    S    
N10   H38   S    
C4    C30   S    
C2    C21   S    
C2    C26   S    
N7    H30   S    
N6    H28   S    
C20   C22   S    
N9    H36   S    
N10   H37   S    
C11   N4    S    
C15   C27   S    
C9    C10   S    
C19   O7    A    
C12   N5    S    
C21   C25   S    
C6    H18   S    
C16   C28   S    
C30   O12   D    
N6    H27   S    
C3    C5    S    
C25   H14   S    
C14   H6    S    
C11   C12   S    
Cu1   O5    S    
C16   H8    S    
Cu2   O4    S    
C10   H1    S    
N3    H19   S    
C21   H12   S    
N8    H32   S    
C23   C25   S    
C28   H26   S    
C18   O6    A    
N5    H23   S    
C9    C18   S    
Cu1   Cu2   S    
C22   C23   S    
C13   C14   S    
C1    O1    A    
Cu1   O1    S    
