data_mof_unit_44485.cif
_audit_creation_date              2013-03-05T16:48:40-0500
_audit_creation_method            fapswitch 2.2
_symmetry_space_group_name_H-M    P1
_symmetry_Int_Tables_number       1
_space_group_crystal_system       triclinic
_cell_length_a                    10.902571
_cell_length_b                    10.892175
_cell_length_c                    10.412508
_cell_angle_alpha                 91.812147
_cell_angle_beta                  90.3742
_cell_angle_gamma                 88.630053
_cell_volume                      1235.52125519

loop_
_atom_site_label
_atom_site_type_symbol
_atom_site_description
_atom_site_fract_x
_atom_site_fract_y
_atom_site_fract_z
_atom_type_partial_charge
O1    O     O_R   0.499990 0.319650 0.605810 -0.567076
O2    O     O_R   0.500010 0.680350 0.394190 -0.566991
O3    O     O_R   0.499990 0.319640 0.394190 -0.586151
O4    O     O_R   0.500010 0.680360 0.605810 -0.585991
C1    C     C_R   0.497528 0.261532 0.497675 0.843748
C2    C     C_R   0.502434 0.738470 0.502334 0.844070
O5    O     O_R   0.319640 0.500010 0.605810 -0.581043
O6    O     O_R   0.680360 0.499990 0.394190 -0.581137
O7    O     O_R   0.319650 0.500010 0.394190 -0.584379
O8    O     O_R   0.680350 0.499990 0.605810 -0.583780
C3    C     C_R   0.261463 0.497465 0.498953 0.828079
C4    C     C_R   0.738540 0.502439 0.501033 0.828470
Cu1   Cu    Cu3+1 0.500000 0.500000 0.625300 0.990840
Cu2   Cu    Cu3+1 0.500000 0.500000 0.374700 0.990542
H1    H     H_    0.245860 0.378447 0.912004 0.148068
H2    H     H_    0.753754 0.623555 0.087234 0.148658
C5    C     C_R   0.149456 0.511464 0.033301 -0.144119
C6    C     C_R   0.848900 0.489298 0.966276 -0.144772
H3    H     H_    0.137168 0.576667 0.957816 0.164604
H4    H     H_    0.860096 0.423995 0.041822 0.164159
C7    C     C_R   0.101922 0.538123 0.155735 -0.140812
C8    C     C_R   0.896573 0.462019 0.844014 -0.139918
H5    H     H_    0.052951 0.624554 0.174088 0.168355
H6    H     H_    0.944518 0.374985 0.825811 0.168588
C9    C     C_R   0.116498 0.452899 0.253557 0.091078
C10   C     C_R   0.883435 0.547415 0.746177 0.090325
C11   C     C_R   0.179264 0.340848 0.227007 -0.011571
C12   C     C_R   0.821905 0.660193 0.772458 -0.015211
H7    H     H_    0.190998 0.273868 0.301097 0.154451
H8    H     H_    0.811256 0.727261 0.698299 0.155402
C13   C     C_R   0.225654 0.314318 0.104007 -0.036163
C14   C     C_R   0.775446 0.687361 0.895298 -0.035374
H9    H     H_    0.271596 0.227072 0.082821 0.151351
H10   H     H_    0.730609 0.775225 0.916324 0.152447
C15   C     C_R   0.210467 0.399388 0.007237 -0.120677
C16   C     C_R   0.789211 0.602139 0.992123 -0.121390
C17   C     C_R   0.933064 0.483949 0.386336 -0.206183
C18   C     C_R   0.066922 0.515622 0.613631 -0.206683
H11   H     H_    0.881564 0.469462 0.297854 0.152611
H12   H     H_    0.118390 0.530127 0.702129 0.152406
C19   C     C_R   0.872014 0.504199 0.503196 -0.073277
C20   C     C_R   0.127991 0.495473 0.496754 -0.073017
C21   C     C_R   0.939817 0.521106 0.618681 0.014531
C22   C     C_R   0.060181 0.478588 0.381234 0.015162
H13   H     H_    0.753812 0.225324 0.967903 0.176091
H14   H     H_    0.246543 0.774778 0.032466 0.176424
C23   C     C_R   0.588772 0.187628 0.067717 -0.192561
C24   C     C_R   0.411490 0.811866 0.932190 -0.192340
H15   H     H_    0.530220 0.210654 0.987267 0.186761
H16   H     H_    0.470178 0.788397 0.012392 0.186475
C25   C     C_R   0.537385 0.145987 0.180181 -0.036371
C26   C     C_R   0.462751 0.853483 0.819651 -0.035910
H17   H     H_    0.439327 0.134415 0.185423 0.129179
H18   H     H_    0.560857 0.864560 0.814111 0.128865
C27   C     C_R   0.612482 0.116461 0.285069 0.087418
C28   C     C_R   0.387497 0.883543 0.715049 0.087053
C29   C     C_R   0.740071 0.127206 0.275621 -0.211908
C30   C     C_R   0.259864 0.873432 0.724923 -0.211930
H19   H     H_    0.797728 0.100925 0.355764 0.175934
H20   H     H_    0.202086 0.900169 0.645042 0.176057
C31   C     C_R   0.793036 0.164540 0.160716 0.393871
C32   C     C_R   0.207045 0.836235 0.839961 0.393743
C33   C     C_R   0.715869 0.196236 0.057469 -0.198098
C34   C     C_R   0.284371 0.803869 0.942847 -0.198097
C35   C     C_R   0.569054 0.930494 0.407458 -0.041772
C36   C     C_R   0.430915 0.069514 0.592613 -0.041736
C37   C     C_R   0.507622 0.872234 0.506865 -0.169174
C38   C     C_R   0.492328 0.127766 0.493184 -0.169068
C39   C     C_R   0.442392 0.941725 0.602443 -0.073209
C40   C     C_R   0.557549 0.058271 0.397624 -0.073309
N1    N     N_1   0.500010 0.499990 0.186410 -0.145536
N2    N     N_1   0.499990 0.500010 0.813590 -0.145365
C41   C     C_1   0.500015 0.500030 0.071907 0.072187
C42   C     C_1   0.500001 0.499965 0.928092 0.072673
N3    N     N_R   0.924221 0.164717 0.147022 0.119182
O9    O     O_R   0.995429 0.127394 0.239465 -0.372736
O10   O     O_R   0.973297 0.192332 0.038370 -0.374586
N4    N     N_R   0.075888 0.836968 0.854207 0.119104
O11   O     O_R   0.004597 0.875174 0.762218 -0.372866
O12   O     O_R   0.027019 0.809551 0.963036 -0.374774
C43   C     C_2   0.651872 0.858152 0.318288 0.873441
O13   O     O_2   0.638208 0.863656 0.201924 -0.615474
O14   O     O_R   0.744828 0.783004 0.368867 -0.769144
H21   H     H_    0.795340 0.738528 0.299662 0.329922
C44   C     C_2   0.348196 0.141891 0.681845 0.873467
O15   O     O_2   0.361996 0.136452 0.798186 -0.615483
O16   O     O_R   0.255178 0.216995 0.631349 -0.768803
H22   H     H_    0.204731 0.261488 0.700592 0.330172

loop_
_geom_bond_atom_site_label_1
_geom_bond_atom_site_label_2
_geom_bond_distance
_ccdc_geom_bond_type
C30   C32   1.407635 A    
C36   C38   1.411969 A    
O16   H22   1.013669 S    
C11   H7    1.083334 S    
C41   C42   1.497450 S    
O7    Cu2   1.978039 S    
C36   C44   1.492889 S    
C43   O13   1.222978 D    
C23   H15   1.082023 S    
C44   O15   1.222857 D    
C31   N3    1.438324 S    
O5    C3    1.277000 A    
O1    C1    1.274582 A    
C14   C16   1.396844 A    
C8    H6    1.083560 S    
C18   C20   1.399723 A    
C23   C33   1.396086 A    
N4    O12   1.301556 A    
C24   C34   1.396096 A    
C36   C39   1.401445 A    
C30   H20   1.083118 S    
C35   C40   1.401342 A    
C3    C20   1.455879 S    
Cu2   N1    1.960568 S    
O4    Cu1   1.981342 S    
C31   C33   1.407319 A    
C32   C34   1.407320 A    
C35   C37   1.411937 A    
C13   H9    1.080765 S    
C25   C27   1.401611 A    
C24   H16   1.082060 S    
Cu1   Cu2   2.609375 S    
C19   C21   1.416778 A    
O2    C2    1.274665 A    
C20   C22   1.417092 A    
C1    C38   1.458711 S    
C9    C22   1.483784 S    
H1    C15   1.081993 S    
C43   O14   1.398237 S    
C26   H18   1.081374 S    
C10   C21   1.483429 S    
C44   O16   1.398105 S    
C7    H5    1.083407 S    
C11   C13   1.399165 A    
C12   C14   1.399116 A    
N2    C42   1.192273 T    
N1    C41   1.192273 T    
N4    O11   1.301840 A    
C23   C25   1.394717 A    
H13   C33   1.082243 S    
C5    C7    1.398621 A    
H14   C34   1.082249 S    
C37   C39   1.415969 A    
C14   H10   1.081012 S    
N3    O9    1.301700 A    
C4    C19   1.455814 S    
O7    C3    1.266875 A    
C35   C43   1.492951 S    
O14   H21   1.013700 S    
O5    Cu1   1.975512 S    
O6    C4    1.276886 A    
N3    O10   1.301467 A    
O3    Cu2   1.981343 S    
O8    C4    1.266943 A    
O4    C2    1.267480 A    
C2    C37   1.458690 S    
C27   C29   1.403097 A    
C13   C15   1.396717 A    
O1    Cu1   1.968467 S    
C7    C9    1.405366 A    
O6    Cu2   1.975511 S    
C6    C8    1.398721 A    
C32   N4    1.438396 S    
O3    C1    1.267572 A    
O8    Cu1   1.978038 S    
C29   C31   1.407597 A    
Cu1   N2    1.960569 S    
C9    C11   1.405525 A    
C10   C12   1.405567 A    
C17   C22   1.387026 A    
C12   H8    1.083446 S    
C18   C21   1.386899 A    
C17   H11   1.085022 S    
H2    C16   1.081988 S    
C18   H12   1.085011 S    
C5    H3    1.081428 S    
C28   C30   1.403202 A    
C6    H4    1.081485 S    
C17   C19   1.399605 A    
O2    Cu2   1.968467 S    
C27   C40   1.486015 S    
C29   H19   1.083105 S    
C24   C26   1.394717 A    
C38   C40   1.415824 A    
C28   C39   1.486231 S    
C8    C10   1.405397 A    
C5    C15   1.396041 A    
C25   H17   1.081411 S    
C6    C16   1.396320 A    
C26   C28   1.401673 A    
