data_mof_unit_14142.cif
_audit_creation_date              2012-12-10T17:47:05-0500
_audit_creation_method            fapswitch 2.2
_symmetry_space_group_name_H-M    P1
_symmetry_Int_Tables_number       1
_space_group_crystal_system       triclinic
_cell_length_a                    9.979818
_cell_length_b                    10.626756
_cell_length_c                    13.590289
_cell_angle_alpha                 93.853988
_cell_angle_beta                  82.340637
_cell_angle_gamma                 88.100364
_cell_volume                      1423.90988916

loop_
_atom_site_label
_atom_site_type_symbol
_atom_type_description
_atom_site_fract_x
_atom_site_fract_y
_atom_site_fract_z
_atom_type_partial_charge
C1    C     C_R   0.497466 0.739419 0.500761 0.855843
C2    C     C_R   0.514509 0.943799 0.581087 -0.212811
C3    C     C_R   0.519497 0.072231 0.578226 -0.192309
C4    C     C_R   0.475427 0.496786 0.685407 0.898655
C5    C     C_R   0.513578 0.126423 0.488420 -0.089144
C6    C     C_R   0.826106 0.683739 0.615368 -0.124627
C7    C     C_R   0.873817 0.792384 0.655811 -0.223140
C8    C     C_R   0.010363 0.803430 0.653413 -0.209871
C9    C     C_R   0.100599 0.702181 0.616445 0.004060
C10   C     C_R   0.057066 0.595726 0.557257 0.100431
C11   C     C_R   0.912459 0.592298 0.556821 0.163648
C12   C     C_1   0.456306 0.494457 0.789556 -0.168265
C13   C     C_R   0.942020 0.411235 0.445986 -0.106583
C14   C     C_R   0.084409 0.410931 0.446282 -0.097011
C15   C     C_R   0.503968 0.260142 0.493624 0.869163
C16   C     C_R   0.524659 0.502400 0.314551 0.883362
C17   C     C_1   0.543397 0.509185 0.210772 -0.162639
C18   C     C_2   0.555726 0.517902 0.019254 -0.167763
C19   C     C_2   0.442451 0.493704 0.981754 -0.168809
C20   C     C_1   0.444988 0.493407 0.877628 0.010976
C21   C     C_1   0.554074 0.514407 0.123054 0.011385
C22   C     C_1   0.219348 0.713306 0.664569 0.277522
C23   C     C_R   0.447753 0.852741 0.321298 -0.183217
C24   C     C_1   0.626452 0.195049 0.281112 0.123581
C25   C     C_R   0.451273 0.905600 0.230108 -0.154556
C26   C     C_R   0.496959 0.026799 0.219857 -0.157772
C27   C     C_R   0.530870 0.098780 0.302384 -0.015100
C28   C     C_R   0.506254 0.052853 0.398681 0.040194
C29   C     C_R   0.479320 0.924877 0.405709 0.087593
C30   C     C_R   0.492158 0.871621 0.496178 -0.067784
H1    H     H_    0.349803 0.472624 0.028298 0.161562
H2    H     H_    0.804159 0.865132 0.694878 0.156869
H3    H     H_    0.648555 0.538462 0.972702 0.162786
H4    H     H_    0.514487 0.061181 0.146116 0.142716
H5    H     H_    0.720222 0.674926 0.632534 0.202770
H6    H     H_    0.043735 0.886683 0.692692 0.154431
H7    H     H_    0.148071 0.337894 0.402046 0.150738
H8    H     H_    0.525173 0.900725 0.649872 0.142095
H9    H     H_    0.420469 0.755570 0.324856 0.150287
H10   H     H_    0.427528 0.849377 0.165755 0.151728
H11   H     H_    0.528449 0.129657 0.645889 0.142226
H12   H     H_    0.899704 0.338330 0.401572 0.158855
N1    N     N_R   0.857120 0.501200 0.500900 -0.118432
N2    N     N_R   0.142720 0.501280 0.500940 -0.117338
N3    N     N_1   0.309581 0.733000 0.708043 -0.256566
N4    N     N_1   0.707624 0.267917 0.261948 -0.195715
O1    O     O_R   0.385310 0.683220 0.500000 -0.625486
O2    O     O_R   0.614640 0.683250 0.500010 -0.628268
O3    O     O_R   0.368830 0.499960 0.640340 -0.602836
O4    O     O_R   0.598160 0.499980 0.640350 -0.637735
O5    O     O_R   0.385360 0.316750 0.499990 -0.612085
O6    O     O_R   0.614690 0.316780 0.500000 -0.608183
O7    O     O_R   0.401840 0.500020 0.359650 -0.619791
O8    O     O_R   0.631170 0.500040 0.359660 -0.585245
Zn1   Zn    Zn3+2 0.346870 0.499980 0.499990 0.952652
Zn2   Zn    Zn3+2 0.653130 0.500020 0.500010 0.952951

loop_
_geom_bond_atom_site_label_1
_geom_bond_atom_site_label_2
_ccdc_geom_bond_type
C1    O2    A    
C11   N1    A    
C6    C7    A    
C15   O5    A    
C4    C12   S    
C18   C21   S    
C9    C10   A    
C2    H8    S    
C13   H12   S    
C19   C20   S    
C24   C27   S    
C4    O3    A    
C2    C30   A    
C19   H1    S    
C12   C20   T    
C16   O8    A    
O7    Zn1   S    
C2    C3    A    
O1    Zn1   S    
C24   N4    T    
C7    C8    A    
O3    Zn1   S    
C13   C14   A    
C14   H7    S    
N2    Zn1   S    
C26   C27   A    
C29   C30   A    
C23   H9    S    
C23   C29   A    
C1    O1    A    
C1    C30   S    
O5    Zn1   S    
C23   C25   A    
C25   H10   S    
C18   H3    S    
O8    Zn2   S    
C9    C22   S    
C5    C15   S    
C3    H11   S    
C10   C11   A    
C10   N2    A    
C5    C28   A    
N1    Zn2   S    
C13   N1    A    
C22   N3    T    
C6    H5    S    
C14   N2    A    
C18   C19   D    
C8    H6    S    
C6    C11   A    
O2    Zn2   S    
C16   O7    A    
C28   C29   A    
C7    H2    S    
C3    C5    A    
C25   C26   A    
C15   O6    A    
C26   H4    S    
O4    Zn2   S    
O6    Zn2   S    
C16   C17   S    
C4    O4    A    
C8    C9    A    
C27   C28   A    
C17   C21   T    
