data_mof_unit_68287.cif
_audit_creation_date              2013-03-05T16:07:30-0500
_audit_creation_method            fapswitch 2.2
_symmetry_space_group_name_H-M    P1
_symmetry_Int_Tables_number       1
_space_group_crystal_system       triclinic
_cell_length_a                    11.059401
_cell_length_b                    10.707887
_cell_length_c                    9.896849
_cell_angle_alpha                 90.670643
_cell_angle_beta                  91.681992
_cell_angle_gamma                 92.165815
_cell_volume                      1170.57454044

loop_
_atom_site_label
_atom_site_type_symbol
_atom_site_description
_atom_site_fract_x
_atom_site_fract_y
_atom_site_fract_z
_atom_type_partial_charge
O1    O     O_R   0.499990 0.319660 0.618740 -0.547884
O2    O     O_R   0.500010 0.680340 0.381260 -0.547901
O3    O     O_R   0.499990 0.319630 0.381170 -0.561110
O4    O     O_R   0.500010 0.680370 0.618830 -0.561106
C1    C     C_R   0.499118 0.263694 0.499227 0.893761
C2    C     C_R   0.500882 0.736306 0.500774 0.893767
O5    O     O_R   0.319650 0.500020 0.618780 -0.573694
O6    O     O_R   0.680350 0.499980 0.381220 -0.573701
O7    O     O_R   0.319640 0.500000 0.381210 -0.547156
O8    O     O_R   0.680360 0.500000 0.618790 -0.547169
C3    C     C_R   0.263116 0.506732 0.498030 0.838816
C4    C     C_R   0.736882 0.493257 0.501969 0.838802
Cu1   Cu    Cu3+1 0.500000 0.500020 0.640660 1.021501
Cu2   Cu    Cu3+1 0.500000 0.499980 0.359340 1.021464
C5    C     C_R   0.142469 0.739227 0.129277 -0.029000
C6    C     C_R   0.857365 0.260685 0.870599 -0.028950
C7    C     C_R   0.091038 0.679100 0.241423 -0.120984
C8    C     C_R   0.908916 0.320819 0.758530 -0.120908
C9    C     C_R   0.094083 0.547001 0.251428 -0.036819
C10   C     C_R   0.905903 0.452923 0.748558 -0.036977
C11   C     C_R   0.133187 0.475131 0.142935 0.209523
C12   C     C_R   0.866770 0.524779 0.857048 0.209477
C13   C     C_R   0.185953 0.534161 0.033006 0.121047
C14   C     C_R   0.813990 0.465738 0.966964 0.121297
C15   C     C_R   0.201499 0.667581 0.031915 0.081100
C16   C     C_R   0.798403 0.332320 0.968018 0.080678
C17   C     C_R   0.932023 0.457506 0.387636 0.053879
C18   C     C_R   0.067970 0.542445 0.612364 0.053841
C19   C     C_R   0.872113 0.487108 0.505141 -0.090223
C20   C     C_R   0.127883 0.512855 0.494856 -0.090193
C21   C     C_R   0.943499 0.513153 0.622561 -0.069973
C22   C     C_R   0.056496 0.486789 0.377437 -0.069955
C23   C     C_R   0.594532 0.068478 0.438993 0.053716
C24   C     C_R   0.405485 0.931524 0.561042 0.053670
C25   C     C_R   0.596905 0.937943 0.442826 0.089000
C26   C     C_R   0.403104 0.062058 0.557193 0.088878
C27   C     C_R   0.501431 0.870822 0.502232 -0.038219
C28   C     C_R   0.498573 0.129179 0.497777 -0.038219
C29   C     C_R   0.466066 0.395131 0.069621 -0.000634
C30   C     C_R   0.533939 0.604868 0.930380 -0.000805
C31   C     C_R   0.468579 0.394714 0.923608 0.213286
C32   C     C_R   0.531415 0.605287 0.076391 0.213243
N1    N     N_R   0.500030 0.500030 0.852070 -0.189286
N2    N     N_R   0.499970 0.499970 0.147930 -0.189273
N3    N     N_3   0.269979 0.734133 0.932145 -0.561027
H1    H     H_    0.339707 0.784545 0.983959 0.228568
H2    H     H_    0.314092 0.677730 0.865569 0.229123
N4    N     N_3   0.729993 0.265743 0.067833 -0.561700
H3    H     H_    0.660191 0.215399 0.016078 0.228724
H4    H     H_    0.685964 0.322127 0.134501 0.229239
N5    N     N_3   0.427381 0.284216 0.850746 -0.514184
H5    H     H_    0.340514 0.257091 0.880484 0.227578
H6    H     H_    0.485908 0.212255 0.872163 0.191575
N6    N     N_3   0.572612 0.715786 0.149252 -0.514157
H7    H     H_    0.659542 0.742823 0.119602 0.227600
H8    H     H_    0.514157 0.787790 0.127734 0.191364
C33   C     C_2   0.124258 0.875431 0.107884 0.472324
H9    H     H_    0.042598 0.917180 0.142368 0.102080
O9    O     O_2   0.198752 0.942738 0.052496 -0.556030
C34   C     C_2   0.875368 0.124451 0.891879 0.473161
H10   H     H_    0.957322 0.082781 0.858101 0.101968
O10   O     O_2   0.800300 0.057030 0.946237 -0.555827
C35   C     C_2   0.033465 0.753102 0.349332 0.308889
H11   H     H_    0.956365 0.714279 0.401574 0.102288
O11   O     O_2   0.073024 0.857084 0.383179 -0.570202
C36   C     C_2   0.966580 0.246825 0.650672 0.309066
H12   H     H_    0.043618 0.285722 0.598381 0.102248
O12   O     O_2   0.927190 0.142750 0.616935 -0.570048
N7    N     N_3   0.122087 0.340496 0.141106 -0.499860
H13   H     H_    0.103457 0.303022 0.235365 0.248608
H14   H     H_    0.052867 0.311766 0.072365 0.186966
N8    N     N_3   0.877867 0.659413 0.858892 -0.499805
H15   H     H_    0.896509 0.696898 0.764642 0.248692
H16   H     H_    0.947075 0.688140 0.927648 0.187044
N9    N     N_3   0.217231 0.453026 0.923992 -0.584649
H17   H     H_    0.261037 0.497485 0.846987 0.272030
H18   H     H_    0.137648 0.412244 0.881038 0.208872
N10   N     N_3   0.782723 0.546863 0.075990 -0.584718
H19   H     H_    0.738887 0.502408 0.152975 0.272022
H20   H     H_    0.862308 0.587623 0.118960 0.208836
N11   N     N_3   0.873846 0.369812 0.295551 -0.570282
H21   H     H_    0.907057 0.385473 0.200550 0.227303
H22   H     H_    0.901305 0.281189 0.323336 0.242111
N12   N     N_3   0.126139 0.630137 0.704455 -0.570147
H23   H     H_    0.098692 0.718761 0.676658 0.242277
H24   H     H_    0.092901 0.614480 0.799444 0.227322
N13   N     N_3   0.689006 0.140418 0.376561 -0.584552
H25   H     H_    0.771524 0.119870 0.423214 0.271101
H26   H     H_    0.691147 0.112971 0.275103 0.246128
N14   N     N_3   0.311045 0.859589 0.623541 -0.584412
H27   H     H_    0.228501 0.880151 0.576962 0.271192
H28   H     H_    0.308974 0.887033 0.725006 0.246307
N15   N     N_3   0.697888 0.872905 0.392497 -0.582885
H29   H     H_    0.775419 0.901058 0.449506 0.251719
H30   H     H_    0.710809 0.898077 0.292186 0.230654
N16   N     N_3   0.302121 0.127095 0.607522 -0.582836
H31   H     H_    0.289201 0.101923 0.707834 0.230850
H32   H     H_    0.224590 0.098938 0.550515 0.251724
C37   C     C_2   0.424154 0.277270 0.131819 0.469305
H33   H     H_    0.465291 0.190109 0.106316 0.020030
O13   O     O_2   0.338641 0.274317 0.206304 -0.485003
C38   C     C_2   0.575825 0.722739 0.868183 0.469508
H34   H     H_    0.534641 0.809883 0.893655 0.020166
O14   O     O_2   0.661352 0.725721 0.793718 -0.484838

loop_
_geom_bond_atom_site_label_1
_geom_bond_atom_site_label_2
_geom_bond_distance
_ccdc_geom_bond_type
C36   O12   1.220351 D    
N13   H25   1.042707 S    
C35   O11   1.220329 D    
N8    H16   1.044134 S    
N15   H29   1.045234 S    
C4    C19   1.498927 S    
C18   N12   1.423425 S    
C24   C27   1.402404 A    
C5    C33   1.496464 S    
N9    H17   1.027075 S    
N11   H21   1.032635 S    
C33   H9    1.084881 S    
C29   C31   1.446105 A    
C38   H34   1.084020 S    
N3    H1    1.043000 S    
O5    C3    1.336324 A    
O1    C1    1.319293 A    
C9    C11   1.401873 A    
C14   C16   1.432703 A    
N10   H20   1.044362 S    
C5    C15   1.414471 A    
C17   C19   1.394399 A    
C34   O10   1.220600 D    
C6    C34   1.496231 S    
N3    H2    1.033791 S    
O4    Cu1   1.945722 S    
N7    H14   1.044144 S    
C23   C25   1.399923 A    
C29   C37   1.475548 S    
C30   N1    1.390058 A    
C3    C20   1.498933 S    
N16   H32   1.045230 S    
C24   C26   1.399921 A    
C16   N4    1.440856 S    
C30   C32   1.446097 A    
C36   H12   1.082267 S    
N15   H30   1.044191 S    
Cu1   Cu2   2.784178 S    
C31   N1    1.377489 A    
O2    C2    1.319306 A    
C32   N2    1.377490 A    
C9    C22   1.474016 S    
C12   N8    1.442092 S    
N11   H22   1.044681 S    
C25   N15   1.436564 S    
C6    C16   1.414412 A    
N6    H8    1.044595 S    
N5    H5    1.044718 S    
C17   N11   1.423435 S    
N12   H23   1.044682 S    
O4    C2    1.319304 A    
N10   H19   1.027072 S    
C11   N7    1.442096 S    
C34   H10   1.084987 S    
N5    H6    1.044557 S    
O7    Cu2   2.012697 S    
C24   N14   1.433549 S    
N9    H18   1.044362 S    
C26   N16   1.436561 S    
N14   H28   1.044133 S    
C37   H33   1.084016 S    
O6    C4    1.336316 A    
N16   H31   1.044188 S    
C2    C27   1.440066 S    
C38   O14   1.215731 D    
O7    C3    1.332868 A    
O3    Cu2   1.945722 S    
O8    C4    1.332875 A    
C14   N10   1.435658 S    
N4    H3    1.042964 S    
C37   O13   1.215730 D    
C10   C12   1.401882 A    
C11   C13   1.396133 A    
C12   C14   1.396154 A    
O1    Cu1   1.940891 S    
C26   C28   1.402174 A    
C15   N3    1.440823 S    
Cu1   N1    2.092282 S    
Cu2   N2    2.092282 S    
C5    C7    1.412804 A    
N6    H7    1.044852 S    
O6    Cu2   1.999953 S    
C25   C27   1.402175 A    
C17   C22   1.407063 A    
C18   C21   1.407054 A    
C13   N9    1.435668 S    
N8    H15   1.042833 S    
O3    C1    1.319316 A    
O8    Cu1   2.012696 S    
C29   N2    1.390050 A    
C8    C36   1.494086 S    
C23   C28   1.402399 A    
N13   H26   1.044135 S    
C23   N13   1.433545 S    
C18   C20   1.394404 A    
C19   C21   1.404792 A    
C7    C35   1.494015 S    
C20   C22   1.404820 A    
N14   H27   1.042694 S    
N4    H4    1.033794 S    
C7    C9    1.420719 A    
C8    C10   1.420716 A    
C13   C15   1.432696 A    
N7    H13   1.042831 S    
O2    Cu2   1.940891 S    
C33   O9    1.220470 D    
C30   C38   1.475550 S    
C35   H11   1.082275 S    
O5    Cu1   1.999954 S    
C6    C8    1.412772 A    
N12   H24   1.032628 S    
C1    C28   1.440064 S    
C31   N5    1.430926 S    
C32   N6    1.430920 S    
C10   C21   1.474026 S    
