data_mof_unit_29778.cif
_audit_creation_date              2012-12-10T18:08:11-0500
_audit_creation_method            fapswitch 2.2
_symmetry_space_group_name_H-M    P1
_symmetry_Int_Tables_number       1
_space_group_crystal_system       triclinic
_cell_length_a                    12.710531
_cell_length_b                    13.873037
_cell_length_c                    17.174497
_cell_angle_alpha                 90.337345
_cell_angle_beta                  96.107045
_cell_angle_gamma                 81.777712
_cell_volume                      2980.16769935

loop_
_atom_site_label
_atom_site_type_symbol
_atom_type_description
_atom_site_fract_x
_atom_site_fract_y
_atom_site_fract_z
_atom_type_partial_charge
C1    C     C_R   0.516709 0.315650 0.501617 0.831401
C2    C     C_R   0.483272 0.684290 0.498464 0.849851
C3    C     C_1   0.473697 0.787436 0.492297 -0.155141
C4    C     C_1   0.526109 0.212365 0.507748 -0.169704
C5    C     C_2   0.462373 0.978604 0.477372 0.375479
C6    C     C_2   0.535925 0.021270 0.522012 0.385878
C7    C     C_1   0.532201 0.125615 0.514244 -0.063684
C8    C     C_1   0.467075 0.874132 0.485615 -0.056897
C9    C     C_2   0.973556 0.465894 0.510757 0.282315
C10   C     C_2   0.024480 0.536538 0.482413 0.252933
C11   C     C_1   0.143684 0.522808 0.485511 0.080559
C12   C     C_1   0.855965 0.478043 0.511949 0.197757
C13   C     C_R   0.511804 0.502736 0.650915 0.907975
C14   C     C_R   0.487580 0.503672 0.348601 0.869850
C15   C     C_R   0.514558 0.516102 0.735539 -0.181876
C16   C     C_R   0.482795 0.521243 0.263620 -0.187841
C17   C     C_R   0.452578 0.598239 0.765811 0.315886
C18   C     C_R   0.566251 0.562180 0.233210 0.280665
C19   C     C_R   0.470451 0.620132 0.846360 0.396706
C20   C     C_R   0.551702 0.596561 0.155233 0.372516
C21   C     C_R   0.537960 0.551959 0.896141 -0.030088
C22   C     C_R   0.465971 0.571654 0.104291 -0.020658
C23   C     C_R   0.594507 0.468853 0.865967 -0.298504
C24   C     C_R   0.385999 0.527804 0.133670 -0.312114
C25   C     C_R   0.585101 0.451549 0.785832 0.096567
C26   C     C_R   0.392555 0.504002 0.213028 0.102811
C27   C     C_2   0.547729 0.563101 0.981406 -0.064639
C28   C     C_2   0.460584 0.585153 0.019188 -0.140217
Cu1   Cu    Cu3+1 0.605120 0.493930 0.505020 1.005033
Cu2   Cu    Cu3+1 0.394880 0.506070 0.494980 0.975892
H1    H     H_    0.382121 0.597376 0.986120 0.131426
H2    H     H_    0.624408 0.536717 0.013963 0.166866
H3    H     H_    0.646609 0.417171 0.904922 0.157736
H4    H     H_    0.318867 0.510220 0.094498 0.158094
N1    N     N_1   0.763100 0.484810 0.512560 -0.171429
N2    N     N_1   0.236900 0.515190 0.487440 -0.165604
O1    O     O_R   0.601320 0.356300 0.504850 -0.585925
O2    O     O_R   0.398680 0.643700 0.495150 -0.591617
O3    O     O_R   0.423780 0.366550 0.496380 -0.563281
O4    O     O_R   0.576220 0.633450 0.503620 -0.553013
O5    O     O_R   0.599070 0.494270 0.618330 -0.554364
O6    O     O_R   0.400930 0.505730 0.381670 -0.552958
O7    O     O_R   0.421520 0.504520 0.609850 -0.592998
O8    O     O_R   0.578480 0.495480 0.390150 -0.557171
O9    O     O_3   0.386687 0.663965 0.715329 -0.614292
C29   C     C_3   0.281097 0.639689 0.696497 0.060971
H5    H     H_    0.266946 0.633439 0.631906 0.198083
H6    H     H_    0.223245 0.703141 0.711205 0.130056
C30   C     C_3   0.251233 0.547168 0.734364 -0.439760
H7    H     H_    0.298755 0.480679 0.713261 0.240342
H8    H     H_    0.267235 0.548629 0.799031 0.192188
C31   C     C_3   0.133001 0.539367 0.713763 -0.848950
H9    H     H_    0.082594 0.602769 0.737082 0.240883
H10   H     H_    0.114089 0.471718 0.739925 0.265339
H11   H     H_    0.113764 0.536790 0.649366 0.264541
O10   O     O_3   0.656232 0.578380 0.282154 -0.594444
C32   C     C_3   0.749466 0.521187 0.259245 0.109496
H12   H     H_    0.819388 0.555002 0.284649 0.172402
H13   H     H_    0.752805 0.520245 0.194775 0.154752
C33   C     C_3   0.761792 0.416506 0.290815 -0.355503
H14   H     H_    0.764567 0.417346 0.355583 0.241972
H15   H     H_    0.692371 0.381177 0.266630 0.208009
C34   C     C_3   0.864127 0.356375 0.268490 -0.965252
H16   H     H_    0.864726 0.355409 0.203862 0.259218
H17   H     H_    0.868571 0.280329 0.289657 0.268959
H18   H     H_    0.935221 0.387062 0.295740 0.257290
N3    N     N_3   0.309052 0.459088 0.241358 -0.558417
H19   H     H_    0.237165 0.506038 0.229210 0.218370
H20   H     H_    0.302501 0.394926 0.210108 0.214494
N4    N     N_3   0.645802 0.367239 0.755525 -0.581253
H21   H     H_    0.626380 0.305577 0.782298 0.212624
H22   H     H_    0.726860 0.370554 0.771706 0.230785
O11   O     O_3   0.624037 0.650230 0.127318 -0.631219
C35   C     C_3   0.610767 0.745781 0.157732 0.081801
H23   H     H_    0.686059 0.776166 0.152742 0.165153
H24   H     H_    0.598674 0.747944 0.221074 0.159274
C36   C     C_3   0.518653 0.810638 0.110319 -0.357879
H25   H     H_    0.529351 0.804638 0.047030 0.258701
H26   H     H_    0.441608 0.785894 0.119838 0.206713
C37   C     C_3   0.514452 0.916918 0.134697 -0.935164
H27   H     H_    0.507269 0.924001 0.198403 0.254279
H28   H     H_    0.444117 0.961362 0.102158 0.259613
H29   H     H_    0.587936 0.945335 0.121230 0.258768
O12   O     O_3   0.443037 0.713355 0.875239 -0.570799
C38   C     C_3   0.331516 0.743974 0.866765 0.121531
H30   H     H_    0.285048 0.682536 0.871294 0.061364
H31   H     H_    0.307346 0.782462 0.809924 0.184556
C39   C     C_3   0.302117 0.815805 0.931571 -0.387561
H32   H     H_    0.213627 0.833430 0.928061 0.170464
H33   H     H_    0.330903 0.781671 0.989677 0.214530
C40   C     C_3   0.349081 0.910319 0.924199 -0.756184
H34   H     H_    0.437700 0.895568 0.928575 0.278931
H35   H     H_    0.325382 0.960265 0.972038 0.221013
H36   H     H_    0.318365 0.946792 0.867230 0.236481
O13   O     O_3   0.605133 0.965014 0.578714 -0.626099
C41   C     C_3   0.700242 0.004178 0.602431 0.075691
H37   H     H_    0.737990 0.964229 0.656486 0.176400
H38   H     H_    0.685239 0.082043 0.619401 0.137156
C42   C     C_3   0.778658 0.987892 0.539960 -0.370026
H39   H     H_    0.786293 0.910659 0.521034 0.235155
H40   H     H_    0.747949 0.035076 0.488081 0.209695
C43   C     C_3   0.888870 0.011141 0.571612 -0.922801
H41   H     H_    0.882979 0.087478 0.592318 0.258677
H42   H     H_    0.942880 0.001602 0.524629 0.268569
H43   H     H_    0.923791 0.961143 0.620912 0.254748
O14   O     O_3   0.390713 0.035091 0.422024 -0.634398
C44   C     C_3   0.305531 0.987229 0.388905 0.060075
H44   H     H_    0.236345 0.044114 0.371472 0.165391
H45   H     H_    0.277007 0.939662 0.431730 0.143906
C45   C     C_3   0.335610 0.931913 0.315004 -0.346314
H46   H     H_    0.347872 0.985019 0.269807 0.222852
H47   H     H_    0.411413 0.881364 0.327954 0.216352
C46   C     C_3   0.248260 0.873353 0.282367 -0.927237
H48   H     H_    0.237250 0.817525 0.325739 0.257928
H49   H     H_    0.271549 0.835837 0.228172 0.256974
H50   H     H_    0.171512 0.922244 0.268021 0.254309
O15   O     O_3   0.959845 0.620266 0.450453 -0.631113
C47   C     C_3   0.016938 0.696730 0.433424 0.075992
H51   H     H_    0.962854 0.748182 0.392711 0.159491
H52   H     H_    0.087034 0.671366 0.401110 0.137640
C48   C     C_3   0.047555 0.752910 0.507775 -0.340325
H53   H     H_    0.973664 0.789119 0.530948 0.227082
H54   H     H_    0.091929 0.702330 0.553716 0.203724
C49   C     C_3   0.117276 0.829543 0.490976 -0.950167
H55   H     H_    0.193758 0.793866 0.471331 0.267236
H56   H     H_    0.135523 0.870833 0.545137 0.260285
H57   H     H_    0.075236 0.881385 0.444956 0.251966
O16   O     O_3   0.032754 0.382949 0.546105 -0.631183
C50   C     C_3   0.058823 0.312514 0.488594 0.061032
H58   H     H_    0.135246 0.267461 0.511289 0.188409
H59   H     H_    0.073155 0.344798 0.431933 0.119573
C51   C     C_3   0.972235 0.246159 0.474726 -0.336568
H60   H     H_    0.954692 0.218734 0.531866 0.233759
H61   H     H_    0.897767 0.288275 0.445527 0.210170
C52   C     C_3   0.007669 0.159697 0.423574 -0.948984
H62   H     H_    0.030847 0.185244 0.367516 0.258175
H63   H     H_    0.940829 0.116655 0.410299 0.259413
H64   H     H_    0.076762 0.111853 0.454639 0.255643

loop_
_geom_bond_atom_site_label_1
_geom_bond_atom_site_label_2
_ccdc_geom_bond_type
C52   H64   S    
C34   H17   S    
O11   C35   S    
C39   H33   S    
O13   C41   S    
O16   C50   S    
C13   O5    A    
C52   H62   S    
C36   H25   S    
C29   C30   S    
C35   H24   S    
C33   C34   S    
C26   N3    S    
C49   H56   S    
C11   N2    T    
C19   C21   A    
C17   O9    S    
C50   H58   S    
C37   H29   S    
C5    C6    D    
C32   H13   S    
O14   C44   S    
C41   C42   S    
O10   C32   S    
Cu2   O2    S    
C43   H43   S    
C33   H15   S    
C47   H51   S    
C48   C49   S    
C45   H46   S    
C51   H60   S    
C30   H8    S    
C35   C36   S    
C41   H38   S    
Cu2   O3    S    
C44   H44   S    
N4    H21   S    
C9    C10   D    
C18   C20   A    
C31   H11   S    
C1    O1    A    
C14   O6    A    
C50   C51   S    
C36   H26   S    
C21   C27   S    
C34   H18   S    
C22   C28   S    
C44   H45   S    
C4    C7    T    
C31   H10   S    
C47   H52   S    
C5    O14   S    
C38   H31   S    
C16   C26   A    
C29   H6    S    
C9    O16   S    
C35   H23   S    
N3    H19   S    
O12   C38   S    
C37   H28   S    
C3    C8    T    
C40   H34   S    
C32   C33   S    
C23   H3    S    
C38   H30   S    
C24   H4    S    
C33   H14   S    
N3    H20   S    
C47   C48   S    
Cu1   Cu2   S    
C40   H35   S    
C2    O2    A    
C42   H39   S    
C39   C40   S    
C30   C31   S    
C41   H37   S    
C12   N1    T    
C43   H42   S    
C45   C46   S    
C48   H53   S    
C49   H57   S    
C16   C18   A    
C42   H40   S    
C20   C22   A    
C6    O13   S    
C21   C23   A    
Cu1   O8    S    
C44   C45   S    
C22   C24   A    
Cu2   O7    S    
O9    C29   S    
C19   O12   S    
C13   O7    A    
C31   H9    S    
C14   O8    A    
C46   H48   S    
C38   C39   S    
C52   H63   S    
C29   H5    S    
Cu1   O5    S    
C27   H2    S    
C28   H1    S    
C24   C26   A    
C37   H27   S    
C5    C8    S    
C15   C17   A    
C6    C7    S    
C18   O10   S    
Cu1   N1    S    
Cu2   N2    S    
C1    C4    S    
C46   H50   S    
C13   C15   S    
C2    C3    S    
C10   O15   S    
O15   C47   S    
C40   H36   S    
C36   C37   S    
C32   H12   S    
C51   C52   S    
Cu1   O4    S    
C17   C19   A    
C20   O11   S    
C14   C16   S    
C23   C25   A    
C43   H41   S    
C9    C12   S    
C45   H47   S    
C48   H54   S    
C15   C25   A    
C10   C11   S    
C1    O3    A    
C34   H16   S    
C2    O4    A    
C42   C43   S    
C39   H32   S    
C51   H61   S    
C30   H7    S    
Cu1   O1    S    
C27   C28   D    
Cu2   O6    S    
N4    H22   S    
C25   N4    S    
C46   H49   S    
C49   H55   S    
C50   H59   S    
