data_mof_unit_34730.cif
_audit_creation_date              2012-12-10T16:55:04-0500
_audit_creation_method            fapswitch 2.2
_symmetry_space_group_name_H-M    P1
_symmetry_Int_Tables_number       1
_space_group_crystal_system       triclinic
_cell_length_a                    9.694312
_cell_length_b                    10.933801
_cell_length_c                    15.508473
_cell_angle_alpha                 90.043669
_cell_angle_beta                  73.880859
_cell_angle_gamma                 89.937747
_cell_volume                      1579.20438864

loop_
_atom_site_label
_atom_site_type_symbol
_atom_type_description
_atom_site_fract_x
_atom_site_fract_y
_atom_site_fract_z
_atom_type_partial_charge
C1    C     C_R   0.999385 0.265372 0.501619 0.849357
C2    C     C_R   0.670248 0.521092 0.906124 -0.019749
C3    C     C_R   0.764903 0.570855 0.952187 0.112527
C4    C     C_R   0.520504 0.514988 0.950711 0.066421
C5    C     C_R   0.472432 0.535466 0.044886 0.060822
C6    C     C_R   0.572017 0.579094 0.089274 -0.218352
C7    C     C_R   0.714605 0.599257 0.043026 -0.211630
C8    C     C_R   0.416546 0.497946 0.903377 -0.171712
C9    C     C_R   0.271665 0.486955 0.947991 -0.275154
C10   C     C_R   0.225027 0.493084 0.041256 0.171680
C11   C     C_R   0.325054 0.516325 0.090818 0.088355
C12   C     C_R   0.916973 0.500346 0.672093 0.835143
C13   C     C_R   0.078900 0.477091 0.085603 -0.209796
C14   C     C_R   0.030905 0.481751 0.178952 -0.195960
C15   C     C_R   0.274653 0.516426 0.184917 -0.250410
C16   C     C_2   0.884366 0.933128 0.505826 -0.154267
C17   C     C_2   0.004148 0.866688 0.495333 -0.314440
C18   C     C_2   0.885773 0.067091 0.501965 -0.163721
C19   C     C_2   0.999396 0.133446 0.507033 -0.319041
C20   C     C_2   0.397714 0.434241 0.554917 -0.073630
C21   C     C_2   0.554061 0.431961 0.553392 -0.053035
C22   C     C_R   0.000371 0.734663 0.499215 0.848491
C23   C     C_R   0.083106 0.499811 0.327759 0.800712
C24   C     C_R   0.870810 0.512382 0.770110 -0.138891
C25   C     C_R   0.129036 0.499934 0.229114 -0.050680
C26   C     C_R   0.909182 0.592798 0.906707 -0.225520
C27   C     C_R   0.960607 0.567389 0.815538 -0.278286
C28   C     C_R   0.730331 0.478504 0.817324 0.366356
Cu1   Cu    Cu3+1 0.138640 0.500020 0.499980 0.935909
Cu2   Cu    Cu3+1 0.861360 0.499980 0.500020 0.953444
H1    H     H_    0.786329 0.636705 0.078910 0.143810
H2    H     H_    0.001879 0.459710 0.048100 0.142909
H3    H     H_    0.781053 0.888437 0.515974 0.166877
H4    H     H_    0.109472 0.907688 0.481884 0.147057
H5    H     H_    0.788823 0.111798 0.495800 0.164942
H6    H     H_    0.095239 0.092437 0.517220 0.147119
H7    H     H_    0.584710 0.370846 0.599889 0.180290
H8    H     H_    0.624528 0.559067 0.458217 0.187675
H9    H     H_    0.347876 0.525316 0.225517 0.151896
H10   H     H_    0.195779 0.473020 0.909100 0.152529
H11   H     H_    0.980943 0.633920 0.940993 0.152127
H12   H     H_    0.069849 0.592291 0.780362 0.177628
H13   H     H_    0.541547 0.605344 0.158996 0.138056
H14   H     H_    0.443494 0.499406 0.831112 0.204603
N1    N     N_2   0.346430 0.498660 0.500980 -0.280832
N2    N     N_2   0.652550 0.498630 0.501000 -0.286797
O1    O     O_R   0.117050 0.321960 0.499980 -0.577394
O2    O     O_R   0.882890 0.321920 0.500020 -0.576165
O3    O     O_R   0.052910 0.500040 0.629810 -0.592783
O4    O     O_R   0.818750 0.499990 0.629840 -0.528344
O5    O     O_R   0.117110 0.678080 0.499980 -0.579827
O6    O     O_R   0.882950 0.678040 0.500020 -0.578746
O7    O     O_R   0.181250 0.500010 0.370160 -0.583537
O8    O     O_R   0.947090 0.499960 0.370190 -0.582726
H15   H     H_    0.324495 0.377295 0.604231 0.150696
H16   H     H_    0.414870 0.550793 0.452712 0.191238
H17   H     H_    0.917797 0.468530 0.211788 0.156316
O9    O     O_3   0.656357 0.399053 0.776762 -0.598484
C29   C     C_3   0.679288 0.278429 0.802187 0.064381
H18   H     H_    0.627577 0.264699 0.875179 0.153924
H19   H     H_    0.796135 0.257002 0.786859 0.132765
C30   C     C_3   0.612877 0.189178 0.749970 -0.799264
H20   H     H_    0.625648 0.094163 0.771825 0.207874
H21   H     H_    0.496690 0.209258 0.762129 0.243073
H22   H     H_    0.667304 0.196886 0.677049 0.242167

loop_
_geom_bond_atom_site_label_1
_geom_bond_atom_site_label_2
_ccdc_geom_bond_type
C8    C9    A    
C12   O4    A    
C10   C13   A    
C1    O2    A    
C5    C11   A    
Cu1   Cu2   S    
C28   O9    S    
C16   H3    S    
C2    C28   A    
C9    C10   A    
C12   C24   S    
C13   H2    S    
C2    C4    A    
C17   C22   S    
C24   C27   A    
C4    C8    A    
C10   C11   A    
C12   O3    A    
Cu2   O4    S    
C21   H7    S    
C29   H18   S    
Cu1   O3    S    
C13   C14   A    
Cu2   O8    S    
C27   H12   S    
C15   H9    S    
C26   C27   A    
C30   H20   S    
Cu1   O7    S    
Cu1   O1    S    
C20   H15   S    
C23   O7    A    
C16   C18   S    
C2    C3    A    
C6    C7    A    
C3    C7    A    
C19   H6    S    
C23   C25   S    
C14   C25   A    
C22   O5    A    
C5    C6    A    
H8    N2    S    
C15   C25   A    
C17   H4    S    
C26   H11   S    
C21   N2    D    
C20   N1    D    
C7    H1    S    
C20   C21   S    
C18   H5    S    
C23   O8    A    
C22   O6    A    
C18   C19   D    
Cu1   O5    S    
C29   H19   S    
Cu2   O2    S    
C3    C26   A    
C14   H17   S    
Cu2   O6    S    
C6    H13   S    
C4    C5    A    
C29   C30   S    
C30   H21   S    
C30   H22   S    
O9    C29   S    
C1    C19   S    
C11   C15   A    
Cu2   N2    S    
C9    H10   S    
C1    O1    A    
C24   C28   A    
N1    H16   S    
Cu1   N1    S    
C16   C17   D    
C8    H14   S    
