data_mof_unit_63487.cif
_audit_creation_date              2012-12-10T19:38:56-0500
_audit_creation_method            fapswitch 2.2
_symmetry_space_group_name_H-M    P1
_symmetry_Int_Tables_number       1
_space_group_crystal_system       triclinic
_cell_length_a                    19.155381
_cell_length_b                    18.30783
_cell_length_c                    23.461341
_cell_angle_alpha                 90.135269
_cell_angle_beta                  90.138439
_cell_angle_gamma                 89.984969
_cell_volume                      8227.69160857

loop_
_atom_site_label
_atom_site_type_symbol
_atom_type_description
_atom_site_fract_x
_atom_site_fract_y
_atom_site_fract_z
_atom_type_partial_charge
C1    C     C_R   0.364964 0.499974 0.500774 0.955690
C2    C     C_R   0.635047 0.499947 0.500865 0.957183
C3    C     C_R   0.498500 0.435352 0.236592 -0.269447
C4    C     C_R   0.501481 0.564662 0.763395 -0.270748
C5    C     C_R   0.498913 0.433843 0.295734 0.647740
C6    C     C_R   0.501068 0.566165 0.704254 0.649390
C7    C     C_R   0.499359 0.499879 0.326701 -0.274490
C8    C     C_R   0.500637 0.500126 0.673293 -0.274360
C9    C     C_R   0.499196 0.566802 0.297478 -0.377804
C10   C     C_R   0.500813 0.433206 0.702517 -0.379660
C11   C     C_R   0.498785 0.567898 0.238326 0.731556
C12   C     C_R   0.501224 0.432114 0.761668 0.731016
C13   C     C_R   0.498522 0.502133 0.208016 0.086301
C14   C     C_R   0.501473 0.497882 0.791975 0.086521
C15   C     C_R   0.254431 0.562240 0.527660 0.586490
C16   C     C_R   0.748271 0.434028 0.500183 0.583736
C17   C     C_R   0.745836 0.562391 0.527289 0.583230
C18   C     C_R   0.251608 0.434452 0.498948 0.585236
C19   C     C_R   0.183362 0.559606 0.538765 -0.224048
C20   C     C_R   0.819222 0.431830 0.511649 -0.225802
C21   C     C_R   0.816954 0.559777 0.538491 -0.220134
C22   C     C_R   0.180701 0.432216 0.510330 -0.220980
C23   C     C_R   0.146103 0.494652 0.530264 -0.110519
C24   C     C_R   0.854062 0.494579 0.530764 -0.110163
C25   C     C_R   0.289262 0.499442 0.507859 -0.334276
C26   C     C_R   0.710785 0.499325 0.508171 -0.332788
C27   C     C_R   0.499828 0.499875 0.389004 0.957654
C28   C     C_R   0.500171 0.500126 0.610995 0.953862
C29   C     C_R   0.929693 0.493163 0.538395 0.371869
C30   C     C_R   0.070558 0.493204 0.538095 0.372279
C31   C     C_R   0.456949 0.273450 0.463816 0.131509
C32   C     C_R   0.542503 0.726545 0.536619 0.133223
C33   C     C_R   0.543076 0.273651 0.536168 0.072565
C34   C     C_R   0.457444 0.726360 0.463432 0.070574
C35   C     C_R   0.456132 0.196674 0.463116 -0.228330
C36   C     C_R   0.543323 0.803321 0.537331 -0.228963
C37   C     C_R   0.543900 0.196879 0.536870 -0.228140
C38   C     C_R   0.456615 0.803133 0.462748 -0.228435
C39   C     C_R   0.500012 0.156915 0.499998 0.061322
C40   C     C_R   0.499976 0.843088 0.500038 0.061876
C41   C     C_R   0.499983 0.925146 0.500034 0.325882
C42   C     C_R   0.500004 0.074857 0.500010 0.325922
C43   C     C_R   0.561666 0.513682 0.881038 0.560628
C44   C     C_R   0.438328 0.486337 0.118951 0.560705
C45   C     C_R   0.440586 0.481531 0.880372 0.596437
C46   C     C_R   0.559408 0.518493 0.119618 0.596514
C47   C     C_R   0.438762 0.482152 0.939861 -0.041719
C48   C     C_R   0.561231 0.517872 0.060128 -0.041840
C49   C     C_R   0.500302 0.499321 0.970063 -0.011776
C50   C     C_R   0.499692 0.500703 0.029927 -0.011756
C51   C     C_R   0.562432 0.515181 0.940540 -0.033398
C52   C     C_R   0.437562 0.484842 0.059449 -0.033504
C53   C     C_R   0.377130 0.466472 0.969658 -0.130915
C54   C     C_R   0.622863 0.533553 0.030331 -0.130618
C55   C     C_R   0.376534 0.467807 0.028978 -0.130943
C56   C     C_R   0.623459 0.532216 0.971011 -0.131204
H1    H     H_    0.421328 0.168804 0.433872 0.176701
H2    H     H_    0.577689 0.831184 0.566923 0.177164
H3    H     H_    0.578714 0.169172 0.566108 0.171963
H4    H     H_    0.422227 0.830847 0.433180 0.171647
H5    H     H_    0.157616 0.608588 0.553922 0.203235
H6    H     H_    0.846914 0.381030 0.504646 0.203509
H7    H     H_    0.842874 0.609002 0.553025 0.202196
H8    H     H_    0.152857 0.381655 0.502650 0.202780
H9    H     H_    0.423044 0.303481 0.435324 0.184105
H10   H     H_    0.575956 0.696512 0.565459 0.190122
H11   H     H_    0.577003 0.303844 0.564641 0.145713
H12   H     H_    0.423937 0.696179 0.434625 0.142698
N1    N     N_R   0.501356 0.497197 0.852565 -0.326184
N2    N     N_R   0.498638 0.502823 0.147425 -0.326376
N3    N     N_R   0.034718 0.430093 0.530717 -0.159949
N4    N     N_R   0.965515 0.555929 0.547685 -0.158915
N5    N     N_R   0.965515 0.430073 0.530864 -0.160095
N6    N     N_R   0.034787 0.555948 0.547544 -0.158695
N7    N     N_R   0.500000 0.310560 0.500000 -0.110367
N8    N     N_R   0.500000 0.689440 0.500000 -0.109450
N9    N     N_R   0.542215 0.036599 0.535906 -0.154761
N10   N     N_R   0.457776 0.963405 0.464136 -0.154748
N11   N     N_R   0.457782 0.036400 0.464127 -0.153648
N12   N     N_R   0.542202 0.963603 0.535920 -0.153681
O1    O     O_R   0.398130 0.560830 0.500010 -0.572394
O2    O     O_R   0.601870 0.439170 0.499990 -0.573310
O3    O     O_R   0.601870 0.560830 0.499990 -0.579440
O4    O     O_R   0.398130 0.439170 0.500010 -0.581010
O5    O     O_R   0.499970 0.560830 0.416150 -0.652291
O6    O     O_R   0.500030 0.439170 0.583850 -0.653639
O7    O     O_R   0.500030 0.560830 0.583850 -0.556587
O8    O     O_R   0.499970 0.439170 0.416150 -0.558376
O9    O     O_2   0.620523 0.528400 0.851701 -0.531359
O10   O     O_2   0.379473 0.471615 0.148288 -0.530392
O11   O     O_2   0.382196 0.465990 0.850388 -0.520719
O12   O     O_2   0.617797 0.534036 0.149601 -0.519678
Zn1   Zn    Zn3+2 0.500000 0.581210 0.500000 1.041117
Zn2   Zn    Zn3+2 0.500000 0.418790 0.500000 1.038375
H13   H     H_    0.329245 0.453176 0.947290 0.199615
H14   H     H_    0.670749 0.546849 0.052699 0.199802
H15   H     H_    0.328222 0.455440 0.050818 0.199526
H16   H     H_    0.671772 0.544582 0.949171 0.199355
H17   H     H_    0.498376 0.384626 0.212738 0.201111
H18   H     H_    0.501594 0.615389 0.787247 0.201173
F1    F     F_    0.498932 0.367967 0.322193 -0.629555
F2    F     F_    0.501031 0.632039 0.677792 -0.628164
H19   H     H_    0.499369 0.618313 0.320286 0.218145
H20   H     H_    0.500651 0.381692 0.679711 0.218503
F3    F     F_    0.498408 0.632720 0.210398 -0.622515
F4    F     F_    0.501613 0.367294 0.789599 -0.622799
F5    F     F_    0.288965 0.625782 0.537656 -0.621306
F6    F     F_    0.716752 0.372223 0.480962 -0.624484
F7    F     F_    0.711514 0.626241 0.536443 -0.643328
F8    F     F_    0.282937 0.373016 0.478905 -0.640489

loop_
_geom_bond_atom_site_label_1
_geom_bond_atom_site_label_2
_ccdc_geom_bond_type
C38   C40   A    
O2    Zn2   S    
C53   H13   S    
C19   C23   A    
C56   H16   S    
C41   N12   A    
C30   N3    A    
C47   C49   A    
C1    O4    A    
C48   C54   A    
C43   O9    S    
C17   C26   A    
C32   C36   A    
C32   H10   S    
C36   H2    S    
C30   N6    A    
C15   C25   A    
C29   N5    A    
C13   N2    S    
C1    O1    A    
O3    Zn1   S    
C7    C27   S    
C7    C9    A    
C51   C56   A    
C45   C47   A    
C15   F5    S    
C27   O5    A    
C24   C29   S    
O6    Zn2   S    
C15   C19   A    
O5    Zn1   S    
C33   N7    A    
C20   C24   A    
C49   C51   A    
C11   F3    S    
C50   C52   A    
C44   N2    A    
C54   H14   S    
C3    C13   A    
C52   C55   A    
C9    H19   S    
C47   C53   A    
C29   N4    A    
C44   C52   A    
C48   C50   A    
C42   N11   A    
C43   N1    A    
C18   C22   A    
C1    C25   S    
C2    O3    A    
C18   C25   A    
C39   C42   S    
C46   C48   A    
C53   C55   A    
C16   C26   A    
C5    F1    S    
C46   N2    A    
C45   N1    A    
C23   C30   S    
C36   C40   A    
N4    N6    A    
C34   H12   S    
C41   N10   A    
C5    C7    A    
N10   N11   A    
C6    C8    A    
C33   C37   A    
C35   C39   A    
C20   H6    S    
N8    Zn1   S    
O1    Zn1   S    
C31   N7    A    
C16   C20   A    
C55   H15   S    
C28   O7    A    
C2    C26   S    
O4    Zn2   S    
C9    C11   A    
C37   H3    S    
C10   C12   A    
C38   H4    S    
C4    C6    A    
C40   C41   S    
C12   C14   A    
C4    H18   S    
C28   O6    A    
C8    C28   S    
C14   N1    S    
C31   C35   A    
C2    O2    A    
C44   O10   S    
C33   H11   S    
N3    N5    A    
N9    N12   A    
C31   H9    S    
C34   C38   A    
C18   F8    S    
C3    C5    A    
C17   F7    S    
C32   N8    A    
C54   C56   A    
C35   H1    S    
C10   H20   S    
C37   C39   A    
C12   F4    S    
C11   C13   A    
C43   C51   A    
C19   H5    S    
O7    Zn1   S    
C6    F2    S    
C4    C14   A    
C27   O8    A    
C45   O11   S    
C17   C21   A    
C21   H7    S    
C16   F6    S    
C22   H8    S    
C3    H17   S    
C46   O12   S    
C42   N9    A    
C8    C10   A    
C49   C50   A    
C21   C24   A    
O8    Zn2   S    
C22   C23   A    
N7    Zn2   S    
C34   N8    A    
