data_mof_unit_5157.cif
_audit_creation_date              2012-12-10T17:48:57-0500
_audit_creation_method            fapswitch 2.2
_symmetry_space_group_name_H-M    P1
_symmetry_Int_Tables_number       1
_space_group_crystal_system       triclinic
_cell_length_a                    10.738044
_cell_length_b                    14.765705
_cell_length_c                    14.718808
_cell_angle_alpha                 64.849978
_cell_angle_beta                  104.162687
_cell_angle_gamma                 103.210951
_cell_volume                      2027.55576968

loop_
_atom_site_label
_atom_site_type_symbol
_atom_type_description
_atom_site_fract_x
_atom_site_fract_y
_atom_site_fract_z
_atom_type_partial_charge
C1    C     C_R   0.487371 0.119302 0.312357 0.831006
C2    C     C_3   0.878105 0.002985 0.497565 0.121753
C3    C     C_3   0.932755 0.915187 0.593036 -0.382970
C4    C     C_3   0.960603 0.104041 0.498377 -0.362789
C5    C     C_R   0.499082 0.186333 0.205206 -0.137026
C6    C     C_R   0.541102 0.812553 0.796404 -0.067715
C7    C     C_R   0.518971 0.221268 0.031957 -0.221205
C8    C     C_R   0.516231 0.152079 0.132681 -0.033849
C9    C     C_R   0.501049 0.290219 0.176833 -0.257047
C10   C     C_R   0.522472 0.361194 0.079710 0.106235
C11   C     C_R   0.522107 0.324619 0.005217 0.127635
C12   C     C_R   0.259744 0.001272 0.498341 0.782999
C13   C     C_R   0.543673 0.467357 0.054544 0.042622
C14   C     C_R   0.543030 0.534943 0.951345 0.067865
C15   C     C_R   0.537392 0.494895 0.878121 -0.176168
C16   C     C_R   0.529965 0.391886 0.905308 -0.198129
C17   C     C_R   0.575533 0.507477 0.130314 -0.267859
C18   C     C_R   0.600776 0.611637 0.106116 -0.040297
C19   C     C_R   0.581692 0.679103 0.002826 0.068811
C20   C     C_R   0.552060 0.640492 0.925137 0.083639
C21   C     C_R   0.588427 0.784075 0.974854 -0.132909
C22   C     C_R   0.570611 0.849996 0.872916 -0.180912
C23   C     C_R   0.522576 0.880275 0.688000 0.787777
C24   C     C_R   0.529368 0.708586 0.823004 -0.216419
C25   C     C_R   0.724135 0.280046 0.671677 -0.098593
C26   C     C_R   0.683831 0.200059 0.639459 0.024340
C27   C     C_R   0.519751 0.285194 0.512138 0.015440
C28   C     C_R   0.552785 0.369282 0.541307 -0.015307
C29   C     C_R   0.657412 0.365702 0.622516 0.042915
C30   C     C_R   0.486484 0.456301 0.491768 0.098599
C31   C     C_R   0.528301 0.541835 0.520875 -0.014791
C32   C     C_R   0.640482 0.537469 0.597472 -0.046418
C33   C     C_R   0.694999 0.448095 0.651554 -0.215043
C34   C     C_R   0.739876 0.001150 0.498546 0.770938
C35   C     C_R   0.381761 0.461316 0.411150 -0.164085
C36   C     C_R   0.324235 0.547444 0.356501 -0.134209
C37   C     C_R   0.361630 0.630098 0.383723 0.140140
C38   C     C_R   0.457527 0.627845 0.469343 -0.015609
C39   C     C_R   0.301210 0.715052 0.324829 -0.320704
C40   C     C_R   0.330678 0.798514 0.350695 0.184400
C41   C     C_R   0.473862 0.711119 0.499025 0.044036
C42   C     C_3   0.034708 0.989229 0.401870 -0.337997
C43   C     C_3   0.891774 0.991868 0.400570 -0.343200
C44   C     C_3   0.076613 0.915242 0.593595 -0.377454
C45   C     C_3   0.103268 0.104291 0.497195 -0.374350
C46   C     C_3   0.121741 0.002637 0.497621 0.116819
Cu1   Cu    Cu3+1 0.465900 0.918260 0.475680 1.007923
Cu2   Cu    Cu3+1 0.534100 0.081740 0.524320 0.938516
H1    H     H_    0.954355 0.114483 0.567667 0.184248
H2    H     H_    0.136961 0.923863 0.663386 0.164706
H3    H     H_    0.923076 0.922108 0.663331 0.158070
H4    H     H_    0.530508 0.364781 0.847519 0.152060
H5    H     H_    0.498497 0.681970 0.762304 0.147823
H6    H     H_    0.527095 0.195476 0.975013 0.177982
H7    H     H_    0.483989 0.314876 0.231501 0.157953
H8    H     H_    0.067054 0.049835 0.331578 0.183379
H9    H     H_    0.592148 0.458494 0.209994 0.178386
H10   H     H_    0.604546 0.816497 0.030858 0.177782
H11   H     H_    0.774512 0.446520 0.713334 0.212716
H12   H     H_    0.247760 0.548748 0.292416 0.139391
H13   H     H_    0.733092 0.133942 0.676036 0.149507
H14   H     H_    0.442646 0.280744 0.451407 0.121443
H15   H     H_    0.342693 0.400790 0.385555 0.114923
H16   H     H_    0.832113 0.921167 0.395860 0.238599
H17   H     H_    0.876275 0.842351 0.593514 0.209674
H18   H     H_    0.164319 0.116493 0.565110 0.186317
H19   H     H_    0.134254 0.168423 0.428342 0.161132
N1    N     N_R   0.585360 0.204570 0.560800 -0.191823
N2    N     N_R   0.414550 0.795430 0.439160 -0.212851
O1    O     O_R   0.455060 0.022100 0.338110 -0.540299
O2    O     O_R   0.512640 0.160150 0.379180 -0.593796
O3    O     O_R   0.288900 0.930980 0.479450 -0.543866
O4    O     O_R   0.346480 0.069030 0.520520 -0.597330
O5    O     O_R   0.487360 0.839850 0.620820 -0.599884
O6    O     O_R   0.544940 0.977900 0.661890 -0.584889
O7    O     O_R   0.653520 0.930970 0.479480 -0.542492
O8    O     O_R   0.711100 0.069020 0.520550 -0.600647
H20   H     H_    0.041969 0.915106 0.402375 0.230621
H21   H     H_    0.577813 0.930139 0.854129 0.174704
C47   C     C_2   0.652137 0.645905 0.191527 0.836504
O9    O     O_2   0.736962 0.718807 0.182468 -0.585345
O10   O     O_R   0.608685 0.590929 0.284710 -0.763713
H22   H     H_    0.652681 0.620334 0.337465 0.353664
C48   C     C_2   0.542591 0.048695 0.158238 0.880683
O11   O     O_2   0.609674 0.004230 0.238838 -0.605644
O12   O     O_R   0.498697 0.005110 0.086207 -0.737568
H23   H     H_    0.524926 0.935597 0.111246 0.346973
H24   H     H_    0.545685 0.541440 0.799747 0.165887
H25   H     H_    0.531543 0.709646 0.570176 0.137236
C49   C     C_2   0.268728 0.887516 0.276477 0.870518
O13   O     O_2   0.212051 0.931643 0.303703 -0.611329
O14   O     O_R   0.265505 0.915750 0.172523 -0.754511
H26   H     H_    0.218551 0.976349 0.128485 0.344810
C50   C     C_2   0.838564 0.271793 0.753768 0.804382
O15   O     O_2   0.844298 0.193980 0.830573 -0.589855
O16   O     O_R   0.942660 0.350363 0.741268 -0.758889
H27   H     H_    0.015474 0.334819 0.801962 0.341525
H28   H     H_    0.856139 0.056341 0.331577 0.182412
C51   C     C_2   0.719992 0.626565 0.614102 0.790682
O17   O     O_2   0.752052 0.701970 0.541447 -0.606343
O18   O     O_R   0.764007 0.621956 0.713405 -0.782288
H29   H     H_    0.819095 0.686553 0.716118 0.324469
H30   H     H_    0.230736 0.716719 0.257325 0.174326
H31   H     H_    0.089033 0.841365 0.596069 0.185085
H32   H     H_    0.923043 0.168987 0.430920 0.171439

loop_
_geom_bond_atom_site_label_1
_geom_bond_atom_site_label_2
_ccdc_geom_bond_type
C41   H25   S    
O18   H29   S    
C19   C20   A    
C43   H28   S    
C44   H31   S    
C7    C8    A    
C45   C46   S    
C7    C11   A    
C1    O2    A    
C30   C35   A    
C1    C5    S    
C36   C37   A    
C19   C21   A    
C26   H13   S    
C48   O12   S    
Cu1   O7    S    
C34   O8    A    
C30   C31   A    
C15   C16   A    
C6    C22   A    
C29   C33   A    
C18   C19   A    
C42   C46   S    
C20   C24   A    
Cu1   N2    S    
C27   N1    A    
C42   H8    S    
C31   C32   A    
C45   H19   S    
C9    H7    S    
C9    C10   A    
C2    C34   S    
C12   O3    A    
C25   C50   S    
C33   H11   S    
C21   C22   A    
Cu2   O6    S    
C3    H17   S    
C12   O4    A    
C44   C46   S    
C43   H16   S    
C4    C45   S    
C25   C29   A    
C3    C44   S    
C40   N2    A    
C14   C20   A    
C48   O11   D    
C38   C41   A    
C47   O10   S    
C39   C40   A    
C3    H3    S    
O12   H23   S    
C24   H5    S    
C35   C36   A    
Cu2   O8    S    
C2    C4    S    
Cu1   O1    S    
C5    C9    A    
C37   C38   A    
C27   H14   S    
C11   C16   A    
C49   O14   S    
Cu1   Cu2   S    
C2    C43   S    
C6    C24   A    
O16   H27   S    
C17   C18   A    
Cu2   N1    S    
C50   O16   S    
C12   C46   S    
C51   O18   S    
C42   H20   S    
C42   C43   S    
C23   O5    A    
C45   H18   S    
C41   N2    A    
C44   H2    S    
C28   C29   A    
C8    C48   S    
Cu2   O4    S    
C16   H4    S    
Cu1   O5    S    
C23   O6    A    
C47   O9    D    
C36   H12   S    
C10   C13   A    
C22   H21   S    
C5    C8    A    
C32   C51   S    
C39   H30   S    
C4    H32   S    
C1    O1    A    
C31   C38   A    
C13   C17   A    
C4    H1    S    
C26   N1    A    
C32   C33   A    
C28   C30   A    
C2    C3    S    
C25   C26   A    
C21   H10   S    
C37   C39   A    
C51   O17   D    
C49   O13   D    
C6    C23   S    
O14   H26   S    
C50   O15   D    
Cu1   O3    S    
C10   C11   A    
C18   C47   S    
O10   H22   S    
C17   H9    S    
C27   C28   A    
C14   C15   A    
C35   H15   S    
Cu2   O2    S    
C7    H6    S    
C40   C49   S    
C13   C14   A    
C34   O7    A    
C15   H24   S    
