data_mof_unit_35650.cif
_audit_creation_date              2012-12-10T17:01:26-0500
_audit_creation_method            fapswitch 2.2
_symmetry_space_group_name_H-M    P1
_symmetry_Int_Tables_number       1
_space_group_crystal_system       triclinic
_cell_length_a                    12.854079
_cell_length_b                    10.772194
_cell_length_c                    10.070265
_cell_angle_alpha                 89.161274
_cell_angle_beta                  98.069604
_cell_angle_gamma                 90.078374
_cell_volume                      1380.4405018

loop_
_atom_site_label
_atom_site_type_symbol
_atom_type_description
_atom_site_fract_x
_atom_site_fract_y
_atom_site_fract_z
_atom_type_partial_charge
C1    C     C_R   0.494768 0.263360 0.499907 0.945598
C2    C     C_2   0.475371 0.133690 0.498584 -0.315419
C3    C     C_2   0.571207 0.553703 0.936889 -0.084112
C4    C     C_R   0.298413 0.499551 0.472471 0.916226
C5    C     C_2   0.556098 0.574702 0.079968 0.204441
C6    C     C_R   0.501153 0.737184 0.498792 0.885170
C7    C     C_R   0.701590 0.497169 0.527693 0.905344
C8    C     C_R   0.813963 0.487902 0.547126 -0.061754
C9    C     C_R   0.185435 0.499396 0.453541 -0.114685
C10   C     C_R   0.022531 0.594812 0.356450 -0.021507
C11   C     C_R   0.130678 0.582293 0.360602 0.018931
C12   C     C_R   0.028208 0.448857 0.549713 0.045234
C13   C     C_R   0.133942 0.424508 0.538778 -0.112853
C14   C     C_1   0.965674 0.676937 0.255832 0.128633
C15   C     C_1   0.031491 0.330355 0.768969 0.156547
C16   C     C_1   0.189370 0.317299 0.603670 0.197170
C17   C     C_1   0.397741 0.886714 0.278796 0.199581
C18   C     C_1   0.595066 0.917275 0.598315 0.179201
C19   C     C_R   0.972062 0.531611 0.453366 0.083648
C20   C     C_R   0.865730 0.549368 0.454577 -0.285807
C21   C     C_R   0.867939 0.413571 0.649350 0.038335
C22   C     C_R   0.976227 0.395729 0.653234 -0.033705
C23   C     C_2   0.466965 0.937477 0.391036 -0.031399
C24   C     C_2   0.515296 0.868480 0.495472 -0.198292
C25   C     C_2   0.480423 0.069957 0.387700 -0.204956
H1    H     H_    0.820875 0.610095 0.381197 0.161360
H2    H     H_    0.823096 0.257583 0.741769 0.198843
H3    H     H_    0.841839 0.383817 0.841601 0.197285
H4    H     H_    0.156849 0.636347 0.174269 0.207894
H5    H     H_    0.172293 0.749790 0.290740 0.200372
H6    H     H_    0.455765 0.089653 0.589726 0.173076
H7    H     H_    0.639826 0.593384 0.900782 0.166513
H8    H     H_    0.429496 0.483255 0.882924 0.204331
H9    H     H_    0.492171 0.114531 0.293347 0.176954
H10   H     H_    0.546923 0.742201 0.164773 0.215901
H11   H     H_    0.654275 0.657130 0.228337 0.219061
H12   H     H_    0.536524 0.323773 0.140761 0.210560
H13   H     H_    0.407505 0.356585 0.123473 0.210832
N1    N     N_2   0.501130 0.501330 0.852280 -0.201737
N2    N     N_1   0.342999 0.847126 0.188247 -0.202459
N3    N     N_1   0.658687 0.955754 0.680168 -0.192870
N4    N     N_2   0.501160 0.501360 0.147950 -0.098065
N5    N     N_3   0.605415 0.682939 0.140902 -0.457962
N6    N     N_3   0.478872 0.384556 0.094279 -0.417688
N7    N     N_3   0.811490 0.353438 0.745803 -0.426486
N8    N     N_1   0.920404 0.742302 0.175603 -0.192941
N9    N     N_1   0.074809 0.278476 0.862069 -0.185816
N10   N     N_3   0.186357 0.656162 0.273796 -0.416385
N11   N     N_1   0.234178 0.232003 0.654216 -0.190828
O1    O     O_R   0.499980 0.319060 0.613040 -0.600036
O2    O     O_R   0.500020 0.319100 0.386900 -0.636906
O3    O     O_R   0.346340 0.499960 0.594380 -0.621297
O4    O     O_R   0.346380 0.500000 0.368250 -0.592874
O5    O     O_R   0.499980 0.680900 0.613100 -0.605009
O6    O     O_R   0.500020 0.680940 0.386960 -0.629172
O7    O     O_R   0.653620 0.500000 0.631750 -0.594213
O8    O     O_R   0.653660 0.500040 0.405620 -0.641146
Zn1   Zn    Zn3+2 0.499980 0.499970 0.650990 0.978068
Zn2   Zn    Zn3+2 0.500020 0.500030 0.349010 0.943277

loop_
_geom_bond_atom_site_label_1
_geom_bond_atom_site_label_2
_ccdc_geom_bond_type
N4    Zn2   S    
C23   C24   D    
N4    N6    S    
H13   N6    S    
O6    Zn2   S    
C4    O4    A    
H10   N5    S    
C1    O1    A    
C25   H9    S    
C19   C20   A    
C1    O2    A    
C15   N9    T    
C6    O6    A    
C5    N4    D    
C6    C24   S    
H2    N7    S    
H12   N6    S    
C8    C21   A    
C5    N5    S    
C3    N1    D    
C7    C8    S    
C14   N8    T    
H8    N1    S    
C21   C22   A    
C16   N11   T    
C9    C11   A    
C11   N10   S    
C17   C23   S    
C20   H1    S    
C7    O7    A    
C4    O3    A    
C18   C24   S    
C12   C19   A    
H5    N10   S    
C8    C20   A    
C10   C19   A    
C6    O5    A    
C2    C25   D    
C21   N7    S    
C23   C25   S    
O5    Zn1   S    
C3    H7    S    
O3    Zn1   S    
H3    N7    S    
O8    Zn2   S    
O2    Zn2   S    
C10   C11   A    
H4    N10   S    
O1    Zn1   S    
C12   C22   A    
C12   C13   A    
C1    C2    S    
C10   C14   S    
C13   C16   S    
C9    C13   A    
H11   N5    S    
O4    Zn2   S    
C4    C9    S    
N1    Zn1   S    
C7    O8    A    
C15   C22   S    
C18   N3    T    
O7    Zn1   S    
C2    H6    S    
C3    C5    S    
C17   N2    T    
