data_mof_unit_42790.cif
_audit_creation_date              2012-10-26T20:03:41-0400
_audit_creation_method            fapswitch 2.2
_symmetry_space_group_name_H-M    P1
_symmetry_Int_Tables_number       1
_space_group_crystal_system       triclinic
_cell_length_a                    12.445753
_cell_length_b                    13.320244
_cell_length_c                    15.878207
_cell_angle_alpha                 76.007541
_cell_angle_beta                  101.429424
_cell_angle_gamma                 117.675303
_cell_volume                      2250.65648653

loop_
_atom_site_label
_atom_site_type_symbol
_atom_type_description
_atom_site_fract_x
_atom_site_fract_y
_atom_site_fract_z
_atom_type_partial_charge
C1    C     C_R   0.854979 0.286719 0.508829 0.649946
C2    C     C_R   0.228995 0.830822 0.502677 0.012483
C3    C     C_R   0.802511 0.125626 0.434177 0.383257
C4    C     C_R   0.000066 0.499674 0.659678 0.605305
C5    C     C_R   0.713128 0.031214 0.398643 0.437460
C6    C     C_R   0.594350 0.980386 0.421479 -0.110363
C7    C     C_R   0.564321 0.017413 0.486154 -0.082804
C8    C     C_R   0.659131 0.106688 0.528091 -0.043555
C9    C     C_R   0.443588 0.970015 0.510244 0.020052
C10   C     C_R   0.421033 0.013213 0.575036 -0.069871
C11   C     C_R   0.518407 0.090387 0.622329 -0.065903
C12   C     C_3   0.999072 0.498895 0.916057 0.018489
C13   C     C_R   0.636785 0.132535 0.601717 0.454101
C14   C     C_R   0.345255 0.877884 0.475090 -0.149020
C15   C     C_R   0.205925 0.882148 0.559881 0.387217
C16   C     C_R   0.145283 0.712852 0.491088 0.544835
C17   C     C_R   0.774801 0.167347 0.496083 -0.028275
C18   C     C_R   0.350559 0.342025 0.648971 -0.120483
C19   C     C_R   0.764191 0.649985 0.383614 0.189624
C20   C     C_R   0.678266 0.693638 0.365543 -0.077275
C21   C     C_R   0.578779 0.644898 0.413503 0.428894
C22   C     C_R   0.557863 0.544776 0.477107 -0.034709
C23   C     C_3   0.106518 0.579089 0.028906 0.420407
C24   C     C_R   0.653508 0.508294 0.499147 0.088402
C25   C     C_R   0.450178 0.483396 0.523600 -0.010728
C26   C     C_R   0.449663 0.400803 0.599078 -0.153199
C27   C     C_R   0.546338 0.373525 0.623575 -0.090379
C28   C     C_R   0.999985 0.500396 0.340310 0.547346
C29   C     C_R   0.642237 0.420932 0.573387 0.413817
C30   C     C_R   0.340141 0.495279 0.498013 0.542863
C31   C     C_R   0.249511 0.363139 0.623417 0.504757
C32   C     C_3   0.981635 0.392908 0.047564 -0.143726
C33   C     C_3   0.892197 0.418495 0.971837 0.422042
C34   C     C_3   0.999120 0.498350 0.084189 -0.023823
C35   C     C_1   0.000219 0.499238 0.749278 0.085037
C36   C     C_1   0.999165 0.499958 0.250759 0.066096
C37   C     C_3   0.087914 0.475437 0.991234 0.046395
C38   C     C_3   0.016202 0.601514 0.954324 0.049253
C39   C     C_3   0.909931 0.521887 0.009392 0.092918
C40   C     C_1   0.999800 0.498991 0.824667 0.061191
C41   C     C_1   0.998930 0.499293 0.175439 0.046684
C42   C     C_R   0.301945 0.972655 0.596249 -0.077305
Cu1   Cu    Cu3+1 0.098270 0.475420 0.519690 1.216019
Cu2   Cu    Cu3+1 0.901730 0.524580 0.480310 1.128605
F1    F     F_    0.780984 0.337244 0.941781 -0.563130
F2    F     F_    0.093974 0.836515 0.588261 -0.601124
F3    F     F_    0.913462 0.181907 0.402904 -0.573631
F4    F     F_    0.739531 0.993572 0.336869 -0.569007
F5    F     F_    0.730591 0.191036 0.657847 -0.558841
F6    F     F_    0.153167 0.307130 0.671585 -0.576076
F7    F     F_    0.319847 0.554091 0.419289 -0.538515
F8    F     F_    0.514220 0.706030 0.403855 -0.574163
F9    F     F_    0.721074 0.376619 0.602852 -0.564971
F10   F     F_    0.217525 0.661412 0.058161 -0.571937
H1    H     H_    0.357603 0.834574 0.431209 0.169347
H2    H     H_    0.912503 0.790840 0.339675 0.248803
H3    H     H_    0.770064 0.563253 0.957464 0.276936
H4    H     H_    0.851280 0.623230 0.044883 0.233329
H5    H     H_    0.046497 0.766472 0.947729 0.261399
H6    H     H_    0.114370 0.748627 0.874880 0.272445
H7    H     H_    0.229175 0.435972 0.042433 0.268715
H8    H     H_    0.147271 0.374716 0.955726 0.249919
H9    H     H_    0.528308 0.913276 0.386648 0.208298
H10   H     H_    0.545749 0.310078 0.681326 0.170024
H11   H     H_    0.351058 0.279495 0.707086 0.152138
H12   H     H_    0.968508 0.307140 0.085898 0.170989
H13   H     H_    0.691696 0.769294 0.316055 0.195709
H14   H     H_    0.503224 0.114580 0.677739 0.139286
H15   H     H_    0.284329 0.006761 0.644718 0.150454
H16   H     H_    0.834580 0.698668 0.268479 0.219057
N1    N     N_R   0.246280 0.438200 0.549540 -0.238873
N2    N     N_R   0.754330 0.561180 0.450980 -0.209746
N3    N     N_3   0.866909 0.703763 0.334055 -0.533313
N4    N     N_3   0.811528 0.546720 0.019790 -0.553126
N5    N     N_3   0.033131 0.713763 0.903710 -0.577863
N6    N     N_3   0.186749 0.451592 0.980292 -0.552208
O1    O     O_R   0.972510 0.318130 0.524770 -0.410624
O2    O     O_R   0.806530 0.359650 0.491510 -0.450279
O3    O     O_R   0.082970 0.479240 0.637550 -0.469415
O4    O     O_R   0.916990 0.520750 0.604290 -0.412143
O5    O     O_R   0.193470 0.640350 0.508490 -0.496565
O6    O     O_R   0.027490 0.681870 0.475230 -0.443794
O7    O     O_R   0.083010 0.479250 0.395710 -0.421989
O8    O     O_R   0.917030 0.520760 0.362450 -0.507586

loop_
_geom_bond_atom_site_label_1
_geom_bond_atom_site_label_2
_ccdc_geom_bond_type
C6    H9    S    
C30   F7    S    
C8    C13   A    
C28   O8    A    
C33   F1    S    
C20   H13   S    
C19   C20   A    
C18   C26   A    
Cu1   Cu2   S    
C30   N1    A    
C19   N2    A    
C7    C8    A    
C18   H11   S    
C24   N2    A    
C26   C27   A    
C33   C39   S    
C4    O4    A    
Cu2   O6    S    
C5    C6    A    
C27   C29   A    
Cu1   O3    S    
Cu1   O7    S    
C39   N4    S    
C12   C37   S    
C24   C29   A    
C22   C25   A    
Cu2   N2    S    
C2    C16   S    
C9    C10   A    
C31   N1    A    
C14   H1    S    
C4    C35   S    
C21   C22   A    
C28   O7    A    
C1    O2    A    
H8    N6    S    
C36   C41   T    
C34   C41   S    
C38   N5    S    
H7    N6    S    
C5    F4    S    
C34   C39   S    
Cu2   O4    S    
C4    O3    A    
C27   H10   S    
Cu2   O8    S    
C25   C26   A    
C23   C37   S    
C42   H15   S    
C32   C34   S    
H3    N4    S    
C12   C40   S    
C9    C14   A    
C19   N3    S    
C23   C34   S    
H16   N3    S    
C16   O6    A    
C32   C37   S    
C2    C15   A    
C13   F5    S    
C37   N6    S    
Cu1   O5    S    
C22   C24   A    
C31   F6    S    
H5    N5    S    
C11   H14   S    
H4    N4    S    
C23   F10   S    
C32   H12   S    
C25   C30   A    
C7    C9    A    
C10   C42   A    
Cu1   N1    S    
H2    N3    S    
C15   C42   A    
C3    C5    A    
C6    C7    A    
Cu1   O1    S    
C23   C38   S    
H6    N5    S    
C1    C17   S    
C8    C17   A    
C32   C33   S    
Cu2   O2    S    
C35   C40   T    
C11   C13   A    
C38   C39   S    
C29   F9    S    
C3    F3    S    
C16   O5    A    
C3    C17   A    
C12   C38   S    
C2    C14   A    
C10   C11   A    
C20   C21   A    
C28   C36   S    
C18   C31   A    
C1    O1    A    
C15   F2    S    
C12   C33   S    
C21   F8    S    
