data_mof_unit_6200.cif
_audit_creation_date              2012-12-10T17:53:44-0500
_audit_creation_method            fapswitch 2.2
_symmetry_space_group_name_H-M    P1
_symmetry_Int_Tables_number       1
_space_group_crystal_system       triclinic
_cell_length_a                    10.954668
_cell_length_b                    11.706291
_cell_length_c                    10.431967
_cell_angle_alpha                 89.2678
_cell_angle_beta                  90.462717
_cell_angle_gamma                 90.299502
_cell_volume                      1337.60970629

loop_
_atom_site_label
_atom_site_type_symbol
_atom_type_description
_atom_site_fract_x
_atom_site_fract_y
_atom_site_fract_z
_atom_type_partial_charge
C1    C     C_R   0.500850 0.283290 0.500681 0.807503
C2    C     C_3   0.120995 0.509204 0.491554 -0.423668
C3    C     C_3   0.877591 0.516085 0.498050 -0.399469
C4    C     C_1   0.502859 0.838200 0.499745 -0.018680
C5    C     C_1   0.503437 0.940413 0.500469 0.034113
C6    C     C_R   0.258800 0.502134 0.498186 0.951846
C7    C     C_R   0.740279 0.508509 0.499969 1.032693
C8    C     C_1   0.500062 0.499985 0.071958 0.147359
C9    C     C_1   0.500040 0.499988 0.928044 0.106702
C10   C     C_R   0.500868 0.716740 0.499807 0.987427
C11   C     C_1   0.502054 0.162000 0.501806 -0.165209
C12   C     C_3   0.068634 0.508030 0.634018 0.270676
C13   C     C_3   0.065678 0.403681 0.419221 0.249384
C14   C     C_3   0.928572 0.493128 0.637375 0.267598
C15   C     C_3   0.923892 0.416121 0.411305 0.285900
C16   C     C_1   0.502970 0.059782 0.501490 0.007945
C17   C     C_3   0.073450 0.624056 0.411689 0.372628
C18   C     C_3   0.926806 0.639812 0.445109 0.353409
Cu1   Cu    Cu3+1 0.500000 0.500000 0.625300 1.062145
Cu2   Cu    Cu3+1 0.500000 0.500000 0.374700 1.085048
H1    H     H_    0.082972 0.596705 0.660844 0.191893
H2    H     H_    0.099853 0.404510 0.319448 0.145791
H3    H     H_    0.892101 0.558836 0.702785 0.147694
H4    H     H_    0.898113 0.440743 0.312307 0.162870
N1    N     N_1   0.500000 0.499990 0.186410 -0.113767
N2    N     N_1   0.500000 0.499990 0.813590 -0.141375
O1    O     O_R   0.500000 0.337200 0.605810 -0.584233
O2    O     O_R   0.500000 0.337200 0.394190 -0.605851
O3    O     O_R   0.317690 0.499990 0.605810 -0.542116
O4    O     O_R   0.317690 0.499990 0.394190 -0.542264
O5    O     O_R   0.682310 0.499990 0.605810 -0.568397
O6    O     O_R   0.682310 0.499990 0.394190 -0.561786
O7    O     O_R   0.500000 0.662810 0.605810 -0.564343
O8    O     O_R   0.500000 0.662810 0.394190 -0.515049
O9    O     O_3   0.132103 0.453990 0.739033 -0.567688
C19   C     C_3   0.154599 0.335570 0.731289 -0.031490
H5    H     H_    0.073098 0.283575 0.709317 0.236893
H6    H     H_    0.186243 0.305795 0.827209 0.125160
H7    H     H_    0.230189 0.316798 0.665220 0.167743
O10   O     O_3   0.096155 0.298811 0.480964 -0.541322
C20   C     C_3   0.169934 0.229376 0.403843 -0.285950
H8    H     H_    0.194515 0.151258 0.459341 0.209776
H9    H     H_    0.255989 0.273942 0.377345 0.147709
H10   H     H_    0.119780 0.202497 0.316216 0.182238
O11   O     O_3   0.893428 0.382200 0.680932 -0.495453
C21   C     C_3   0.860019 0.382033 0.811649 -0.232749
H11   H     H_    0.773822 0.429765 0.825419 0.172757
H12   H     H_    0.933524 0.418341 0.873153 0.173667
H13   H     H_    0.844159 0.292466 0.843476 0.181352
O12   O     O_3   0.866027 0.311082 0.446903 -0.483942
C22   C     C_3   0.830266 0.248332 0.338075 -0.197166
H14   H     H_    0.907620 0.236321 0.271334 0.148605
H15   H     H_    0.753158 0.291186 0.287332 0.152463
H16   H     H_    0.798307 0.162611 0.370079 0.204289
S1    S     S_3+6 0.166148 0.750594 0.452526 0.076552
O13   O     O_2   0.095478 0.859051 0.433744 -0.195208
O14   O     O_2   0.215605 0.745992 0.587217 -0.300497
O15   O     O_3   0.285310 0.760363 0.352465 -0.502673
H17   H     H_    0.288717 0.841019 0.322743 0.365674
S2    S     S_3+6 0.103190 0.613892 0.232673 0.066501
O16   O     O_2   0.090453 0.729217 0.169571 -0.163659
O17   O     O_2   0.230718 0.578397 0.202662 -0.247511
O18   O     O_3   0.014047 0.522190 0.151754 -0.584598
H18   H     H_    0.033629 0.535335 0.060177 0.387247
S3    S     S_3+6 0.890238 0.751028 0.567031 0.050606
O19   O     O_2   0.771001 0.722164 0.630174 -0.352698
O20   O     O_2   0.984011 0.765324 0.671248 -0.264231
O21   O     O_3   0.870397 0.880333 0.497133 -0.404282
H19   H     H_    0.835207 0.928805 0.564507 0.371568
S4    S     S_3+6 0.835966 0.694548 0.307016 0.107559
O22   O     O_2   0.715535 0.734503 0.354326 -0.291165
O23   O     O_2   0.894664 0.798627 0.248496 -0.157317
O24   O     O_3   0.805482 0.599067 0.192138 -0.522768
H20   H     H_    0.757490 0.641466 0.126404 0.369595

loop_
_geom_bond_atom_site_label_1
_geom_bond_atom_site_label_2
_ccdc_geom_bond_type
C14   H3    S    
C18   S4    S    
C1    O2    A    
S1    O13   D    
O10   C20   S    
S4    O22   D    
C14   O11   S    
C15   H4    S    
Cu1   O1    S    
C20   H8    S    
C17   S1    S    
Cu1   Cu2   S    
C1    C11   S    
C13   C15   S    
C22   H16   S    
Cu1   O5    S    
S3    O21   S    
S4    O24   S    
C19   H6    S    
C17   C18   S    
Cu2   O8    S    
C22   H14   S    
C10   O8    A    
Cu2   O4    S    
O11   C21   S    
C2    C17   S    
C8    N1    T    
C20   H9    S    
C21   H13   S    
C2    C6    S    
C3    C14   S    
C13   H2    S    
S2    O16   D    
S2    O18   S    
C2    C13   S    
C19   H5    S    
C6    O4    A    
C12   C14   S    
C9    N2    T    
O12   C22   S    
C10   O7    A    
C3    C7    S    
S1    O14   D    
O24   H20   S    
Cu1   O7    S    
C20   H10   S    
C12   O9    S    
S1    O15   S    
C11   C16   T    
C7    O5    A    
Cu2   N1    S    
C13   O10   S    
C17   S2    S    
C4    C10   S    
O18   H18   S    
Cu1   O3    S    
C21   H12   S    
C6    O3    A    
C3    C15   S    
Cu1   N2    S    
C3    C18   S    
S2    O17   D    
S3    O19   D    
Cu2   O6    S    
C15   O12   S    
C1    O1    A    
C2    C12   S    
C21   H11   S    
C4    C5    T    
C5    C16   S    
S4    O23   D    
C7    O6    A    
Cu2   O2    S    
C22   H15   S    
O15   H17   S    
O21   H19   S    
S3    O20   D    
C12   H1    S    
C19   H7    S    
O9    C19   S    
C8    C9    S    
C18   S3    S    
