data_mof_unit_66236.cif
_audit_creation_date              2012-10-26T20:54:00-0400
_audit_creation_method            fapswitch 2.2
_symmetry_space_group_name_H-M    P1
_symmetry_Int_Tables_number       1
_space_group_crystal_system       triclinic
_cell_length_a                    17.722912
_cell_length_b                    16.446806
_cell_length_c                    10.672404
_cell_angle_alpha                 90.568337
_cell_angle_beta                  90.05325
_cell_angle_gamma                 90.028301
_cell_volume                      3110.69405305

loop_
_atom_site_label
_atom_site_type_symbol
_atom_type_description
_atom_site_fract_x
_atom_site_fract_y
_atom_site_fract_z
_atom_type_partial_charge
C1    C     C_R   0.355235 0.499985 0.499597 0.543246
C2    C     C_R   0.452422 0.256443 0.422436 0.038224
C3    C     C_R   0.452396 0.742539 0.422499 0.043369
C4    C     C_R   0.547604 0.257461 0.577501 0.043369
C5    C     C_R   0.499966 0.873053 0.500107 0.024260
C6    C     C_R   0.500034 0.126947 0.499893 0.024260
C7    C     C_1   0.499992 0.962700 0.500042 -0.029797
C8    C     C_1   0.500008 0.037299 0.499957 -0.029797
C9    C     C_R   0.500146 0.499483 0.259098 0.558203
C10   C     C_R   0.499854 0.500517 0.740902 0.558203
C11   C     C_3   0.437171 0.534909 0.042861 -0.003247
C12   C     C_R   0.644765 0.500015 0.500402 0.543246
C13   C     C_3   0.562829 0.465091 0.957139 -0.003248
C14   C     C_3   0.497248 0.577187 0.962821 0.009431
C15   C     C_3   0.502752 0.422812 0.037179 0.009431
C16   C     C_3   0.438992 0.459019 0.956012 -0.119957
C17   C     C_3   0.561007 0.540981 0.043988 -0.119957
C18   C     C_3   0.499853 0.501673 0.877014 0.042898
C19   C     C_3   0.500147 0.498327 0.122986 0.042898
C20   C     C_R   0.846401 0.573714 0.499435 -0.116237
C21   C     C_R   0.153599 0.426285 0.500565 -0.116237
C22   C     C_R   0.153671 0.573665 0.497067 -0.116369
C23   C     C_1   0.966171 0.500006 0.500323 -0.034395
C24   C     C_R   0.846328 0.426335 0.502933 -0.116369
C25   C     C_R   0.767748 0.573821 0.499485 -0.136110
C26   C     C_R   0.232252 0.426179 0.500515 -0.136110
C27   C     C_R   0.232324 0.573759 0.497030 -0.136775
C28   C     C_R   0.767676 0.426241 0.502970 -0.136775
C29   C     C_R   0.727703 0.500030 0.501001 0.007749
C30   C     C_R   0.272296 0.499970 0.498999 0.007749
C31   C     C_R   0.885579 0.500020 0.501001 0.039146
C32   C     C_R   0.114420 0.499980 0.498998 0.039146
C33   C     C_3   0.365535 0.574152 0.093425 -0.398975
C34   C     C_1   0.033829 0.499994 0.499677 -0.034395
C35   C     C_3   0.634465 0.425848 0.906575 -0.398975
C36   C     C_3   0.494110 0.665612 0.922563 -0.383096
C37   C     C_3   0.505890 0.334388 0.077437 -0.383096
C38   C     C_R   0.548386 0.829391 0.579077 -0.143294
C39   C     C_R   0.451614 0.170609 0.420923 -0.143294
C40   C     C_R   0.451546 0.828348 0.421118 -0.142822
C41   C     C_R   0.548454 0.171652 0.578882 -0.142822
C42   C     C_R   0.547578 0.743557 0.577563 0.038224
Cu1   Cu    Cu3+1 0.500000 0.580420 0.500000 0.921691
Cu2   Cu    Cu3+1 0.500000 0.419580 0.500000 0.921691
H1    H     H_    0.389173 0.425850 0.918413 0.110347
H2    H     H_    0.738272 0.368513 0.504422 0.122073
H3    H     H_    0.586671 0.861351 0.641523 0.092809
H4    H     H_    0.413329 0.138649 0.358477 0.092809
H5    H     H_    0.413265 0.859485 0.358687 0.092109
H6    H     H_    0.586735 0.140515 0.641312 0.092109
H7    H     H_    0.585316 0.710827 0.638730 0.113004
H8    H     H_    0.414684 0.289173 0.361270 0.113004
H9    H     H_    0.414719 0.709024 0.361174 0.112658
H10   H     H_    0.585281 0.290976 0.638826 0.112658
H11   H     H_    0.329509 0.593771 0.014198 0.129216
H12   H     H_    0.610827 0.574150 0.081587 0.110347
H13   H     H_    0.334098 0.529686 0.151016 0.129796
H14   H     H_    0.380263 0.627871 0.152225 0.134256
H15   H     H_    0.670491 0.406229 0.985801 0.129216
H16   H     H_    0.619737 0.372129 0.847775 0.134256
H17   H     H_    0.665902 0.470314 0.848983 0.129796
H18   H     H_    0.491543 0.705662 0.006738 0.123542
H19   H     H_    0.545360 0.680614 0.867866 0.129632
H20   H     H_    0.443221 0.675809 0.864146 0.148027
H21   H     H_    0.508457 0.294338 0.993262 0.123542
H22   H     H_    0.556779 0.324190 0.135853 0.148027
H23   H     H_    0.876627 0.630988 0.498012 0.106901
H24   H     H_    0.454640 0.319386 0.132133 0.129632
H25   H     H_    0.123373 0.369012 0.501988 0.106901
H26   H     H_    0.123503 0.630943 0.495750 0.106706
H27   H     H_    0.876497 0.369057 0.504250 0.106706
H28   H     H_    0.738399 0.631551 0.498114 0.123310
H29   H     H_    0.261601 0.368449 0.501886 0.123310
H30   H     H_    0.261728 0.631486 0.495578 0.122073
N1    N     N_R   0.500000 0.701220 0.500000 -0.216213
N2    N     N_R   0.500000 0.298780 0.500000 -0.216213
O1    O     O_R   0.391260 0.567930 0.500000 -0.507660
O2    O     O_R   0.608740 0.432070 0.500000 -0.507660
O3    O     O_R   0.608740 0.567930 0.500000 -0.506329
O4    O     O_R   0.391260 0.432070 0.500000 -0.506329
O5    O     O_R   0.499980 0.567900 0.316850 -0.504586
O6    O     O_R   0.500020 0.432100 0.683150 -0.504586
O7    O     O_R   0.500020 0.567900 0.683150 -0.506741
O8    O     O_R   0.499980 0.432100 0.316850 -0.506742

loop_
_geom_bond_atom_site_label_1
_geom_bond_atom_site_label_2
_ccdc_geom_bond_type
C33   H11   S    
C21   C26   A    
C12   O3    A    
C33   H14   S    
C12   C29   S    
Cu1   O7    S    
C14   C18   S    
C20   H23   S    
C7    C8    T    
C15   C19   S    
C11   C19   S    
C42   N1    A    
C22   C32   A    
C13   C18   S    
C28   C29   A    
C13   C35   S    
Cu2   O6    S    
C14   C36   S    
C11   C14   S    
C20   C25   A    
Cu1   O3    S    
C15   C16   S    
C37   H24   S    
C10   O7    A    
C26   H29   S    
C1    O1    A    
C35   H15   S    
Cu2   N2    S    
C15   C37   S    
C2    C39   A    
C9    C19   S    
C6    C41   A    
C37   H21   S    
C27   H30   S    
C3    N1    A    
C42   H7    S    
C5    C38   A    
C27   C30   A    
C25   C29   A    
C14   C17   S    
C36   H18   S    
Cu1   N1    S    
C21   C32   A    
Cu2   O4    S    
C5    C7    S    
C6    C8    S    
C10   O6    A    
C21   H25   S    
C35   H16   S    
C23   C31   S    
C12   O2    A    
Cu1   Cu2   S    
C11   C16   S    
C11   C33   S    
C23   C34   T    
C28   H2    S    
C37   H22   S    
C35   H17   S    
C25   H28   S    
C17   H12   S    
C38   H3    S    
C2    H8    S    
C3    C40   A    
C26   C30   A    
C22   C27   A    
C13   C15   S    
Cu1   O5    S    
C36   H19   S    
C41   H6    S    
C2    N2    A    
C33   H13   S    
C4    H10   S    
C24   C28   A    
Cu2   O8    S    
C16   H1    S    
C38   C42   A    
Cu1   O1    S    
C13   C17   S    
Cu2   O2    S    
C24   C31   A    
C3    H9    S    
C10   C18   S    
C1    C30   S    
C17   C19   S    
C4    N2    A    
C9    O8    A    
C16   C18   S    
C4    C41   A    
C5    C40   A    
C9    O5    A    
C1    O4    A    
C6    C39   A    
C36   H20   S    
C22   H26   S    
C40   H5    S    
C24   H27   S    
C32   C34   S    
C39   H4    S    
C20   C31   A    
