data_mof_unit_53820.cif
_audit_creation_date              2012-10-26T19:52:46-0400
_audit_creation_method            fapswitch 2.2
_symmetry_space_group_name_H-M    P1
_symmetry_Int_Tables_number       1
_space_group_crystal_system       triclinic
_cell_length_a                    15.084378
_cell_length_b                    10.836789
_cell_length_c                    9.538893
_cell_angle_alpha                 90.457093
_cell_angle_beta                  89.99314
_cell_angle_gamma                 90.284227
_cell_volume                      1559.21798647

loop_
_atom_site_label
_atom_site_type_symbol
_atom_type_description
_atom_site_fract_x
_atom_site_fract_y
_atom_site_fract_z
_atom_type_partial_charge
C1    C     C_R   0.497912 0.262379 0.499434 0.550198
C2    C     C_R   0.185261 0.498104 0.627530 -0.136749
C3    C     C_R   0.231674 0.499100 0.500008 -0.011147
C4    C     C_R   0.328579 0.499753 0.500012 0.551322
C5    C     C_R   0.185287 0.499211 0.372471 -0.137151
C6    C     C_R   0.481700 0.065149 0.623668 0.022458
C7    C     C_R   0.488361 0.129460 0.498091 0.007637
C8    C     C_R   0.482516 0.063374 0.371018 -0.161325
C9    C     C_R   0.483080 0.934660 0.371720 -0.160742
C10   C     C_R   0.489538 0.871077 0.499486 0.008088
C11   C     C_R   0.482322 0.938097 0.624560 0.025274
C12   C     C_R   0.907141 0.497404 0.371549 0.012405
C13   C     C_3   0.537835 0.935392 0.754135 -0.277577
C14   C     C_3   0.536643 0.075251 0.753252 -0.262382
C15   C     C_R   0.575401 0.528155 0.074047 0.159345
C16   C     C_R   0.498486 0.737838 0.500256 0.550511
C17   C     C_R   0.428438 0.459308 0.073971 -0.018205
C18   C     C_R   0.428389 0.459453 0.925233 -0.016827
C19   C     C_R   0.575647 0.527234 0.926620 0.157226
C20   C     C_3   0.627363 0.644520 0.921853 -0.280391
C21   C     C_3   0.626355 0.646152 0.080875 -0.274606
C22   C     C_R   0.671426 0.499283 0.499982 0.549131
C23   C     C_R   0.953757 0.495729 0.755477 -0.132945
C24   C     C_R   0.814782 0.497352 0.372480 -0.138773
C25   C     C_R   0.768346 0.497663 0.499963 -0.013752
C26   C     C_R   0.814752 0.496190 0.627424 -0.140626
C27   C     C_R   0.907110 0.496254 0.628371 0.012228
C28   C     C_R   0.953550 0.497106 0.499967 0.061512
C29   C     C_R   0.046189 0.496307 0.755502 -0.131879
C30   C     C_R   0.092891 0.497326 0.628421 0.012914
C31   C     C_R   0.046487 0.497599 0.499980 0.060986
C32   C     C_R   0.092918 0.498452 0.371552 0.012887
C33   C     C_R   0.046247 0.498564 0.244452 -0.131890
C34   C     C_R   0.953816 0.498005 0.244449 -0.132617
Cu1   Cu    Cu3+1 0.500000 0.499980 0.640670 0.937147
Cu2   Cu    Cu3+1 0.500000 0.500020 0.359330 0.935095
H1    H     H_    0.779249 0.496949 0.273795 0.119261
H2    H     H_    0.588846 0.720185 0.875217 0.144963
H3    H     H_    0.693212 0.634292 0.127398 0.119957
H4    H     H_    0.779193 0.494828 0.726073 0.118788
H5    H     H_    0.587141 0.723458 0.126009 0.145862
H6    H     H_    0.918770 0.495086 0.854719 0.099754
H7    H     H_    0.081131 0.496031 0.854768 0.099952
H8    H     H_    0.220856 0.497929 0.726275 0.117511
H9    H     H_    0.220901 0.499923 0.273735 0.117526
H10   H     H_    0.081211 0.499163 0.145194 0.099949
H11   H     H_    0.918852 0.498250 0.145196 0.099805
H12   H     H_    0.482955 0.885793 0.272234 0.131514
H13   H     H_    0.482224 0.110396 0.271247 0.135345
H14   H     H_    0.501102 0.896094 0.844544 0.133823
H15   H     H_    0.604930 0.896751 0.734736 0.132348
H16   H     H_    0.499080 0.115950 0.842464 0.139861
H17   H     H_    0.602890 0.117317 0.733896 0.143397
H18   H     H_    0.370041 0.427626 0.128822 0.113214
H19   H     H_    0.369945 0.427936 0.869842 0.114046
H20   H     H_    0.694699 0.631545 0.877242 0.117791
N1    N     N_R   0.500570 0.500930 0.147930 -0.231674
N2    N     N_R   0.500570 0.500890 0.852020 -0.231595
O1    O     O_R   0.500000 0.319640 0.618810 -0.499286
O2    O     O_R   0.500010 0.319680 0.381230 -0.505629
O3    O     O_R   0.370250 0.499950 0.618800 -0.513683
O4    O     O_R   0.370260 0.499990 0.381220 -0.514011
O5    O     O_R   0.499990 0.680320 0.618770 -0.497276
O6    O     O_R   0.500000 0.680360 0.381190 -0.507821
O7    O     O_R   0.629740 0.500010 0.618780 -0.506543
O8    O     O_R   0.629750 0.500050 0.381200 -0.503928

loop_
_geom_bond_atom_site_label_1
_geom_bond_atom_site_label_2
_ccdc_geom_bond_type
Cu1   O5    S    
C24   C25   A    
C22   O7    A    
C6    C7    A    
C16   O5    A    
C23   C27   A    
C6    C14   S    
C20   H2    S    
C9    C10   A    
C12   C24   A    
Cu2   O6    S    
C31   C32   A    
C21   H3    S    
C2    C30   A    
Cu1   Cu2   S    
C20   H20   S    
C5    C32   A    
C32   C33   A    
C3    C5    A    
C17   C18   A    
C7    C8    A    
Cu1   O3    S    
C13   H15   S    
C13   C14   S    
C29   H7    S    
C15   C19   A    
C33   H10   S    
C15   N1    A    
C6    C11   A    
C26   H4    S    
C26   C27   A    
C29   C30   A    
C23   H6    S    
C18   H19   S    
C12   C28   A    
Cu1   N2    S    
C21   H5    S    
C23   C29   A    
C33   C34   A    
C2    C3    A    
C1    O1    A    
C19   N2    A    
C24   H1    S    
C30   C31   A    
Cu2   O8    S    
C15   C21   S    
C8    H13   S    
C10   C11   A    
Cu1   O7    S    
C12   C34   A    
C13   H14   S    
C4    O4    A    
C11   C13   S    
C14   H17   S    
C20   C21   S    
C9    H12   S    
Cu1   O1    S    
Cu2   N1    S    
C1    O2    A    
C17   N1    A    
C27   C28   A    
C17   H18   S    
C22   O8    A    
C10   C16   S    
C34   H11   S    
C16   O6    A    
Cu2   O2    S    
C25   C26   A    
C1    C7    S    
C5    H9    S    
C4    O3    A    
C18   N2    A    
C28   C31   A    
C14   H16   S    
C3    C4    S    
C19   C20   S    
C2    H8    S    
C8    C9    A    
Cu2   O4    S    
C22   C25   S    
