data_mof_unit_31370.cif
_audit_creation_date              2012-10-26T18:39:11-0400
_audit_creation_method            fapswitch 2.2
_symmetry_space_group_name_H-M    P1
_symmetry_Int_Tables_number       1
_space_group_crystal_system       triclinic
_cell_length_a                    9.431359
_cell_length_b                    10.619224
_cell_length_c                    17.035214
_cell_angle_alpha                 90.536329
_cell_angle_beta                  84.851716
_cell_angle_gamma                 90.038151
_cell_volume                      1699.18256484

loop_
_atom_site_label
_atom_site_type_symbol
_atom_type_description
_atom_site_fract_x
_atom_site_fract_y
_atom_site_fract_z
_atom_type_partial_charge
C1    C     C_R   0.499596 0.740476 0.501086 0.586516
C2    C     C_3   0.585841 0.957279 0.441991 0.253769
C3    C     C_3   0.943845 0.397977 0.531522 -0.032808
C4    C     C_3   0.056157 0.602003 0.468624 -0.022753
C5    C     C_3   0.039489 0.492917 0.571244 -0.028809
C6    C     C_3   0.960588 0.506876 0.428776 -0.047698
C7    C     C_3   0.055162 0.405938 0.460662 0.159764
C8    C     C_3   0.944950 0.593912 0.539525 0.165070
C9    C     C_R   0.479710 0.506486 0.650477 0.570936
C10   C     C_R   0.520441 0.502245 0.349807 0.591739
C11   C     C_R   0.465818 0.527108 0.736316 0.003105
C12   C     C_R   0.500043 0.259623 0.499775 0.608174
C13   C     C_R   0.538239 0.525319 0.265320 0.003576
C14   C     C_R   0.570175 0.476200 0.780213 -0.133397
C15   C     C_R   0.571313 0.648891 0.242010 -0.171836
C16   C     C_R   0.567405 0.499452 0.860769 -0.095161
C17   C     C_R   0.593406 0.678833 0.162686 -0.153670
C18   C     C_R   0.463626 0.579185 0.899261 0.037459
C19   C     C_R   0.579731 0.585802 0.105417 0.050815
C20   C     C_R   0.352419 0.621223 0.856627 -0.117400
C21   C     C_R   0.549209 0.461323 0.128219 -0.079480
C22   C     C_R   0.353106 0.598606 0.775567 0.041261
C23   C     C_3   0.364812 0.958983 0.493596 -0.135924
C24   C     C_R   0.530869 0.428677 0.208124 0.056284
C25   C     C_2   0.464971 0.611819 0.984867 0.269614
C26   C     C_2   0.587832 0.616826 0.020684 0.254411
C27   C     C_2   0.118559 0.295628 0.414699 0.596566
C28   C     C_2   0.882787 0.703150 0.587106 0.585400
C29   C     C_2   0.509113 0.293939 0.229088 0.568297
C30   C     C_2   0.236714 0.656228 0.735119 0.536088
C31   C     C_3   0.810567 0.710454 0.000332 0.014507
C32   C     C_3   0.764516 0.841581 0.975017 -0.276187
C33   C     C_3   0.866240 0.943211 0.999769 -0.482343
C34   C     C_3   0.633263 0.042068 0.509051 -0.169486
C35   C     C_3   0.282358 0.746680 0.029016 -0.003082
C36   C     C_3   0.297046 0.815621 0.107007 -0.263794
C37   C     C_3   0.203076 0.932804 0.114972 -0.477849
C38   C     C_3   0.250519 0.010743 0.667847 0.030958
C39   C     C_3   0.151342 0.077113 0.730997 -0.261346
C40   C     C_3   0.065563 0.982850 0.783027 -0.471649
C41   C     C_3   0.812226 0.933847 0.378923 0.028151
C42   C     C_3   0.901344 0.858990 0.315518 -0.261766
C43   C     C_3   0.058717 0.892724 0.315409 -0.475640
C44   C     C_3   0.454605 0.039621 0.432161 -0.101992
C45   C     C_3   0.543728 0.960701 0.570515 -0.158812
C46   C     C_3   0.500342 0.122936 0.499953 0.042529
C47   C     C_3   0.497969 0.877342 0.502255 0.015287
C48   C     C_3   0.412542 0.043254 0.560383 0.261374
Cu1   Cu    Cu3+1 0.356850 0.500010 0.499980 1.048586
Cu2   Cu    Cu3+1 0.643150 0.499990 0.500020 1.003984
H1    H     H_    0.654180 0.417349 0.752095 0.136663
H2    H     H_    0.577800 0.925058 0.626927 0.132522
H3    H     H_    0.255537 0.922925 0.488310 0.150054
H4    H     H_    0.741052 0.080602 0.515778 0.123952
H5    H     H_    0.076535 0.486985 0.631093 0.149873
H6    H     H_    0.923524 0.511958 0.368857 0.126409
H7    H     H_    0.230214 0.232718 0.315910 0.337080
H8    H     H_    0.877259 0.891343 0.603689 0.321547
H9    H     H_    0.453068 0.119929 0.194523 0.326192
H10   H     H_    0.026784 0.693867 0.737797 0.350198
H11   H     H_    0.918073 0.690989 0.970542 0.176010
H12   H     H_    0.579861 0.722581 0.285666 0.168349
H13   H     H_    0.823393 0.706857 0.064416 0.127799
H14   H     H_    0.762552 0.842794 0.909873 0.184726
H15   H     H_    0.655713 0.863545 0.002198 0.148645
H16   H     H_    0.863387 0.947874 0.065044 0.150229
H17   H     H_    0.833276 0.036091 0.978156 0.160636
H18   H     H_    0.976658 0.923116 0.974401 0.140058
H19   H     H_    0.167559 0.739779 0.019492 0.149322
H20   H     H_    0.333772 0.805646 0.980449 0.096562
H21   H     H_    0.268199 0.751736 0.157210 0.191853
H22   H     H_    0.408860 0.846317 0.108779 0.147912
H23   H     H_    0.892236 0.312206 0.557672 0.124809
H24   H     H_    0.223487 0.993698 0.062487 0.164859
H25   H     H_    0.227074 0.987739 0.167898 0.157861
H26   H     H_    0.089134 0.905227 0.121586 0.142902
H27   H     H_    0.327282 0.952076 0.697509 0.159388
H28   H     H_    0.185023 0.949828 0.631642 0.193078
H29   H     H_    0.215351 0.136944 0.768443 0.174651
H30   H     H_    0.076654 0.138922 0.702185 0.178320
H31   H     H_    0.996846 0.925251 0.747071 0.169664
H32   H     H_    0.996412 0.034271 0.828791 0.144736
H33   H     H_    0.137843 0.920075 0.812754 0.165418
H34   H     H_    0.108305 0.687513 0.442774 0.123642
H35   H     H_    0.850339 0.909116 0.436724 0.190559
H36   H     H_    0.827588 0.036415 0.367895 0.170558
H37   H     H_    0.887417 0.756650 0.327108 0.169894
H38   H     H_    0.864854 0.879250 0.256655 0.168400
H39   H     H_    0.076522 0.991784 0.296627 0.169141
H40   H     H_    0.122791 0.829304 0.274130 0.142788
H41   H     H_    0.095339 0.881661 0.375064 0.162989
H42   H     H_    0.265750 0.675647 0.885171 0.138097
H43   H     H_    0.541292 0.389759 0.083021 0.154611
H44   H     H_    0.619185 0.774879 0.146244 0.102419
H45   H     H_    0.646285 0.452996 0.892571 0.168981
H46   H     H_    0.418935 0.072929 0.375671 0.167052
N1    N     N_3   0.141720 0.500030 0.499940 -0.266839
N2    N     N_3   0.858280 0.499970 0.500060 -0.275176
O1    O     O_R   0.379130 0.683150 0.499960 -0.501945
O2    O     O_R   0.195768 0.314672 0.341993 -0.672437
O3    O     O_2   0.799473 0.684763 0.644965 -0.521571
O4    O     O_R   0.924899 0.825512 0.566759 -0.752772
O5    O     O_2   0.535130 0.255994 0.293763 -0.542064
O6    O     O_R   0.462235 0.209000 0.173717 -0.718905
O7    O     O_2   0.262522 0.711614 0.672923 -0.541409
O8    O     O_R   0.097212 0.651412 0.770476 -0.718213
O9    O     O_3   0.718473 0.615884 0.975591 -0.601412
O10   O     O_3   0.335942 0.621828 0.030947 -0.576842
O11   O     O_3   0.323687 0.102465 0.620788 -0.559509
O12   O     O_R   0.620870 0.316850 0.500040 -0.521107
O13   O     O_3   0.667558 0.902193 0.376921 -0.583181
O14   O     O_R   0.620910 0.683140 0.500000 -0.474083
O15   O     O_R   0.379090 0.316860 0.500000 -0.451926
O16   O     O_R   0.365090 0.500030 0.613580 -0.476718
O17   O     O_R   0.634910 0.499970 0.386420 -0.504525
O18   O     O_R   0.606870 0.500020 0.613610 -0.476030
O19   O     O_R   0.393130 0.499980 0.386390 -0.464857
O20   O     O_2   0.099780 0.189164 0.440265 -0.561226

loop_
_geom_bond_atom_site_label_1
_geom_bond_atom_site_label_2
_ccdc_geom_bond_type
Cu1   O15   S    
C37   H24   S    
C41   C42   S    
C31   H11   S    
C35   C36   S    
C4    C8    S    
C1    O1    A    
C12   O12   A    
C41   H36   S    
C20   H42   S    
C43   H39   S    
H9    O6    S    
C6    N2    S    
C36   C37   S    
C19   C21   A    
C3    C7    S    
C1    O14   A    
C38   C39   S    
C11   C14   A    
C45   C48   S    
Cu2   O12   S    
C7    C27   S    
C29   O5    D    
Cu2   O17   S    
C19   C26   S    
C8    N2    S    
C24   C29   S    
C35   O10   S    
C28   O3    D    
Cu1   O19   S    
C31   C32   S    
C35   H20   S    
C2    C44   S    
C25   O10   S    
C34   C46   S    
C7    N1    S    
C18   C20   A    
C36   H21   S    
C2    C34   S    
C48   O11   S    
C37   H25   S    
C4    N1    S    
C30   O8    S    
C40   H33   S    
C18   C25   S    
C44   C46   S    
C33   H16   S    
C23   H3    S    
C45   C47   S    
C2    O13   S    
C46   C48   S    
C27   O2    S    
Cu2   N2    S    
C43   H40   S    
C23   C47   S    
C31   H13   S    
C32   H14   S    
C4    C6    S    
C39   C40   S    
C1    C47   S    
C38   H28   S    
C45   H2    S    
C25   C26   D    
H7    O2    S    
C43   H41   S    
C23   C44   S    
C13   C24   A    
C39   H29   S    
C44   H46   S    
C40   H32   S    
Cu1   O1    S    
C14   H1    S    
C4    H34   S    
Cu2   O14   S    
C34   C45   S    
C38   O11   S    
C9    C11   S    
H8    O4    S    
C12   C46   S    
C37   H26   S    
C20   C22   A    
C34   H4    S    
C13   C15   A    
C30   O7    D    
C8    C28   S    
C14   C16   A    
C42   H38   S    
C42   C43   S    
C9    O16   A    
H10   O8    S    
C33   H17   S    
C12   O15   A    
C27   O20   D    
C15   C17   A    
C16   H45   S    
C23   C48   S    
C22   C30   S    
C9    O18   A    
C31   O9    S    
C40   H31   S    
C5    H5    S    
C6    H6    S    
C3    C5    S    
C10   C13   S    
C26   O9    S    
C5    C8    S    
C6    C7    S    
C17   H44   S    
C38   H27   S    
C2    C47   S    
C41   H35   S    
C11   C22   A    
C32   C33   S    
C10   O19   A    
C39   H30   S    
C3    N2    S    
C21   H43   S    
C29   O6    S    
C17   C19   A    
C15   H12   S    
Cu1   O16   S    
Cu2   O18   S    
C3    H23   S    
Cu1   N1    S    
C28   O4    S    
C5    N1    S    
C35   H19   S    
C16   C18   A    
Cu1   Cu2   S    
C41   O13   S    
C21   C24   A    
C42   H37   S    
C10   O17   A    
C36   H22   S    
C33   H18   S    
C32   H15   S    
