data_mof_unit_12454.cif
_audit_creation_date              2013-03-05T15:46:45-0500
_audit_creation_method            fapswitch 2.2
_symmetry_space_group_name_H-M    P1
_symmetry_Int_Tables_number       1
_space_group_crystal_system       triclinic
_cell_length_a                    10.233558
_cell_length_b                    10.476828
_cell_length_c                    12.414201
_cell_angle_alpha                 91.794669
_cell_angle_beta                  110.818447
_cell_angle_gamma                 95.222546
_cell_volume                      1236.02644991

loop_
_atom_site_label
_atom_site_type_symbol
_atom_site_description
_atom_site_fract_x
_atom_site_fract_y
_atom_site_fract_z
_atom_type_partial_charge
O1    O     O_R   0.936910 0.692950 0.509080 -0.598975
O2    O     O_R   0.138320 0.658600 0.480130 -0.622673
C1    C     C_R   0.047591 0.734095 0.488193 0.935589
O3    O     O_R   0.002900 0.525670 0.675280 -0.593786
O4    O     O_R   0.204310 0.491320 0.646330 -0.607523
C2    C     C_R   0.132445 0.500374 0.713344 0.871781
Zn1   Zn    Zn3+2 0.865520 0.522940 0.519330 0.956439
Zn2   Zn    Zn3+2 0.134480 0.477060 0.480670 0.927618
O5    O     O_R   0.861680 0.341400 0.519870 -0.577778
O6    O     O_R   0.063090 0.307050 0.490920 -0.593249
O7    O     O_R   0.795690 0.508680 0.353670 -0.608774
O8    O     O_R   0.997100 0.474330 0.324720 -0.615538
C3    C     C_R   0.946353 0.265357 0.501877 0.911587
C4    C     C_R   0.863542 0.484726 0.285680 0.840950
C5    C     C_R   0.738713 0.321296 0.986475 -0.126667
H1    H     H_    0.939060 0.352580 0.125160 0.160727
H2    H     H_    0.780579 0.263269 0.935690 0.195298
C6    C     C_R   0.781055 0.448805 0.164319 -0.077374
C7    C     C_R   0.142255 0.522891 0.915073 -0.209989
C8    C     C_R   0.208005 0.507327 0.032132 -0.215048
C9    C     C_R   0.337438 0.456980 0.071709 0.230903
C10   C     C_R   0.401754 0.425362 0.991325 0.042489
C11   C     C_R   0.319249 0.410420 0.874000 -0.033632
C12   C     C_R   0.545430 0.410092 0.023074 0.046476
C13   C     C_R   0.595282 0.341584 0.947673 0.014093
C14   C     C_R   0.499111 0.295529 0.837081 0.264756
C15   C     C_R   0.362635 0.332503 0.800687 -0.250246
C16   C     C_R   0.641288 0.471658 0.124905 -0.183728
C17   C     C_R   0.830705 0.373687 0.094765 -0.230549
C18   C     C_R   0.197691 0.475638 0.835053 -0.097009
H3    H     H_    0.607125 0.537721 0.175624 0.175216
H4    H     H_    0.046565 0.569452 0.887016 0.175769
H5    H     H_    0.158636 0.535180 0.092019 0.146985
H6    H     H_    0.291516 0.299884 0.714558 0.214728
H7    H     H_    0.836118 0.866448 0.394022 0.163786
C19   C     C_2   0.058186 0.867657 0.460978 -0.376581
C20   C     C_2   0.938241 0.921406 0.413943 -0.165623
H8    H     H_    0.873933 0.079793 0.548588 0.160533
C21   C     C_2   0.908934 0.127393 0.485480 -0.422971
C22   C     C_2   0.939577 0.059112 0.405273 0.265969
H9    H     H_    0.160517 0.921766 0.480334 0.182830
H10   H     H_    0.569244 0.390095 0.452217 0.159965
N1    N     N_2   0.313640 0.446500 0.454900 -0.221449
C23   C     C_2   0.436525 0.506062 0.518976 0.253104
H11   H     H_    0.682865 0.639796 0.585218 0.195351
N2    N     N_2   0.686360 0.553430 0.545150 -0.190611
C24   C     C_2   0.570018 0.477127 0.501919 -0.096669
H12   H     H_    0.313874 0.373735 0.397526 0.135600
N3    N     N_2   0.447070 0.604229 0.605224 -0.295625
H13   H     H_    0.366494 0.659130 0.594866 0.278487
C25   C     C_3   0.538454 0.592682 0.723478 -0.748763
H14   H     H_    0.475593 0.586034 0.780077 0.247974
H15   H     H_    0.615421 0.679755 0.753657 0.229459
H16   H     H_    0.596808 0.507077 0.732172 0.273203
N4    N     N_R   0.539114 0.220112 0.757450 0.198459
O9    O     O_R   0.451790 0.125553 0.693703 -0.411949
O10   O     O_R   0.647683 0.260601 0.731632 -0.431493
N5    N     N_2   0.395131 0.427286 0.189462 -0.326979
H17   H     H_    0.357428 0.472705 0.245422 0.211199
C26   C     C_3   0.418087 0.293986 0.210292 -0.783944
H18   H     H_    0.529109 0.289033 0.266534 0.251203
H19   H     H_    0.396473 0.233920 0.129160 0.252185
H20   H     H_    0.348062 0.251596 0.253503 0.218578
N6    N     N_2   0.959727 0.115607 0.307928 -0.282183
H21   H     H_    0.927134 0.205361 0.290369 0.227204
C27   C     C_3   0.089780 0.097525 0.291180 -0.733399
H22   H     H_    0.093631 0.147819 0.214744 0.219619
H23   H     H_    0.096158 0.993968 0.274668 0.246974
H24   H     H_    0.181118 0.137781 0.368282 0.247693

loop_
_geom_bond_atom_site_label_1
_geom_bond_atom_site_label_2
_geom_bond_distance
_ccdc_geom_bond_type
C23   N3    1.429855 S    
Zn1   N2    2.020951 S    
O4    Zn2   1.918077 S    
C27   H23   1.109896 S    
N1    C23   1.310952 D    
Zn2   N1    2.020828 S    
C12   C13   1.419730 A    
C5    H2    1.079830 S    
C11   C15   1.413681 A    
N1    H12   1.027628 S    
C4    C6    1.458319 S    
C7    C8    1.389568 A    
C22   N6    1.432802 S    
C23   C24   1.509960 S    
Zn2   O8    1.944204 S    
C25   H16   1.109225 S    
C14   N4    1.437619 S    
N4    O9    1.301281 A    
C27   H22   1.110732 S    
C14   C15   1.402042 A    
C9    N5    1.425014 S    
C6    C17   1.401848 A    
O1    Zn1   1.888347 S    
H11   N2    1.028490 S    
N6    H21   1.030180 S    
Zn1   O7    1.918077 S    
C19   H9    1.086414 S    
H8    C21   1.087282 S    
C1    C19   1.453269 S    
O3    Zn1   1.944204 S    
C8    H5    1.083213 S    
Zn2   O6    1.888349 S    
C19   C20   1.342270 D    
H7    C20   1.087522 S    
O8    C4    1.293976 A    
C5    C17   1.398177 A    
C20   C22   1.449276 S    
O2    C1    1.300962 A    
H10   C24   1.082657 S    
N4    O10   1.301136 A    
C15   H6    1.080936 S    
O4    C2    1.297932 A    
O7    C4    1.300991 A    
C10   C12   1.406287 A    
N5    H17   1.030132 S    
C27   H24   1.111184 S    
C3    C21   1.450079 S    
C7    H4    1.083222 S    
C25   H15   1.109497 S    
N5    C26   1.453137 S    
C25   H14   1.108393 S    
C11   C18   1.412802 A    
C16   H3    1.082096 S    
C6    C16   1.383738 A    
C8    C9    1.398187 A    
C5    C13   1.411486 A    
C26   H19   1.111747 S    
N3    H13   1.021236 S    
C26   H20   1.108490 S    
C13   C14   1.413469 A    
C21   C22   1.348951 D    
Zn1   O5    1.899062 S    
O5    C3    1.299053 A    
N2    C24   1.300105 D    
N3    C25   1.449204 S    
H1    C17   1.083189 S    
C9    C10   1.422886 A    
C7    C18   1.405214 A    
O3    C2    1.295197 A    
C2    C18   1.461092 S    
C10   C11   1.395094 A    
O2    Zn2   1.899060 S    
C12   C16   1.388768 A    
C26   H18   1.109130 S    
O1    C1    1.289511 A    
O6    C3    1.288680 A    
N6    C27   1.445873 S    
