data_mof_unit_32999.cif
_audit_creation_date              2012-12-10T18:18:24-0500
_audit_creation_method            fapswitch 2.2
_symmetry_space_group_name_H-M    P1
_symmetry_Int_Tables_number       1
_space_group_crystal_system       triclinic
_cell_length_a                    14.152434
_cell_length_b                    15.008979
_cell_length_c                    15.591951
_cell_angle_alpha                 87.549309
_cell_angle_beta                  68.264685
_cell_angle_gamma                 88.992115
_cell_volume                      3073.65873367

loop_
_atom_site_label
_atom_site_type_symbol
_atom_type_description
_atom_site_fract_x
_atom_site_fract_y
_atom_site_fract_z
_atom_type_partial_charge
C1    C     C_R   0.499556 0.673330 0.499624 0.892015
C2    C     C_R   0.499278 0.769332 0.499138 -0.074829
C3    C     C_R   0.412223 0.186111 0.506882 -0.256541
C4    C     C_R   0.587761 0.813889 0.493123 -0.256578
C5    C     C_R   0.411312 0.094066 0.506496 0.116449
C6    C     C_R   0.588703 0.905937 0.493411 0.116457
C7    C     C_R   0.500151 0.046345 0.500200 0.061646
C8    C     C_R   0.499888 0.953660 0.499637 0.061656
C9    C     C_R   0.589250 0.091293 0.494430 0.119967
C10   C     C_R   0.410801 0.908713 0.505377 0.119966
C11   C     C_R   0.323166 0.049165 0.512163 -0.218857
C12   C     C_R   0.500445 0.326670 0.500367 0.892008
C13   C     C_R   0.676852 0.950837 0.487729 -0.218869
C14   C     C_R   0.322925 0.956619 0.511574 -0.218637
C15   C     C_R   0.677124 0.043385 0.488234 -0.218637
C16   C     C_R   0.436448 0.499335 0.675440 0.867143
C17   C     C_R   0.563553 0.500666 0.324560 0.867138
C18   C     C_R   0.181203 0.438437 0.553292 -0.119845
C19   C     C_R   0.818796 0.561565 0.446709 -0.119852
C20   C     C_R   0.221618 0.562412 0.445163 0.282514
C21   C     C_R   0.778382 0.437592 0.554840 0.282482
C22   C     C_R   0.120700 0.564079 0.445286 0.012083
C23   C     C_R   0.377881 0.476494 0.101451 0.179477
C24   C     C_R   0.879298 0.435926 0.554722 0.012082
C25   C     C_R   0.050511 0.500283 0.499834 0.055438
C26   C     C_R   0.949487 0.499723 0.500175 0.055448
C27   C     C_R   0.081093 0.436979 0.553981 0.020703
C28   C     C_R   0.918905 0.563025 0.446025 0.020702
C29   C     C_R   0.087940 0.627615 0.391933 -0.204093
C30   C     C_R   0.912059 0.372390 0.608074 -0.204096
C31   C     C_R   0.988999 0.626734 0.392278 -0.210280
C32   C     C_R   0.011001 0.373270 0.607727 -0.210278
C33   C     C_R   0.397638 0.500869 0.775796 -0.064863
C34   C     C_R   0.622157 0.523408 0.898543 0.179492
C35   C     C_R   0.602371 0.499119 0.224205 -0.064859
C36   C     C_R   0.264139 0.517792 0.925042 -0.192431
C37   C     C_R   0.735881 0.482157 0.074969 -0.192438
C38   C     C_R   0.295076 0.516231 0.829079 -0.191706
C39   C     C_R   0.704936 0.483753 0.170931 -0.191690
C40   C     C_R   0.467818 0.489941 0.818414 -0.254321
C41   C     C_R   0.532197 0.510024 0.181581 -0.254341
C42   C     C_R   0.441470 0.505475 0.911375 0.096175
C43   C     C_R   0.558555 0.494458 0.088623 0.096191
C44   C     C_R   0.336844 0.510012 0.966639 0.128353
C45   C     C_R   0.306065 0.496651 0.061684 -0.250343
C46   C     C_R   0.663182 0.489912 0.033365 0.128348
C47   C     C_R   0.516232 0.507563 0.951438 0.000507
C48   C     C_R   0.483801 0.492350 0.048556 0.000529
C49   C     C_3   0.295210 0.630823 0.382656 -0.876126
C50   C     C_3   0.704794 0.369174 0.617337 -0.876098
C51   C     C_3   0.337951 0.425449 0.193652 -0.904705
C52   C     C_3   0.662098 0.574462 0.806346 -0.904701
C53   C     C_R   0.693967 0.503246 0.938316 -0.250331
C54   C     C_R   0.588893 0.183543 0.494743 -0.263757
C55   C     C_R   0.411159 0.816461 0.505074 -0.263755
C56   C     C_R   0.500732 0.230668 0.500807 -0.074823
H1    H     H_    0.225597 0.490735 0.103408 0.155020
H2    H     H_    0.543554 0.467302 0.778630 0.182230
H3    H     H_    0.760894 0.475784 0.202850 0.156316
H4    H     H_    0.239114 0.524220 0.797165 0.156313
H5    H     H_    0.183844 0.523390 0.966608 0.133257
H6    H     H_    0.816178 0.476552 0.033409 0.133255
H7    H     H_    0.657282 0.218430 0.489771 0.164421
H8    H     H_    0.342793 0.781574 0.509986 0.164420
H9    H     H_    0.343811 0.222851 0.511867 0.161987
H10   H     H_    0.656133 0.777144 0.488251 0.162016
H11   H     H_    0.254672 0.085581 0.516997 0.145531
H12   H     H_    0.774438 0.509151 0.896593 0.155014
H13   H     H_    0.745326 0.914416 0.482946 0.145533
H14   H     H_    0.254273 0.922566 0.515996 0.145419
H15   H     H_    0.745784 0.077437 0.483793 0.145419
H16   H     H_    0.299130 0.625199 0.310649 0.201176
H17   H     H_    0.269027 0.698810 0.406378 0.210339
H18   H     H_    0.373329 0.624892 0.377725 0.291154
H19   H     H_    0.700883 0.374786 0.689344 0.201157
H20   H     H_    0.626672 0.375104 0.622277 0.291153
H21   H     H_    0.730986 0.301193 0.593597 0.210375
H22   H     H_    0.398655 0.387709 0.208362 0.254885
H23   H     H_    0.204583 0.390139 0.595179 0.138778
H24   H     H_    0.298367 0.471268 0.249972 0.243893
H25   H     H_    0.282201 0.374484 0.193045 0.241420
H26   H     H_    0.701645 0.528644 0.750014 0.243887
H27   H     H_    0.601404 0.612241 0.791658 0.254881
H28   H     H_    0.717889 0.625392 0.806940 0.241412
H29   H     H_    0.795418 0.609861 0.404820 0.138787
H30   H     H_    0.137703 0.679215 0.349227 0.157017
H31   H     H_    0.862299 0.320788 0.650778 0.157015
H32   H     H_    0.967318 0.676331 0.350354 0.138718
H33   H     H_    0.032683 0.323670 0.649648 0.138714
H34   H     H_    0.456455 0.532663 0.221357 0.182231
N1    N     N_R   0.249980 0.499930 0.499960 -0.100465
N2    N     N_R   0.750020 0.500070 0.500040 -0.100460
O1    O     O_R   0.419720 0.632140 0.499980 -0.630407
O2    O     O_R   0.580280 0.367860 0.500020 -0.630403
O3    O     O_R   0.580270 0.632160 0.499970 -0.621493
O4    O     O_R   0.419730 0.367840 0.500030 -0.621485
O5    O     O_R   0.373870 0.499980 0.632250 -0.614156
O6    O     O_R   0.626130 0.500020 0.367750 -0.614163
O7    O     O_R   0.534420 0.500000 0.632240 -0.625134
O8    O     O_R   0.465580 0.500000 0.367760 -0.625137
Zn1   Zn    Zn3+2 0.392800 0.499980 0.500010 0.938937
Zn2   Zn    Zn3+2 0.607200 0.500020 0.499990 0.938930

loop_
_geom_bond_atom_site_label_1
_geom_bond_atom_site_label_2
_ccdc_geom_bond_type
C30   C32   A    
C23   C45   A    
C22   C29   A    
C14   H14   S    
C2    C4    A    
C37   H6    S    
C7    C8    A    
C45   H1    S    
C18   N1    A    
C24   C26   A    
C5    C11   A    
C2    C55   A    
C11   C14   A    
C16   O5    A    
C54   H7    S    
C1    C2    S    
C52   H28   S    
C53   H12   S    
C51   H24   S    
C19   N2    A    
C32   H33   S    
C18   H23   S    
C22   C25   A    
C31   H32   S    
C17   O6    A    
C51   H25   S    
C37   C46   A    
O3    Zn2   S    
N2    Zn2   S    
C40   C42   A    
C41   H34   S    
O4    Zn1   S    
C41   C43   A    
C12   O2    A    
C3    H9    S    
C42   C44   A    
N1    Zn1   S    
C21   C50   S    
C43   C46   A    
C11   H11   S    
C37   C39   A    
C20   N1    A    
C54   C56   A    
C33   C40   A    
C40   H2    S    
C4    C6    A    
C10   C14   A    
O1    Zn1   S    
C5    C7    A    
C6    C8    A    
C3    C5    A    
C25   C26   A    
O6    Zn2   S    
C49   H16   S    
C52   H27   S    
C35   C39   A    
C20   C49   S    
C19   C28   A    
C50   H20   S    
C16   C33   S    
C3    C56   A    
C23   C51   S    
C47   C48   A    
C1    O3    A    
C39   H3    S    
C55   H8    S    
C52   H26   S    
C10   C55   A    
C29   H30   S    
C12   C56   S    
C38   H4    S    
C1    O1    A    
C20   C22   A    
C13   C15   A    
C49   H17   S    
C36   C44   A    
C36   H5    S    
C50   H21   S    
C44   C45   A    
C43   C48   A    
C7    C9    A    
C23   C48   A    
C27   C32   A    
C34   C52   S    
C28   C31   A    
C18   C27   A    
C19   H29   S    
C16   O7    A    
C9    C54   A    
C25   C27   A    
C15   H15   S    
C26   C28   A    
C33   C38   A    
C36   C38   A    
C9    C15   A    
C51   H22   S    
C29   C31   A    
C50   H19   S    
C6    C13   A    
C4    H10   S    
C13   H13   S    
C46   C53   A    
O8    Zn1   S    
C42   C47   A    
C35   C41   A    
C17   O8    A    
C24   C30   A    
O7    Zn2   S    
O2    Zn2   S    
C34   C53   A    
C8    C10   A    
C21   C24   A    
C49   H18   S    
C12   O4    A    
C34   C47   A    
C17   C35   S    
C30   H31   S    
O5    Zn1   S    
C21   N2    A    
