data_mof_unit_31471.cif
_audit_creation_date              2012-12-10T20:57:50-0500
_audit_creation_method            fapswitch 2.2
_symmetry_space_group_name_H-M    P1
_symmetry_Int_Tables_number       1
_space_group_crystal_system       triclinic
_cell_length_a                    15.096056
_cell_length_b                    15.672177
_cell_length_c                    15.85362
_cell_angle_alpha                 90.458284
_cell_angle_beta                  90.469004
_cell_angle_gamma                 67.415825
_cell_volume                      3462.98993905

loop_
_atom_site_label
_atom_site_type_symbol
_atom_type_description
_atom_site_fract_x
_atom_site_fract_y
_atom_site_fract_z
_atom_type_partial_charge
C1    C     C_R   0.499511 0.500322 0.338959 0.907240
C2    C     C_R   0.500511 0.499615 0.661045 0.908670
C3    C     C_R   0.526408 0.958538 0.385788 -0.225400
C4    C     C_R   0.472539 0.040445 0.606207 -0.237082
C5    C     C_R   0.592461 0.995697 0.363480 -0.200487
C6    C     C_R   0.405327 0.004574 0.628234 -0.164539
C7    C     C_R   0.470231 0.582114 0.954343 -0.223738
C8    C     C_R   0.530201 0.417535 0.045696 -0.224429
C9    C     C_R   0.505035 0.496695 0.913060 0.096683
C10   C     C_R   0.495326 0.502953 0.086963 0.095999
C11   C     C_R   0.535924 0.413193 0.958107 0.009584
C12   C     C_R   0.464489 0.586435 0.041921 0.009810
C13   C     C_1   0.503613 0.497121 0.824073 -0.064838
C14   C     C_1   0.496568 0.502581 0.175943 -0.065259
C15   C     C_1   0.498073 0.501561 0.250703 -0.177303
C16   C     C_1   0.502001 0.498237 0.749309 -0.176462
C17   C     C_R   0.958460 0.489082 0.422127 0.002383
C18   C     C_R   0.041768 0.510390 0.578061 0.001091
C19   C     C_R   0.905622 0.498313 0.497777 -0.044858
C20   C     C_R   0.094537 0.501310 0.502370 -0.045764
C21   C     C_R   0.948467 0.508525 0.574294 -0.229309
C22   C     C_R   0.051699 0.491063 0.425861 -0.229405
C23   C     C_R   0.559437 0.324006 0.502024 0.881454
C24   C     C_R   0.440547 0.675937 0.497786 0.883890
C25   C     C_1   0.807272 0.499392 0.499186 0.162132
C26   C     C_1   0.192793 0.500451 0.500874 0.161344
C27   C     C_R   0.596484 0.223617 0.494541 -0.123457
C28   C     C_R   0.402995 0.776445 0.502757 -0.124625
C29   C     C_R   0.672130 0.102922 0.392456 -0.013631
C30   C     C_R   0.319287 0.904112 0.596474 -0.039662
C31   C     C_R   0.668043 0.182336 0.435055 -0.249155
C32   C     C_R   0.328949 0.819920 0.559620 -0.259966
C33   C     C_R   0.543163 0.175150 0.528036 -0.069637
C34   C     C_R   0.455187 0.824772 0.466810 -0.070408
C35   C     C_R   0.554552 0.088340 0.491904 0.041741
C36   C     C_R   0.441330 0.913615 0.499397 0.033348
C37   C     C_R   0.608740 0.060364 0.416153 0.062985
C38   C     C_R   0.384634 0.944380 0.573270 0.080835
C39   C     C_R   0.505704 0.033352 0.522686 0.070659
C40   C     C_R   0.491219 0.967626 0.468617 0.071984
H1    H     H_    0.625500 0.977285 0.302352 0.197501
H2    H     H_    0.376243 0.017916 0.691348 0.176749
H3    H     H_    0.286002 0.783241 0.582498 0.204472
H4    H     H_    0.710232 0.219762 0.411986 0.183375
H5    H     H_    0.505506 0.920641 0.337776 0.166425
H6    H     H_    0.496168 0.075485 0.654930 0.164421
H7    H     H_    0.445828 0.645500 0.918050 0.160720
H8    H     H_    0.554617 0.354168 0.082016 0.163495
H9    H     H_    0.092330 0.483422 0.368269 0.181463
H10   H     H_    0.907811 0.516159 0.631870 0.181033
N1    N     N_1   0.270550 0.499970 0.500020 -0.066864
N2    N     N_1   0.729450 0.500030 0.499980 -0.066840
O1    O     O_R   0.573650 0.500000 0.378020 -0.585373
O2    O     O_R   0.426350 0.500000 0.621980 -0.583388
O3    O     O_R   0.426300 0.500040 0.378020 -0.617448
O4    O     O_R   0.573700 0.499960 0.621980 -0.618947
O5    O     O_R   0.615760 0.367720 0.500000 -0.612959
O6    O     O_R   0.384240 0.632280 0.500000 -0.613131
O7    O     O_R   0.468410 0.367760 0.500000 -0.598678
O8    O     O_R   0.531590 0.632240 0.500000 -0.598938
Zn1   Zn    Zn3+2 0.598380 0.499970 0.500000 1.004668
Zn2   Zn    Zn3+2 0.401620 0.500030 0.500000 1.006585
C41   C     C_R   0.535664 0.773554 0.408321 0.113846
C42   C     C_R   0.516854 0.737939 0.331645 -0.173267
C43   C     C_R   0.592168 0.687545 0.278056 -0.107496
C44   C     C_R   0.686747 0.671805 0.300725 -0.079228
C45   C     C_R   0.706396 0.705421 0.377535 -0.137326
C46   C     C_R   0.631383 0.755438 0.431580 -0.091712
H11   H     H_    0.443985 0.748775 0.314020 0.133419
H12   H     H_    0.577341 0.660177 0.219174 0.147315
H13   H     H_    0.744855 0.633030 0.258972 0.154429
H14   H     H_    0.779815 0.692249 0.395425 0.136897
H15   H     H_    0.647601 0.780150 0.491413 0.131491
C47   C     C_R   0.463882 0.224950 0.588243 0.110781
C48   C     C_R   0.367598 0.244645 0.565825 -0.081417
C49   C     C_R   0.293697 0.293792 0.621212 -0.117366
C50   C     C_R   0.314987 0.325115 0.698535 -0.079813
C51   C     C_R   0.410132 0.307749 0.720478 -0.110489
C52   C     C_R   0.484366 0.258027 0.665624 -0.177703
H16   H     H_    0.350061 0.221933 0.505545 0.134396
H17   H     H_    0.219855 0.308179 0.603922 0.140963
H18   H     H_    0.257705 0.363402 0.741241 0.153953
H19   H     H_    0.426239 0.333375 0.779771 0.149000
H20   H     H_    0.557700 0.245863 0.682771 0.133554
C53   C     C_2   0.738020 0.071965 0.319733 0.890130
O9    O     O_2   0.823806 0.052866 0.330395 -0.602782
O10   O     O_R   0.701910 0.069675 0.238636 -0.822903
H21   H     H_    0.754115 0.048857 0.194376 0.351022
C54   C     C_2   0.243535 0.946242 0.660887 0.901075
O11   O     O_2   0.213200 0.897513 0.701888 -0.617823
O12   O     O_R   0.204435 0.042091 0.672796 -0.807315
H22   H     H_    0.153037 0.062329 0.717789 0.350761
C55   C     C_R   0.425999 0.678224 0.084183 0.110667
C56   C     C_R   0.347721 0.701527 0.139419 -0.136429
C57   C     C_R   0.310920 0.788602 0.178011 -0.148825
C58   C     C_R   0.351929 0.852992 0.161948 -0.111829
C59   C     C_R   0.429452 0.830608 0.106851 -0.123310
C60   C     C_R   0.466087 0.743827 0.067677 -0.174506
H23   H     H_    0.314690 0.652645 0.152005 0.143100
H24   H     H_    0.250792 0.806057 0.220620 0.149383
H25   H     H_    0.323756 0.920133 0.192314 0.138989
H26   H     H_    0.461213 0.880500 0.094516 0.138674
H27   H     H_    0.526335 0.727378 0.025255 0.136961
C61   C     C_R   0.574348 0.321365 0.915868 0.108445
C62   C     C_R   0.652010 0.298282 0.859956 -0.137726
C63   C     C_R   0.688687 0.211207 0.821360 -0.150004
C64   C     C_R   0.648261 0.146537 0.838178 -0.114955
C65   C     C_R   0.571424 0.168651 0.894002 -0.121155
C66   C     C_R   0.534852 0.255466 0.933113 -0.168745
H28   H     H_    0.684686 0.347326 0.846841 0.142339
H29   H     H_    0.748318 0.193938 0.778217 0.147067
H30   H     H_    0.676379 0.079370 0.807853 0.136620
H31   H     H_    0.540125 0.118534 0.906936 0.137318
H32   H     H_    0.475097 0.271705 0.976064 0.139605
C67   C     C_2   0.919216 0.476876 0.338257 0.872691
O13   O     O_2   0.954776 0.491558 0.273676 -0.631647
O14   O     O_R   0.842870 0.447444 0.332236 -0.800530
H33   H     H_    0.823194 0.442179 0.271729 0.347536
C68   C     C_2   0.081146 0.522231 0.662011 0.872778
O15   O     O_2   0.044815 0.508529 0.726546 -0.630326
O16   O     O_R   0.158550 0.550128 0.668175 -0.799108
H34   H     H_    0.178168 0.555291 0.728718 0.349767

loop_
_geom_bond_atom_site_label_1
_geom_bond_atom_site_label_2
_ccdc_geom_bond_type
O6    Zn2   S    
O10   H21   S    
C55   C56   A    
C5    C37   A    
C18   C21   A    
C64   H30   S    
C57   C58   A    
C62   H28   S    
C59   C60   A    
C4    H6    S    
C50   C51   A    
C27   C33   A    
C23   O7    A    
C50   H18   S    
C35   C37   A    
N2    Zn1   S    
C61   C66   A    
C63   C64   A    
C43   H12   S    
O3    Zn2   S    
C65   C66   A    
C30   C38   A    
C23   O5    A    
C45   H14   S    
C1    O1    A    
C61   C62   A    
C9    C13   S    
C17   C19   A    
O1    Zn1   S    
C51   H19   S    
C67   O14   S    
C60   H27   S    
C64   C65   A    
C6    C38   A    
C11   C61   S    
C1    C15   S    
C23   C27   S    
C54   O12   S    
C2    C16   S    
C48   H16   S    
C29   C53   S    
C59   H26   S    
C68   O16   S    
C44   C45   A    
C28   C34   A    
C58   H25   S    
N1    Zn2   S    
C30   C54   S    
C21   H10   S    
C63   H29   S    
C53   O10   S    
C7    C12   A    
C31   H4    S    
C27   C31   A    
C45   C46   A    
C28   C32   A    
C49   C50   A    
C4    C6    A    
C10   C14   S    
O12   H22   S    
C51   C52   A    
O2    Zn2   S    
C46   H15   S    
C53   O9    D    
C3    H5    S    
O8    Zn1   S    
C7    H7    S    
C65   H31   S    
C35   C39   A    
C48   C49   A    
C8    H8    S    
C44   H13   S    
C14   C15   T    
C4    C39   A    
C36   C40   A    
C24   O8    A    
C58   C59   A    
C42   H11   S    
C9    C11   A    
O16   H34   S    
C10   C12   A    
C66   H32   S    
C22   H9    S    
C24   O6    A    
C20   C22   A    
C3    C40   A    
C47   C52   A    
C2    O2    A    
C12   C55   S    
C39   C40   A    
C17   C67   S    
C7    C9    A    
C5    H1    S    
C41   C46   A    
O7    Zn2   S    
C19   C21   A    
C57   H24   S    
C24   C28   S    
C3    C5    A    
C49   H17   S    
C68   O15   D    
O5    Zn1   S    
C62   C63   A    
C17   C22   A    
C42   C43   A    
C36   C38   A    
C1    O3    A    
C25   N2    T    
C29   C31   A    
C2    O4    A    
O14   H33   S    
C30   C32   A    
C52   H20   S    
C20   C26   S    
C56   H23   S    
C8    C11   A    
C55   C60   A    
C34   C41   S    
C33   C35   A    
C32   H3    S    
C18   C20   A    
C56   C57   A    
C19   C25   S    
C41   C42   A    
C33   C47   S    
C47   C48   A    
C34   C36   A    
C8    C10   A    
C43   C44   A    
C6    H2    S    
C13   C16   T    
C29   C37   A    
O4    Zn1   S    
C54   O11   D    
C26   N1    T    
C18   C68   S    
C67   O13   D    
