data_mof_unit_24430.cif
_audit_creation_date              2012-12-11T15:53:40-0500
_audit_creation_method            fapswitch 2.2
_symmetry_space_group_name_H-M    P1
_symmetry_Int_Tables_number       1
_space_group_crystal_system       triclinic
_cell_length_a                    6.97062
_cell_length_b                    14.515716
_cell_length_c                    16.012201
_cell_angle_alpha                 90.462848
_cell_angle_beta                  89.974031
_cell_angle_gamma                 89.514451
_cell_volume                      1620.05992528

loop_
_atom_site_label
_atom_site_type_symbol
_atom_type_description
_atom_site_fract_x
_atom_site_fract_y
_atom_site_fract_z
_atom_type_partial_charge
O1    O     O_R   0.361600 0.167310 0.164620 -0.542446
O2    O     O_R   0.638400 0.832690 0.835380 -0.542446
O3    O     O_R   0.691080 0.157570 0.338750 -0.523107
O4    O     O_R   0.308920 0.842430 0.661250 -0.523108
O5    O     O_R   0.861410 0.336420 0.339360 -0.516274
O6    O     O_R   0.138590 0.663580 0.660640 -0.516274
C1    C     C_R   0.523277 0.134122 0.366385 0.754350
C2    C     C_R   0.476723 0.865878 0.633615 0.754350
O7    O     O_R   0.691320 0.156280 0.165240 -0.547727
O8    O     O_R   0.308680 0.843720 0.834760 -0.547727
O9    O     O_R   0.861640 0.335130 0.164600 -0.543951
O10   O     O_R   0.138360 0.664870 0.835400 -0.543951
C3    C     C_R   0.522644 0.133800 0.136183 0.670942
C4    C     C_R   0.477356 0.866200 0.863817 0.670942
O11   O     O_R   0.361370 0.168600 0.339370 -0.547967
O12   O     O_R   0.638630 0.831400 0.660630 -0.547967
O13   O     O_3   0.527990 0.310540 0.251980 -0.370731
O14   O     O_3   0.472010 0.689460 0.748020 -0.370731
V1    V     V_3+5 0.802830 0.240980 0.251990 1.439732
V2    V     V_3+5 0.197170 0.759020 0.748010 1.439732
O15   O     O_R   0.191360 0.346160 0.165220 -0.545839
O16   O     O_R   0.808640 0.653840 0.834780 -0.545839
C5    C     C_R   0.022064 0.368163 0.136182 0.670565
C6    C     C_R   0.977936 0.631837 0.863818 0.670566
O17   O     O_R   0.191130 0.347440 0.338740 -0.547670
O18   O     O_R   0.808870 0.652560 0.661260 -0.547670
C7    C     C_R   0.021707 0.367504 0.368808 0.749208
C8    C     C_R   0.978293 0.632496 0.631192 0.749208
V3    V     V_3+5 0.302840 0.262750 0.251990 1.404302
V4    V     V_3+5 0.697160 0.737250 0.748010 1.404302
O19   O     O_3   0.027820 0.193180 0.251990 -0.374749
O20   O     O_3   0.972180 0.806820 0.748010 -0.374749
C9    C     C_3   0.879462 0.431539 0.518014 0.039500
C10   C     C_3   0.120537 0.568461 0.481986 0.039500
C11   C     C_3   0.049298 0.462477 0.573105 -0.269140
C12   C     C_3   0.950702 0.537523 0.426895 -0.269141
H1    H     H_    0.091432 0.431931 0.633865 0.117381
H2    H     H_    0.908568 0.568069 0.366135 0.117381
C13   C     C_3   0.991357 0.564480 0.560004 -0.051700
C14   C     C_3   0.008643 0.435520 0.439996 -0.051700
C15   C     C_3   0.822250 0.533941 0.505741 0.114571
C16   C     C_3   0.177749 0.466059 0.494259 0.114571
C17   C     C_R   0.821763 0.525641 0.967201 -0.157320
C18   C     C_R   0.178237 0.474359 0.032799 -0.157320
H3    H     H_    0.681794 0.544349 0.943083 0.116746
H4    H     H_    0.318206 0.455651 0.056917 0.116746
C19   C     C_R   0.832478 0.462612 0.032941 -0.154552
C20   C     C_R   0.167522 0.537388 0.967059 -0.154552
H5    H     H_    0.700342 0.434640 0.057177 0.118237
H6    H     H_    0.299658 0.565360 0.942823 0.118237
C21   C     C_R   0.010873 0.436035 0.066747 -0.043359
C22   C     C_R   0.989127 0.563965 0.933253 -0.043358
C23   C     C_R   0.664458 0.998879 0.448261 0.156893
C24   C     C_R   0.335541 0.001121 0.551739 0.156894
C25   C     C_R   0.646067 0.935732 0.513594 -0.180466
C26   C     C_R   0.353932 0.064268 0.486405 -0.180466
H7    H     H_    0.759059 0.885181 0.523264 0.133967
H8    H     H_    0.240940 0.114819 0.476736 0.133967
C27   C     C_R   0.484207 0.935399 0.565790 -0.077460
C28   C     C_R   0.515793 0.064601 0.434209 -0.077461
C29   C     C_R   0.678728 0.025285 0.032209 -0.160313
C30   C     C_R   0.321272 0.974714 0.967791 -0.160313
H9    H     H_    0.818877 0.043697 0.055872 0.116161
H10   H     H_    0.181123 0.956303 0.944128 0.116161
C31   C     C_R   0.667272 0.961312 0.966437 -0.149479
C32   C     C_R   0.332728 0.038688 0.033563 -0.149479
H11   H     H_    0.799368 0.932312 0.941695 0.119256
H12   H     H_    0.200632 0.067688 0.058305 0.119256
C33   C     C_R   0.488370 0.935095 0.933244 -0.042446
C34   C     C_R   0.511630 0.064905 0.066756 -0.042446
C35   C     C_2   0.767643 0.350205 0.546979 0.313391
H13   H     H_    0.702271 0.351659 0.608460 0.044095
O21   O     O_2   0.753536 0.281345 0.503338 -0.535191
C36   C     C_2   0.232357 0.649795 0.453021 0.313391
H14   H     H_    0.297729 0.648341 0.391540 0.044095
O22   O     O_2   0.246464 0.718655 0.496662 -0.535191
C37   C     C_3   0.635531 0.587121 0.504052 -0.717241
H15   H     H_    0.557197 0.565874 0.447459 0.190486
H16   H     H_    0.551853 0.576225 0.561906 0.221184
H17   H     H_    0.665488 0.661862 0.498646 0.215119
C38   C     C_3   0.364469 0.412879 0.495948 -0.717241
H18   H     H_    0.448147 0.423775 0.438094 0.221184
H19   H     H_    0.442802 0.434126 0.552541 0.190487
H20   H     H_    0.334512 0.338138 0.501354 0.215118
C39   C     C_3   0.841644 0.992249 0.394185 -0.726024
H21   H     H_    0.800214 0.985276 0.327491 0.192539
H22   H     H_    0.931443 0.054245 0.403463 0.225538
H23   H     H_    0.932138 0.931479 0.410013 0.200988
C40   C     C_3   0.158355 0.007750 0.605814 -0.726024
H24   H     H_    0.199784 0.014723 0.672508 0.192540
H25   H     H_    0.067861 0.068519 0.589986 0.200988
H26   H     H_    0.068557 0.945754 0.596535 0.225538

loop_
_geom_bond_atom_site_label_1
_geom_bond_atom_site_label_2
_ccdc_geom_bond_type
C29   C34   A    
C6    C22   S    
C32   H12   S    
C25   C27   A    
O13   V3    S    
C23   C25   A    
C10   C16   S    
O4    C2    A    
V1    O19   S    
C38   H18   S    
C19   H5    S    
C37   H15   S    
O9    V1    S    
C36   O22   D    
C11   H1    S    
O3    C1    A    
C2    C27   S    
C15   C37   S    
C17   C22   A    
C39   H23   S    
C3    C34   S    
O12   V4    S    
C29   H9    S    
C11   C16   S    
O7    C3    A    
C30   H10   S    
C9    C11   S    
O5    C7    A    
O7    V1    S    
O6    C8    A    
O8    V2    S    
C31   H11   S    
O3    V1    S    
O14   V4    S    
C40   H25   S    
C10   C12   S    
C20   H6    S    
C2    O12   A    
C12   C15   S    
C16   C38   S    
C38   H19   S    
C23   C28   A    
C18   H4    S    
O11   V3    S    
C24   C27   A    
C37   H16   S    
O17   V3    S    
C24   C26   A    
C9    C14   S    
C36   H14   S    
C30   C32   A    
C39   H22   S    
C10   C13   S    
C12   C14   S    
C24   C40   S    
C13   C15   S    
O8    C4    A    
C35   O21   D    
C19   C21   A    
C1    O11   A    
C8    C13   S    
C39   H21   S    
O15   V3    S    
C26   C28   A    
C30   C33   A    
C11   C13   S    
C5    C21   S    
C7    C14   S    
O10   V2    S    
O1    V3    S    
C40   H26   S    
C17   H3    S    
C10   C36   S    
C18   C21   A    
O18   V4    S    
C25   H7    S    
C4    C33   S    
O16   C6    A    
O1    C3    A    
C12   H2    S    
C1    C28   S    
C38   H20   S    
V2    O20   S    
C37   H17   S    
O16   V4    S    
C14   C16   S    
O5    V1    S    
O17   C7    A    
O6    V2    S    
O10   C6    A    
O18   C8    A    
O2    V4    S    
C9    C15   S    
O15   C5    A    
C35   H13   S    
V3    O19   S    
V4    O20   S    
C32   C34   A    
C31   C33   A    
O9    C5    A    
O13   V1    S    
C26   H8    S    
O14   V2    S    
O2    C4    A    
C9    C35   S    
O4    V2    S    
C29   C31   A    
C20   C22   A    
C23   C39   S    
C40   H24   S    
C17   C19   A    
C18   C20   A    
