data_mof_unit_5132.cif
_audit_creation_date              2012-12-10T18:14:42-0500
_audit_creation_method            fapswitch 2.2
_symmetry_space_group_name_H-M    P1
_symmetry_Int_Tables_number       1
_space_group_crystal_system       triclinic
_cell_length_a                    10.724106
_cell_length_b                    9.406253
_cell_length_c                    27.822945
_cell_angle_alpha                 90.052705
_cell_angle_beta                  90.207155
_cell_angle_gamma                 90.026137
_cell_volume                      2806.58230592

loop_
_atom_site_label
_atom_site_type_symbol
_atom_type_description
_atom_site_fract_x
_atom_site_fract_y
_atom_site_fract_z
_atom_type_partial_charge
C1    C     C_R   0.259638 0.500193 0.500218 0.759545
C2    C     C_R   0.487460 0.626460 0.278734 -0.103191
C3    C     C_R   0.500966 0.498216 0.253726 0.362421
C4    C     C_R   0.499393 0.494305 0.102068 -0.044139
C5    C     C_R   0.388343 0.518601 0.127656 -0.020007
C6    C     C_R   0.277329 0.541381 0.102500 -0.146223
C7    C     C_R   0.611038 0.471616 0.127735 -0.019956
C8    C     C_R   0.500569 0.499493 0.354547 -0.041752
C9    C     C_R   0.495968 0.499717 0.645542 -0.148950
C10   C     C_R   0.383307 0.503869 0.974655 0.043431
C11   C     C_R   0.612598 0.477699 0.974657 0.043468
C12   C     C_R   0.500079 0.499910 0.407466 0.804874
C13   C     C_R   0.497689 0.490425 0.949415 0.068331
C14   C     C_R   0.271120 0.508569 0.947711 -0.204834
C15   C     C_R   0.271738 0.506196 0.897811 -0.145771
C16   C     C_R   0.383935 0.498469 0.872679 -0.022038
C17   C     C_R   0.497163 0.489955 0.898294 -0.044813
C18   C     C_R   0.609872 0.481256 0.872653 -0.024183
C19   C     C_R   0.607373 0.482470 0.822191 0.543121
C20   C     C_R   0.385483 0.498243 0.822224 0.541034
C21   C     C_R   0.457330 0.616214 0.722151 -0.186399
C22   C     C_R   0.454853 0.619546 0.671864 0.457929
C23   C     C_R   0.740126 0.500232 0.500183 0.761134
C24   C     C_R   0.533719 0.376946 0.670433 -0.301592
C25   C     C_R   0.533429 0.373972 0.720490 -0.099691
C26   C     C_R   0.495753 0.493667 0.746517 0.287158
C27   C     C_R   0.384543 0.511312 0.025692 0.043083
C28   C     C_R   0.498799 0.492734 0.050951 0.067510
C29   C     C_R   0.612474 0.472688 0.025733 0.042987
C30   C     C_R   0.275212 0.538088 0.052606 -0.205902
C31   C     C_R   0.721451 0.447191 0.102652 -0.146261
C32   C     C_R   0.724184 0.471639 0.947678 -0.204268
C33   C     C_R   0.722540 0.473186 0.897770 -0.145772
C34   C     C_R   0.498558 0.500118 0.592562 0.831465
C35   C     C_R   0.722410 0.447434 0.052741 -0.205880
C36   C     C_3   0.071334 0.655812 0.501749 -0.378683
C37   C     C_3   0.072215 0.420539 0.545021 -0.377335
C38   C     C_3   0.928612 0.655849 0.501774 -0.373960
C39   C     C_3   0.928271 0.420592 0.545013 -0.375449
C40   C     C_3   0.071394 0.427294 0.454328 -0.374507
C41   C     C_3   0.121713 0.500934 0.500345 0.160551
C42   C     C_3   0.878062 0.500998 0.500324 0.159458
C43   C     C_3   0.927495 0.427390 0.454304 -0.376663
C44   C     C_3   0.585924 0.084020 0.538194 -0.187982
C45   C     C_3   0.585716 0.916240 0.538260 -0.185173
C46   C     C_3   0.374485 0.083662 0.510987 -0.188047
C47   C     C_3   0.374423 0.916274 0.510792 -0.187755
C48   C     C_3   0.540895 0.083576 0.454161 -0.186199
C49   C     C_3   0.541198 0.916265 0.454198 -0.186075
C50   C     C_R   0.391023 0.520024 0.178109 0.532973
C51   C     C_R   0.609514 0.473280 0.178192 0.532760
C52   C     C_R   0.514471 0.370663 0.279074 -0.103969
C53   C     C_R   0.514042 0.371093 0.329178 -0.226705
C54   C     C_R   0.487559 0.627301 0.328856 -0.226953
Cu1   Cu    Cu3+1 0.499860 0.642410 0.500020 0.909058
Cu2   Cu    Cu3+1 0.499860 0.357590 0.500020 0.894007
H1    H     H_    0.476900 0.727767 0.347404 0.142450
H2    H     H_    0.524788 0.271192 0.259875 0.136592
H3    H     H_    0.808273 0.427579 0.121546 0.187396
H4    H     H_    0.815362 0.468452 0.963929 0.135121
H5    H     H_    0.564790 0.283371 0.651202 0.170874
H6    H     H_    0.810660 0.468311 0.878907 0.186321
H7    H     H_    0.562821 0.278627 0.739132 0.157752
H8    H     H_    0.811148 0.424720 0.036511 0.137196
H9    H     H_    0.105012 0.716273 0.469941 0.162185
H10   H     H_    0.106473 0.308837 0.544980 0.161780
H11   H     H_    0.105989 0.711485 0.534533 0.154844
H12   H     H_    0.107366 0.471933 0.578466 0.147281
H13   H     H_    0.894818 0.711306 0.534620 0.159711
H14   H     H_    0.893724 0.472098 0.578447 0.156802
H15   H     H_    0.477145 0.725416 0.259267 0.136730
H16   H     H_    0.894203 0.716567 0.470043 0.163453
H17   H     H_    0.893894 0.308909 0.544983 0.160531
H18   H     H_    0.106025 0.483636 0.421836 0.159278
H19   H     H_    0.105641 0.315732 0.452421 0.161235
H20   H     H_    0.892428 0.483859 0.421817 0.158717
H21   H     H_    0.893010 0.315879 0.452353 0.162818
H22   H     H_    0.558534 0.122301 0.574431 0.148569
H23   H     H_    0.557963 0.878356 0.574486 0.189763
H24   H     H_    0.682487 0.122857 0.532069 0.136157
H25   H     H_    0.682233 0.877170 0.532276 0.131848
H26   H     H_    0.340353 0.123148 0.546281 0.142703
H27   H     H_    0.339685 0.876236 0.545841 0.155801
H28   H     H_    0.477297 0.120280 0.425085 0.140964
H29   H     H_    0.478042 0.879066 0.425032 0.140025
H30   H     H_    0.635531 0.123813 0.445132 0.137928
H31   H     H_    0.636067 0.876471 0.445330 0.138694
H32   H     H_    0.306932 0.121320 0.483381 0.138606
H33   H     H_    0.307347 0.879023 0.482926 0.135201
H34   H     H_    0.190938 0.562117 0.121322 0.187458
H35   H     H_    0.428521 0.709034 0.742326 0.159586
H36   H     H_    0.183223 0.510589 0.878966 0.186450
H37   H     H_    0.180280 0.511602 0.964000 0.135232
H38   H     H_    0.186107 0.559877 0.036292 0.137267
H39   H     H_    0.524643 0.271057 0.347972 0.142753
N1    N     N_R   0.500538 0.497364 0.202216 -0.469467
N2    N     N_R   0.496215 0.490939 0.798086 -0.454790
N3    N     N_3   0.500250 0.143650 0.501060 -0.113124
N4    N     N_3   0.500250 0.856350 0.501060 -0.116023
O1    O     O_R   0.317570 0.620260 0.500030 -0.598533
O2    O     O_R   0.317570 0.379740 0.500030 -0.597163
O3    O     O_R   0.499900 0.620250 0.430280 -0.593548
O4    O     O_R   0.499900 0.379750 0.430280 -0.592481
O5    O     O_R   0.682190 0.620260 0.500010 -0.598176
O6    O     O_R   0.682190 0.379740 0.500010 -0.595975
O7    O     O_R   0.499860 0.620280 0.569750 -0.542670
O8    O     O_R   0.499860 0.379720 0.569750 -0.597331
O9    O     O_2   0.284949 0.542743 0.202920 -0.536733
O10   O     O_2   0.277178 0.504532 0.797448 -0.544104
O11   O     O_2   0.716133 0.451975 0.203081 -0.536879
O12   O     O_2   0.715199 0.476635 0.797395 -0.537525
O13   O     O_3   0.416027 0.742114 0.648929 -0.583475
C55   C     C_3   0.285150 0.737120 0.644137 -0.322395
H40   H     H_    0.238484 0.729457 0.679728 0.181246
H41   H     H_    0.255799 0.647473 0.620529 0.145389
H42   H     H_    0.253122 0.837141 0.627026 0.170462

loop_
_geom_bond_atom_site_label_1
_geom_bond_atom_site_label_2
_ccdc_geom_bond_type
C10   C27   A    
C21   C26   A    
C24   H5    S    
C53   H39   S    
C49   H31   S    
Cu2   N3    S    
Cu1   Cu2   S    
C19   N2    A    
C36   H11   S    
C52   C53   A    
Cu1   O3    S    
C23   C42   S    
C34   O8    A    
C28   C29   A    
Cu2   O2    S    
C38   C42   S    
C5    C6    A    
C9    C22   A    
C15   C16   A    
C23   O6    A    
C37   H12   S    
C47   N4    S    
C18   C19   A    
C25   H7    S    
C31   H3    S    
C15   H36   S    
C46   H26   S    
C44   N3    S    
C40   C43   S    
C20   N2    A    
C33   H6    S    
Cu1   O1    S    
C3    N1    S    
C47   H27   S    
C14   H37   S    
C16   C20   A    
C51   N1    A    
C55   H42   S    
C46   N3    S    
C38   H13   S    
C21   C22   A    
C27   C30   A    
C50   O9    S    
C47   H33   S    
C36   C41   S    
C4    C7    A    
C1    O1    A    
O13   C55   S    
C4    C28   A    
C39   C42   S    
C46   H32   S    
C38   H16   S    
C7    C31   A    
Cu1   O7    S    
C34   O7    A    
C49   H29   S    
C44   H24   S    
C24   C25   A    
C12   O4    A    
C2    C54   A    
C8    C54   A    
C36   H9    S    
C16   C17   A    
C25   C26   A    
C6    H34   S    
Cu1   O5    S    
C48   H28   S    
Cu2   O8    S    
C12   O3    A    
C49   N4    S    
C23   O5    A    
C8    C12   S    
C37   H10   S    
C17   C18   A    
C45   H23   S    
C35   H8    S    
C52   H2    S    
C1    C41   S    
C48   C49   S    
C6    C30   A    
C11   C32   A    
C51   O11   S    
C22   O13   S    
C45   N4    S    
C9    C34   S    
C31   C35   A    
C5    C50   A    
C42   C43   S    
C32   H4    S    
C2    H15   S    
C1    O2    A    
C44   C45   S    
C55   H40   S    
C21   H35   S    
C43   H20   S    
C46   C47   S    
C40   C41   S    
C45   H25   S    
Cu2   O4    S    
C4    C5    A    
C10   C13   A    
C8    C53   A    
C3    C52   A    
C9    C24   A    
C19   O12   S    
C43   H21   S    
C48   N3    S    
C29   C35   A    
C40   H19   S    
C13   C17   A    
C32   C33   A    
C36   C38   S    
C2    C3    A    
C7    C51   A    
C30   H38   S    
C11   C13   A    
C50   N1    A    
C44   H22   S    
C39   H14   S    
C40   H18   S    
C48   H30   S    
C39   H17   S    
C37   C41   S    
C18   C33   A    
Cu2   O6    S    
C26   N2    S    
C20   O10   S    
C11   C29   A    
C37   C39   S    
Cu1   N4    S    
C27   C28   A    
C14   C15   A    
C10   C14   A    
C55   H41   S    
C54   H1    S    
