data_mof_unit_65936.cif
_audit_creation_date              2012-12-10T16:51:50-0500
_audit_creation_method            fapswitch 2.2
_symmetry_space_group_name_H-M    P1
_symmetry_Int_Tables_number       1
_space_group_crystal_system       triclinic
_cell_length_a                    30.103371
_cell_length_b                    30.963527
_cell_length_c                    21.638835
_cell_angle_alpha                 90.079477
_cell_angle_beta                  135.095816
_cell_angle_gamma                 89.882347
_cell_volume                      14238.2307446

loop_
_atom_site_label
_atom_site_type_symbol
_atom_type_description
_atom_site_fract_x
_atom_site_fract_y
_atom_site_fract_z
_atom_type_partial_charge
C1    C     C_R   0.688804 0.809502 0.880674 0.934069
C2    C     C_R   0.522457 0.670873 0.998355 -0.216366
C3    C     C_R   0.663002 0.250256 0.999771 0.893391
C4    C     C_R   0.406985 0.788969 0.999269 -0.257401
C5    C     C_R   0.593467 0.788983 0.001989 -0.257632
C6    C     C_R   0.906872 0.288975 0.999037 -0.257550
C7    C     C_R   0.093341 0.288997 0.001725 -0.257712
C8    C     C_R   0.385510 0.749684 0.001654 -0.060535
C9    C     C_R   0.614711 0.749716 0.998806 -0.062441
C10   C     C_R   0.885520 0.249692 0.001665 -0.060563
C11   C     C_R   0.114712 0.249723 0.998798 -0.060701
C12   C     C_R   0.409558 0.710365 0.004098 -0.257376
C13   C     C_R   0.977880 0.170873 0.001640 -0.216149
C14   C     C_R   0.590568 0.710403 0.995851 -0.257931
C15   C     C_R   0.909696 0.210378 0.004353 -0.257506
C16   C     C_R   0.090701 0.210406 0.996099 -0.257216
C17   C     C_R   0.454775 0.710023 0.002209 0.120906
C18   C     C_R   0.545433 0.710042 0.997893 0.120867
C19   C     C_R   0.954915 0.210035 0.002468 0.121003
C20   C     C_R   0.045570 0.210049 0.998148 0.120846
C21   C     C_R   0.477211 0.749652 0.000841 0.057383
C22   C     C_R   0.523183 0.749659 0.999967 0.057598
C23   C     C_R   0.977222 0.249663 0.000848 0.057463
C24   C     C_R   0.022723 0.170880 0.998862 -0.216021
C25   C     C_R   0.023191 0.249669 0.999970 0.057474
C26   C     C_R   0.523771 0.828459 0.001630 -0.216877
C27   C     C_R   0.476947 0.828457 0.000502 -0.217715
C28   C     C_R   0.023520 0.328472 0.001122 -0.217667
C29   C     C_R   0.976700 0.328467 0.000005 -0.217666
C30   C     C_2   0.559165 0.873018 0.676708 -0.155946
C31   C     C_2   0.403641 0.909597 0.247744 -0.154582
C32   C     C_2   0.096565 0.409771 0.752367 -0.156265
C33   C     C_R   0.311501 0.809258 0.119778 0.933764
C34   C     C_2   0.903645 0.409600 0.247735 -0.156416
C35   C     C_2   0.590183 0.903045 0.675072 -0.332204
C36   C     C_2   0.400892 0.911872 0.306661 -0.329465
C37   C     C_2   0.099297 0.411918 0.693431 -0.330963
C38   C     C_2   0.900877 0.411886 0.306632 -0.330945
C39   C     C_2   0.593900 0.836853 0.738049 -0.158063
C40   C     C_2   0.363665 0.878809 0.175509 -0.156726
C41   C     C_2   0.136513 0.378958 0.824574 -0.156360
C42   C     C_2   0.863671 0.378809 0.175503 -0.156349
C43   C     C_2   0.652435 0.843218 0.816332 -0.338321
C44   C     C_R   0.188516 0.309266 0.880224 0.933853
C45   C     C_2   0.350555 0.840718 0.188519 -0.334744
C46   C     C_2   0.149520 0.340761 0.811501 -0.334715
C47   C     C_2   0.850556 0.340721 0.188516 -0.334670
C48   C     C_R   0.133014 0.749967 0.079390 -0.257354
C49   C     C_R   0.866909 0.749749 0.920464 -0.256874
C50   C     C_R   0.633015 0.249971 0.079391 -0.256713
C51   C     C_R   0.366910 0.249746 0.920465 -0.256943
C52   C     C_R   0.115172 0.751040 0.999696 -0.060811
C53   C     C_R   0.884757 0.750884 0.000164 -0.061785
C54   C     C_R   0.615172 0.251040 0.999696 -0.060894
C55   C     C_R   0.811502 0.309258 0.119778 0.933775
C56   C     C_R   0.384757 0.250885 0.000165 -0.060969
C57   C     C_R   0.051880 0.752663 0.920081 -0.258514
C58   C     C_R   0.948041 0.752583 0.079762 -0.258935
C59   C     C_R   0.551880 0.252660 0.920081 -0.258357
C60   C     C_R   0.448041 0.252587 0.079763 -0.258291
C61   C     C_R   0.662921 0.749864 0.999606 0.893782
C62   C     C_R   0.337129 0.749836 0.000500 0.893799
C63   C     C_R   0.162920 0.249868 0.999601 0.893744
C64   C     C_R   0.837134 0.249839 0.000506 0.893640
C65   C     C_R   0.005404 0.752246 0.919493 0.121679
C66   C     C_R   0.453612 0.789287 0.000220 0.122564
C67   C     C_R   0.994509 0.752226 0.080342 0.122046
C68   C     C_R   0.505404 0.252243 0.919493 0.121853
C69   C     C_R   0.494510 0.252230 0.080342 0.121799
C70   C     C_R   0.023142 0.751680 0.999870 0.057342
C71   C     C_R   0.976770 0.751633 0.999964 0.057385
C72   C     C_R   0.523143 0.251681 0.999871 0.057407
C73   C     C_R   0.476771 0.251634 0.999965 0.057432
C74   C     C_R   0.087254 0.750979 0.080155 0.121468
C75   C     C_R   0.912662 0.750819 0.919685 0.120528
C76   C     C_R   0.587254 0.250982 0.080156 0.121177
C77   C     C_R   0.546924 0.789294 0.001209 0.121642
C78   C     C_R   0.412663 0.250816 0.919687 0.121185
C79   C     C_R   0.941677 0.752087 0.840151 -0.216285
C80   C     C_R   0.058235 0.752182 0.159685 -0.216699
C81   C     C_R   0.441678 0.252081 0.840152 -0.216058
C82   C     C_R   0.558235 0.252190 0.159685 -0.216148
C83   C     C_R   0.895470 0.751057 0.840247 -0.216734
C84   C     C_R   0.104446 0.751241 0.159593 -0.217834
C85   C     C_R   0.395471 0.251051 0.840248 -0.217065
C86   C     C_R   0.604447 0.251248 0.159594 -0.217012
C87   C     C_2   0.903404 0.590197 0.247609 -0.157183
C88   C     C_R   0.953495 0.289296 0.999979 0.122692
C89   C     C_2   0.096387 0.590367 0.752290 -0.157161
C90   C     C_2   0.403404 0.090197 0.247609 -0.156951
C91   C     C_2   0.596288 0.090427 0.752189 -0.155465
C92   C     C_2   0.900779 0.588103 0.306656 -0.331716
C93   C     C_2   0.099046 0.588135 0.693278 -0.331782
C94   C     C_2   0.400778 0.088102 0.306655 -0.331870
C95   C     C_2   0.599040 0.088139 0.693276 -0.335801
C96   C     C_2   0.863418 0.620997 0.175377 -0.156414
C97   C     C_2   0.136400 0.621144 0.824547 -0.156254
C98   C     C_2   0.363418 0.120997 0.175377 -0.156349
C99   C     C_R   0.046800 0.289307 0.000951 0.122754
C100  C     C_2   0.636314 0.121187 0.824469 -0.156787
C101  C     C_2   0.850478 0.659221 0.188465 -0.338811
C102  C     C_2   0.149446 0.659261 0.811518 -0.338863
C103  C     C_2   0.350478 0.159221 0.188465 -0.338822
C104  C     C_2   0.649469 0.159271 0.811508 -0.339059
C105  C     C_R   0.060913 0.558381 0.621060 0.929429
C106  C     C_R   0.939031 0.558377 0.378931 0.929435
C107  C     C_R   0.560912 0.058381 0.621059 0.934320
C108  C     C_R   0.439031 0.058377 0.378930 0.929561
C109  C     C_R   0.811466 0.690713 0.119729 0.934591
C110  C     C_R   0.477613 0.670862 0.001132 -0.215974
C111  C     C_R   0.188516 0.690720 0.880269 0.934360
C112  C     C_R   0.311466 0.190713 0.119729 0.934381
C113  C     C_R   0.688524 0.190723 0.880269 0.934461
C114  C     C_R   0.558671 0.939362 0.616456 0.929271
C115  C     C_R   0.439040 0.941611 0.378898 0.924467
C116  C     C_R   0.061018 0.441618 0.621115 0.929175
C117  C     C_R   0.939037 0.441614 0.378893 0.929158
C118  C     C_R   0.836966 0.750208 0.000167 0.893452
C119  C     C_R   0.163001 0.750256 0.999771 0.893219
C120  C     C_R   0.336966 0.250208 0.000167 0.893358
H1    H     H_    0.388028 0.819159 0.998098 0.145732
H2    H     H_    0.072261 0.752530 0.221653 0.148449
H3    H     H_    0.427649 0.252401 0.778183 0.148804
H4    H     H_    0.572261 0.252540 0.221653 0.148777
H5    H     H_    0.846374 0.750589 0.778348 0.149076
H6    H     H_    0.153546 0.750856 0.221494 0.147496
H7    H     H_    0.346375 0.250580 0.778349 0.148212
H8    H     H_    0.653547 0.250866 0.221495 0.148220
H9    H     H_    0.933003 0.568283 0.250358 0.164192
H10   H     H_    0.066793 0.568559 0.749538 0.164232
H11   H     H_    0.433004 0.068283 0.250357 0.164321
H12   H     H_    0.612501 0.819172 0.003583 0.149397
H13   H     H_    0.566603 0.068676 0.749343 0.167303
H14   H     H_    0.865976 0.606493 0.298200 0.158045
H15   H     H_    0.133852 0.606414 0.701758 0.158001
H16   H     H_    0.365975 0.106492 0.298199 0.157959
H17   H     H_    0.633915 0.106370 0.701842 0.158071
H18   H     H_    0.846711 0.612976 0.112862 0.166584
H19   H     H_    0.153076 0.613189 0.887046 0.166541
H20   H     H_    0.346712 0.112976 0.112862 0.166637
H21   H     H_    0.652900 0.113255 0.886920 0.167131
H22   H     H_    0.873028 0.669163 0.253479 0.157996
H23   H     H_    0.887821 0.319163 0.997679 0.145755
H24   H     H_    0.126921 0.669170 0.746517 0.157928
H25   H     H_    0.373028 0.169163 0.253479 0.157984
H26   H     H_    0.627023 0.169169 0.746540 0.158077
H27   H     H_    0.391868 0.680204 0.005247 0.149750
H28   H     H_    0.608088 0.680249 0.994117 0.150202
H29   H     H_    0.892103 0.180218 0.005688 0.149677
H30   H     H_    0.108320 0.180250 0.994560 0.149969
H31   H     H_    0.460521 0.640304 0.001897 0.149205
H32   H     H_    0.539413 0.640323 0.997057 0.149153
H33   H     H_    0.960888 0.140316 0.002600 0.148912
H34   H     H_    0.112275 0.319188 0.003114 0.145809
H35   H     H_    0.039779 0.140329 0.997759 0.149088
H36   H     H_    0.541629 0.859015 0.002356 0.148020
H37   H     H_    0.459206 0.859011 0.000271 0.146689
H38   H     H_    0.041274 0.359029 0.001646 0.146349
H39   H     H_    0.958860 0.359020 0.999581 0.146339
H40   H     H_    0.508302 0.874224 0.631380 0.165105
H41   H     H_    0.433303 0.931368 0.250572 0.163542
H42   H     H_    0.066882 0.431637 0.749525 0.163512
H43   H     H_    0.933327 0.431358 0.250584 0.163496
H44   H     H_    0.639783 0.899100 0.713002 0.157630
H45   H     H_    0.039041 0.753183 0.858905 0.148793
H46   H     H_    0.366034 0.893627 0.298112 0.156276
H47   H     H_    0.134169 0.393571 0.701982 0.157619
H48   H     H_    0.865999 0.393653 0.298055 0.157718
H49   H     H_    0.570629 0.805889 0.720717 0.166171
H50   H     H_    0.347075 0.886729 0.113050 0.162899
H51   H     H_    0.153130 0.386940 0.887047 0.162950
H52   H     H_    0.847089 0.386724 0.113047 0.162854
H53   H     H_    0.182474 0.749094 0.140525 0.147665
H54   H     H_    0.817453 0.748821 0.859339 0.149931
H55   H     H_    0.682475 0.249100 0.140526 0.148071
H56   H     H_    0.960887 0.753153 0.140945 0.148791
H57   H     H_    0.317454 0.248815 0.859341 0.148119
H58   H     H_    0.672834 0.875385 0.837353 0.158427
H59   H     H_    0.373010 0.830832 0.253498 0.156123
H60   H     H_    0.127045 0.330845 0.746509 0.156522
H61   H     H_    0.873004 0.330840 0.253493 0.156492
H62   H     H_    0.539042 0.253177 0.858906 0.148760
H63   H     H_    0.460888 0.253160 0.140945 0.148800
H64   H     H_    0.927648 0.752410 0.778182 0.148983
O1    O     O_R   0.679230 0.769690 0.858450 -0.618214
O2    O     O_R   0.492070 0.954750 0.409550 -0.618965
O3    O     O_R   0.007930 0.454750 0.590450 -0.619239
O4    O     O_R   0.992070 0.454750 0.409550 -0.619339
O5    O     O_R   0.582530 0.954770 0.590430 -0.621872
O6    O     O_R   0.417470 0.954770 0.409570 -0.626648
O7    O     O_R   0.082530 0.454770 0.590430 -0.621973
O8    O     O_R   0.917470 0.454770 0.409570 -0.621932
O9    O     O_R   0.730270 0.820760 0.960570 -0.624910
O10   O     O_R   0.269730 0.820760 0.039430 -0.617530
O11   O     O_R   0.230270 0.320760 0.960570 -0.617524
O12   O     O_R   0.320770 0.769690 0.141550 -0.625401
O13   O     O_R   0.769730 0.320760 0.039430 -0.617551
O14   O     O_R   0.658400 0.724440 0.948940 -0.625681
O15   O     O_R   0.341600 0.724440 0.051060 -0.622408
O16   O     O_R   0.158400 0.224440 0.948940 -0.622557
O17   O     O_R   0.841600 0.224440 0.051060 -0.622644
O18   O     O_R   0.709450 0.775510 0.051050 -0.623216
O19   O     O_R   0.290550 0.775510 0.948950 -0.626219
O20   O     O_R   0.209450 0.275510 0.051050 -0.626230
O21   O     O_R   0.790550 0.275510 0.948950 -0.626198
O22   O     O_R   0.769710 0.679220 0.039380 -0.618122
O23   O     O_R   0.179230 0.269690 0.858450 -0.625278
O24   O     O_R   0.230290 0.679220 0.960620 -0.618035
O25   O     O_R   0.269710 0.179220 0.039380 -0.618073
O26   O     O_R   0.730290 0.179220 0.960620 -0.618024
O27   O     O_R   0.820750 0.730290 0.141500 -0.624617
O28   O     O_R   0.179250 0.730290 0.858500 -0.624752
O29   O     O_R   0.320750 0.230290 0.141500 -0.624744
O30   O     O_R   0.679250 0.230290 0.858500 -0.624736
O31   O     O_R   0.790530 0.724470 0.948890 -0.625583
O32   O     O_R   0.209470 0.724470 0.051110 -0.626792
O33   O     O_R   0.290530 0.224470 0.948890 -0.626659
O34   O     O_R   0.820770 0.269690 0.141550 -0.625300
O35   O     O_R   0.709470 0.224470 0.051110 -0.626501
O36   O     O_R   0.841580 0.775540 0.051010 -0.623217
O37   O     O_R   0.158420 0.775540 0.948990 -0.621997
O38   O     O_R   0.341580 0.275540 0.051010 -0.621964
O39   O     O_R   0.658420 0.275540 0.948990 -0.622036
O40   O     O_R   0.007900 0.545210 0.590430 -0.619276
O41   O     O_R   0.992100 0.545210 0.409570 -0.619309
O42   O     O_R   0.507900 0.045210 0.590430 -0.615576
O43   O     O_R   0.492100 0.045210 0.409570 -0.619212
O44   O     O_R   0.082500 0.545230 0.590410 -0.622027
O45   O     O_R   0.917500 0.545230 0.409590 -0.621910
O46   O     O_R   0.582500 0.045230 0.590410 -0.622131
O47   O     O_R   0.417500 0.045230 0.409590 -0.621942
O48   O     O_R   0.507930 0.954750 0.590450 -0.619418
Zn1   Zn    Zn3+2 0.715910 0.715890 0.931790 0.950438
Zn2   Zn    Zn3+2 0.549820 0.999980 0.500010 0.952848
Zn3   Zn    Zn3+2 0.950180 0.499980 0.499990 0.952801
Zn4   Zn    Zn3+2 0.049820 0.499980 0.500010 0.952476
Zn5   Zn    Zn3+2 0.284090 0.715890 0.068210 0.952327
Zn6   Zn    Zn3+2 0.215910 0.215890 0.931790 0.952542
Zn7   Zn    Zn3+2 0.784090 0.215890 0.068210 0.952684
Zn8   Zn    Zn3+2 0.784070 0.784090 0.068160 0.954484
Zn9   Zn    Zn3+2 0.215930 0.784090 0.931840 0.953266
Zn10  Zn    Zn3+2 0.284070 0.284090 0.068160 0.953218
Zn11  Zn    Zn3+2 0.715930 0.284090 0.931840 0.953266
Zn12  Zn    Zn3+2 0.450180 0.999980 0.499990 0.952147

loop_
_geom_bond_atom_site_label_1
_geom_bond_atom_site_label_2
_ccdc_geom_bond_type
O1    Zn1   S    
C64   O17   A    
C31   H41   S    
C43   H58   S    
O6    Zn12  S    
C65   C79   A    
O10   Zn9   S    
C21   C66   A    
C2    C18   A    
C33   C45   S    
C14   C18   A    
C26   H36   S    
O31   Zn1   S    
C100  C104  D    
C50   C76   A    
C47   H61   S    
C75   C83   A    
C17   C110  A    
C40   H50   S    
O38   Zn10  S    
C37   H47   S    
C37   C116  S    
C80   H2    S    
C31   C40   S    
C30   H40   S    
C41   H51   S    
C94   C108  S    
C26   C27   A    
C50   C54   A    
C7    C99   A    
C30   C35   D    
C81   H3    S    
O22   Zn1   S    
C9    C61   S    
O32   Zn5   S    
C113  O30   A    
C12   H27   S    
O29   Zn10  S    
O40   Zn3   S    
C62   O15   A    
C11   C63   S    
C100  H21   S    
C114  O48   A    
C61   O18   A    
C3    C54   S    
C57   H45   S    
C20   C25   A    
C101  C109  S    
C65   C70   A    
C107  O42   A    
C14   H28   S    
C119  O37   A    
C6    C88   A    
C63   O16   A    
C35   C114  S    
C51   C56   A    
C101  H22   S    
C105  O44   A    
O35   Zn7   S    
C4    C8    A    
C111  O28   A    
C29   C88   A    
C69   C82   A    
O23   Zn6   S    
C93   C105  S    
C15   C19   A    
C115  O6    A    
C1    C43   S    
C5    H12   S    
C2    C110  A    
C20   C24   A    
C33   O12   A    
O39   Zn11  S    
C34   C42   S    
C32   H42   S    
C12   C17   A    
C70   C74   A    
C94   H16   S    
C41   C46   D    
C49   C75   A    
C69   C73   A    
C118  O31   A    
C91   C100  S    
C79   H64   S    
C97   C102  D    
O4    Zn4   S    
C24   H35   S    
C8    C12   A    
O12   Zn5   S    
C60   H63   S    
C119  O32   A    
C114  O5    A    
C34   C38   D    
C21   C22   A    
C84   H6    S    
C38   C117  S    
C102  C111  S    
C61   O14   A    
C102  H24   S    
O34   Zn7   S    
C83   H5    S    
O37   Zn9   S    
O15   Zn5   S    
C82   H4    S    
C49   H54   S    
C44   C46   S    
C90   C94   D    
C55   O34   A    
C54   C59   A    
C2    H32   S    
C40   C45   D    
C116  O3    A    
C10   C64   S    
C95   H17   S    
C26   C77   A    
C63   O20   A    
C13   C19   A    
C86   H8    S    
C80   C84   A    
C104  H26   S    
O25   Zn6   S    
C4    H1    S    
C29   H39   S    
C110  H31   S    
C52   C57   A    
C57   C65   A    
C115  O2    A    
C53   C118  S    
C120  O33   A    
C96   H18   S    
C39   C43   D    
O7    Zn4   S    
C82   C86   A    
C73   C78   A    
O14   Zn1   S    
C44   O23   A    
C17   C21   A    
C89   H10   S    
C56   C60   A    
C13   C24   A    
C98   H20   S    
C50   H55   S    
O45   Zn3   S    
C59   H62   S    
C7    C11   A    
C9    C14   A    
O9    Zn8   S    
C5    C9    A    
O28   Zn9   S    
C117  O8    A    
C48   C74   A    
C59   C68   A    
C11   C16   A    
C58   C67   A    
O42   Zn12  S    
C91   H13   S    
C68   C72   A    
C120  O38   A    
C87   C96   S    
C46   H60   S    
C28   H38   S    
C106  O41   A    
C72   C76   A    
C1    O9    A    
C109  O27   A    
C16   C20   A    
C32   C37   D    
O5    Zn2   S    
C13   H33   S    
C70   C71   A    
C95   C107  S    
O19   Zn9   S    
C90   H11   S    
C78   C85   A    
C92   C106  S    
C116  O7    A    
C71   C75   A    
C33   O10   A    
C34   H43   S    
C23   C88   A    
C118  O36   A    
O18   Zn8   S    
C85   H7    S    
C68   C81   A    
C32   C41   S    
C5    C77   A    
C28   C29   A    
C76   C86   A    
C15   H29   S    
C87   C92   D    
C103  H25   S    
O8    Zn3   S    
C47   C55   S    
C48   H53   S    
O43   Zn2   S    
O13   Zn11  S    
C44   O11   A    
C3    O39   A    
O48   Zn12  S    
O41   Zn4   S    
O11   Zn10  S    
C58   H56   S    
C67   C80   A    
C42   H52   S    
C22   C77   A    
C74   C84   A    
C72   C73   A    
C93   H15   S    
C117  O4    A    
O24   Zn5   S    
C113  O26   A    
O20   Zn10  S    
C53   C58   A    
C56   C120  S    
C108  O43   A    
C1    O1    A    
C27   H37   S    
C105  O40   A    
C64   O21   A    
C35   H44   S    
C106  O45   A    
C10   C15   A    
O3    Zn3   S    
O26   Zn7   S    
C87   H9    S    
C18   C22   A    
O47   Zn12  S    
C51   C78   A    
C51   H57   S    
C39   H49   S    
C27   C66   A    
O21   Zn11  S    
C112  O25   A    
O17   Zn7   S    
C79   C83   A    
C25   C99   A    
C112  O29   A    
C55   O13   A    
C7    H34   S    
C60   C69   A    
O30   Zn11  S    
C49   C53   A    
C111  O24   A    
C97   H19   S    
C30   C39   S    
O46   Zn2   S    
C67   C71   A    
C42   C47   D    
C23   C25   A    
C89   C93   D    
C109  O22   A    
O16   Zn6   S    
C62   O19   A    
O44   Zn4   S    
C103  C112  S    
C6    C10   A    
C45   H59   S    
C91   C95   D    
C104  C113  S    
O27   Zn8   S    
C52   C119  S    
C19   C23   A    
C48   C52   A    
C38   H48   S    
C4    C66   A    
C3    O35   A    
C36   H46   S    
C107  O46   A    
C89   C97   S    
C28   C99   A    
C31   C36   D    
O36   Zn8   S    
C16   H30   S    
C6    H23   S    
C96   C101  D    
C36   C115  S    
O33   Zn6   S    
C90   C98   S    
C81   C85   A    
C92   H14   S    
C98   C103  D    
C8    C62   S    
O2    Zn2   S    
C108  O47   A    
