data_mof_unit_34382.cif
_audit_creation_date              2012-12-10T17:11:04-0500
_audit_creation_method            fapswitch 2.2
_symmetry_space_group_name_H-M    P1
_symmetry_Int_Tables_number       1
_space_group_crystal_system       triclinic
_cell_length_a                    10.200334
_cell_length_b                    10.694827
_cell_length_c                    16.859403
_cell_angle_alpha                 93.317522
_cell_angle_beta                  83.198894
_cell_angle_gamma                 90.067785
_cell_volume                      1823.17346476

loop_
_atom_site_label
_atom_site_type_symbol
_atom_type_description
_atom_site_fract_x
_atom_site_fract_y
_atom_site_fract_z
_atom_type_partial_charge
C1    C     C_R   0.499878 0.736987 0.499803 0.901965
C2    C     C_R   0.533640 0.477388 0.260902 -0.195022
C3    C     C_2   0.616992 0.060933 0.472281 0.520249
C4    C     C_R   0.479575 0.500660 0.652180 0.929441
C5    C     C_2   0.506112 0.129989 0.475401 -0.430299
C6    C     C_2   0.602697 0.926069 0.460350 -0.296890
C7    C     C_2   0.500233 0.869780 0.499504 -0.341417
C8    C     C_2   0.084025 0.445975 0.443870 0.094248
C9    C     C_2   0.934950 0.428668 0.451858 0.099479
C10   C     C_R   0.501235 0.262324 0.495839 0.975305
C11   C     C_R   0.520402 0.495558 0.347411 0.872252
C12   C     C_R   0.381577 0.424434 0.780892 0.428121
C13   C     C_R   0.462130 0.510105 0.738213 -0.118529
C14   C     C_R   0.521870 0.609640 0.777016 -0.295021
C15   C     C_R   0.503339 0.624335 0.859414 -0.187980
C16   C     C_R   0.424963 0.539589 0.903374 -0.090788
C17   C     C_R   0.360372 0.440134 0.864781 0.375014
C18   C     C_3   0.843262 0.084336 0.446718 0.064168
C19   C     C_3   0.965790 0.117650 0.487639 -0.294571
C20   C     C_3   0.091017 0.109338 0.428256 -0.990666
C21   C     C_3   0.126103 0.609221 0.618513 0.254991
C22   C     C_3   0.107542 0.584275 0.707711 -0.377901
C23   C     C_R   0.428304 0.406037 0.144986 0.561796
C24   C     C_3   0.160058 0.691901 0.758274 -0.983201
C25   C     C_3   0.837114 0.672438 0.584355 0.252929
C26   C     C_3   0.857001 0.814667 0.586103 -0.443265
C27   C     C_3   0.817792 0.875973 0.669487 -0.924708
C28   C     C_3   0.726967 0.700221 0.267221 0.119761
C29   C     C_3   0.777080 0.784680 0.199984 -0.376364
C30   C     C_3   0.769677 0.922640 0.229090 -0.972597
C31   C     C_3   0.199882 0.393917 0.143939 0.115207
C32   C     C_3   0.119445 0.289529 0.184758 -0.390218
C33   C     C_3   0.981830 0.335484 0.219644 -0.910368
C34   C     C_R   0.430739 0.415109 0.227368 -0.381776
C35   C     C_3   0.267095 0.689441 0.016334 0.054284
C36   C     C_3   0.190440 0.768451 0.084830 -0.316835
C37   C     C_3   0.089366 0.853063 0.054255 -0.961520
C38   C     C_R   0.643569 0.520491 0.211457 0.506169
C39   C     C_R   0.645584 0.503886 0.128757 -0.359450
C40   C     C_R   0.536683 0.451548 0.096136 -0.065320
C41   C     C_2   0.436840 0.539591 0.989125 0.390433
C42   C     C_2   0.527482 0.461105 0.011057 0.416596
H1    H     H_    0.583315 0.675559 0.743323 0.153367
H2    H     H_    0.839718 0.141308 0.393840 0.136930
H3    H     H_    0.853888 0.984231 0.425925 0.116728
H4    H     H_    0.955604 0.213134 0.516871 0.241208
H5    H     H_    0.975125 0.052570 0.535555 0.221479
H6    H     H_    0.107168 0.011650 0.402858 0.268608
H7    H     H_    0.177036 0.138268 0.459410 0.281724
H8    H     H_    0.083584 0.172266 0.378828 0.253287
H9    H     H_    0.073492 0.694896 0.609762 0.102643
H10   H     H_    0.225568 0.639483 0.599303 0.182634
H11   H     H_    0.001374 0.570983 0.728546 0.216177
H12   H     H_    0.728645 0.538150 0.090013 0.172114
H13   H     H_    0.159071 0.496437 0.717133 0.276527
H14   H     H_    0.265794 0.708824 0.738058 0.267213
H15   H     H_    0.150300 0.668213 0.821975 0.269154
H16   H     H_    0.102986 0.778917 0.753464 0.269151
H17   H     H_    0.873643 0.629997 0.635591 0.121426
H18   H     H_    0.732692 0.658993 0.596651 0.186680
H19   H     H_    0.960565 0.838637 0.565165 0.217723
H20   H     H_    0.795371 0.854919 0.544218 0.257900
H21   H     H_    0.711657 0.859468 0.688957 0.261549
H22   H     H_    0.834233 0.978539 0.668394 0.290948
H23   H     H_    0.415924 0.088215 0.457750 0.120241
H24   H     H_    0.878258 0.837487 0.713074 0.258418
H25   H     H_    0.782555 0.722310 0.319056 0.178985
H26   H     H_    0.621014 0.721503 0.288362 0.107120
H27   H     H_    0.881144 0.759636 0.177776 0.239120
H28   H     H_    0.716528 0.769971 0.149669 0.224970
H29   H     H_    0.666667 0.949289 0.252968 0.268796
H30   H     H_    0.802727 0.981671 0.178522 0.274804
H31   H     H_    0.834974 0.940855 0.276666 0.250896
H32   H     H_    0.667625 0.338838 0.982451 0.340017
H33   H     H_    0.259735 0.387673 0.962750 0.348318
H34   H     H_    0.681051 0.870692 0.426150 0.146839
H35   H     H_    0.147322 0.424735 0.094370 0.159381
H36   H     H_    0.202975 0.477951 0.186153 0.136042
H37   H     H_    0.109807 0.210004 0.140397 0.246266
H38   H     H_    0.171084 0.254757 0.233597 0.211088
H39   H     H_    0.988920 0.415012 0.264281 0.272351
H40   H     H_    0.926878 0.258326 0.249798 0.252169
H41   H     H_    0.926161 0.366127 0.171336 0.286251
H42   H     H_    0.273164 0.273488 0.776078 0.382059
H43   H     H_    0.196398 0.627444 0.987462 0.137648
H44   H     H_    0.315740 0.753814 0.972415 0.164674
H45   H     H_    0.419229 0.920974 0.534638 0.154580
H46   H     H_    0.138709 0.705792 0.128600 0.211788
H47   H     H_    0.260520 0.827586 0.115974 0.236815
H48   H     H_    0.138940 0.915779 0.009835 0.279534
H49   H     H_    0.038490 0.911995 0.105024 0.268742
H50   H     H_    0.014612 0.795754 0.026052 0.264072
H51   H     H_    0.140231 0.409718 0.388725 0.050226
H52   H     H_    0.896030 0.354766 0.414915 0.057969
H53   H     H_    0.350540 0.375385 0.265577 0.173434
H54   H     H_    0.554849 0.698476 0.889333 0.163432
N1    N     N_2   0.147950 0.498670 0.499150 0.070984
N2    N     N_2   0.852290 0.498640 0.499130 0.076999
O1    O     O_R   0.386960 0.680940 0.500010 -0.655169
O2    O     O_3   0.080008 0.505621 0.573271 -0.550412
O3    O     O_3   0.897708 0.616864 0.510542 -0.556797
O4    O     O_3   0.752023 0.572779 0.242663 -0.644527
O5    O     O_3   0.610177 0.391289 0.954138 -0.766202
O6    O     O_3   0.281939 0.354914 0.906793 -0.776231
O7    O     O_3   0.325715 0.346936 0.110260 -0.647229
O8    O     O_3   0.328465 0.325577 0.738818 -0.769686
O9    O     O_3   0.362749 0.617319 0.047552 -0.683987
O10   O     O_R   0.613100 0.680900 0.499990 -0.631901
O11   O     O_R   0.373570 0.500040 0.615810 -0.608396
O12   O     O_R   0.599710 0.500000 0.615790 -0.654183
O13   O     O_R   0.386900 0.319100 0.500010 -0.613098
O14   O     O_R   0.613040 0.319060 0.499990 -0.570190
O15   O     O_R   0.400290 0.500000 0.384210 -0.637857
O16   O     O_R   0.626430 0.499960 0.384190 -0.590864
O17   O     O_3   0.729513 0.109236 0.501901 -0.599240
Zn1   Zn    Zn3+2 0.349000 0.500030 0.500020 0.964520
Zn2   Zn    Zn3+2 0.651000 0.499970 0.499980 0.983554

loop_
_geom_bond_atom_site_label_1
_geom_bond_atom_site_label_2
_ccdc_geom_bond_type
C36   H47   S    
C4    O11   A    
C9    N2    D    
C41   C42   D    
C6    C7    D    
C35   C36   S    
C3    C6    S    
C42   O5    S    
C1    O1    A    
C30   H29   S    
C19   H4    S    
C36   H46   S    
C26   C27   S    
C29   C30   S    
C37   H48   S    
C31   H36   S    
C36   C37   S    
C28   H26   S    
C26   H19   S    
O1    Zn1   S    
O14   Zn2   S    
C35   H44   S    
C19   H5    S    
C39   H12   S    
C23   C40   A    
C23   O7    S    
C18   C19   S    
C4    C13   S    
C11   O16   A    
C20   H8    S    
O11   Zn1   S    
C7    H45   S    
C19   C20   S    
C24   H15   S    
C12   C17   A    
H42   O8    S    
C10   O14   A    
O13   Zn1   S    
C25   H18   S    
C33   H40   S    
O15   Zn1   S    
C2    C34   A    
C40   C42   S    
C13   C14   A    
C31   O7    S    
C2    C11   S    
O12   Zn2   S    
C31   H35   S    
C22   H11   S    
C29   H27   S    
C38   C39   A    
C37   H49   S    
C28   H25   S    
C34   H53   S    
C5    H23   S    
C15   H54   S    
C30   H31   S    
C8    C9    S    
C25   C26   S    
C8    N1    D    
C20   H7    S    
C18   H2    S    
C32   H38   S    
C2    C38   A    
C31   C32   S    
C23   C34   A    
C10   O13   A    
N1    Zn1   S    
C33   H41   S    
C20   H6    S    
C27   H21   S    
H33   O6    S    
C22   C24   S    
C18   H3    S    
C21   H9    S    
N1    O2    S    
N2    Zn2   S    
C29   H28   S    
C21   O2    S    
C4    O12   A    
C28   C29   S    
C41   O9    S    
C37   H50   S    
C1    C7    S    
O10   Zn2   S    
C17   O6    S    
C8    H51   S    
C3    C5    D    
C18   O17   S    
C30   H30   S    
C6    H34   S    
C22   H13   S    
C24   H14   S    
N2    O3    S    
C32   C33   S    
C26   H20   S    
C5    C10   S    
C38   O4    S    
C27   H24   S    
C3    O17   S    
C32   H37   S    
C12   O8    S    
C35   H43   S    
C25   O3    S    
C16   C17   A    
C9    H52   S    
C11   O15   A    
O16   Zn2   S    
C35   O9    S    
C27   H22   S    
C1    O10   A    
C39   C40   A    
C28   O4    S    
C12   C13   A    
C24   H16   S    
C14   C15   A    
C14   H1    S    
C25   H17   S    
C21   C22   S    
C33   H39   S    
C16   C41   S    
C21   H10   S    
C15   C16   A    
H32   O5    S    
