data_mof_unit_65009.cif
_audit_creation_date              2012-12-10T19:50:19-0500
_audit_creation_method            fapswitch 2.2
_symmetry_space_group_name_H-M    P1
_symmetry_Int_Tables_number       1
_space_group_crystal_system       triclinic
_cell_length_a                    36.727611
_cell_length_b                    18.275006
_cell_length_c                    18.274386
_cell_angle_alpha                 90.001488
_cell_angle_beta                  119.689116
_cell_angle_gamma                 89.995358
_cell_volume                      10655.5440519

loop_
_atom_site_label
_atom_site_type_symbol
_atom_type_description
_atom_site_fract_x
_atom_site_fract_y
_atom_site_fract_z
_atom_type_partial_charge
C1    C     C_R   0.499951 0.999999 0.358734 0.931954
C2    C     C_1   0.336954 0.998547 0.330786 -0.013707
C3    C     C_3   0.811073 0.758959 0.316932 -0.821201
C4    C     C_3   0.793120 0.312027 0.356047 0.096742
C5    C     C_3   0.800355 0.237925 0.327616 -0.821001
C6    C     C_3   0.204855 0.695318 0.682557 0.111681
C7    C     C_3   0.189029 0.758121 0.713842 -0.820434
C8    C     C_3   0.680163 0.063997 0.854311 -0.720326
C9    C     C_3   0.330715 0.889465 0.205666 -0.688373
C10   C     C_3   0.319841 0.058471 0.143743 -0.720663
C11   C     C_3   0.669294 0.893434 0.797799 -0.688644
C12   C     C_3   0.180148 0.553806 0.857710 -0.720581
C13   C     C_1   0.163047 0.498434 0.669133 -0.013881
C14   C     C_3   0.830675 0.401067 0.196034 -0.689137
C15   C     C_3   0.819836 0.574057 0.149746 -0.720064
C16   C     C_3   0.169279 0.386223 0.791274 -0.688034
C17   C     C_1   0.836956 0.498885 0.330637 -0.013881
C18   C     C_1   0.625596 0.999702 0.628246 -0.212231
C19   C     C_1   0.374404 0.999693 0.371769 -0.212265
C20   C     C_1   0.125597 0.499659 0.628191 -0.212374
C21   C     C_1   0.874404 0.499766 0.371710 -0.212136
C22   C     C_1   0.499878 0.999997 0.282250 -0.197778
C23   C     C_1   0.500122 0.000000 0.717750 -0.197791
C24   C     C_1   0.999877 0.499996 0.282250 -0.197876
C25   C     C_R   0.500049 0.000000 0.641266 0.931923
C26   C     C_1   0.000122 0.500001 0.717749 -0.197715
C27   C     C_1   0.499864 0.999997 0.217497 -0.194085
C28   C     C_1   0.500136 0.999999 0.782503 -0.194090
C29   C     C_1   0.999864 0.499996 0.217497 -0.194177
C30   C     C_1   0.000136 0.500000 0.782503 -0.194024
C31   C     C_R   0.000001 0.141041 0.000002 0.933746
C32   C     C_R   0.999999 0.858959 0.999998 0.934805
C33   C     C_R   0.500001 0.641041 0.000002 0.933753
C34   C     C_R   0.499999 0.358959 0.999998 0.934791
C35   C     C_R   0.918785 0.000056 0.918871 0.906572
C36   C     C_R   0.999951 0.499999 0.358734 0.931854
C37   C     C_R   0.081214 0.000059 0.081129 0.906586
C38   C     C_R   0.418785 0.500065 0.918871 0.906586
C39   C     C_R   0.581215 0.500048 0.081129 0.906563
C40   C     C_R   0.500001 0.858708 0.000002 0.934564
C41   C     C_R   0.499999 0.141292 0.999998 0.935222
C42   C     C_R   0.000001 0.358708 0.000002 0.934570
C43   C     C_R   0.999999 0.641292 0.999998 0.935218
C44   C     C_R   0.499952 0.999998 0.141170 0.935389
C45   C     C_R   0.500048 0.999999 0.858830 0.935410
C46   C     C_R   0.999952 0.499998 0.141170 0.935407
C47   C     C_R   0.000049 0.500000 0.641266 0.932037
C48   C     C_R   0.000048 0.500000 0.858830 0.935395
C49   C     C_1   0.000003 0.217493 0.000005 -0.196119
C50   C     C_1   0.999997 0.782507 0.999995 -0.194802
C51   C     C_1   0.500003 0.717493 0.000005 -0.196114
C52   C     C_1   0.499997 0.282507 0.999995 -0.194810
C53   C     C_R   0.581199 0.999976 0.581114 0.903849
C54   C     C_R   0.418801 0.999979 0.418881 0.903889
C55   C     C_R   0.081199 0.499973 0.581116 0.903931
C56   C     C_R   0.918800 0.499985 0.418885 0.903867
C57   C     C_1   0.500004 0.782256 0.000005 -0.193178
C58   C     C_1   0.836814 0.999298 0.838727 -0.029150
C59   C     C_1   0.499996 0.217744 0.999995 -0.191625
C60   C     C_1   0.000004 0.282256 0.000005 -0.193187
C61   C     C_1   0.999996 0.717744 0.999995 -0.191616
C62   C     C_3   0.725186 0.071341 0.702051 0.249987
C63   C     C_3   0.274450 0.937039 0.319190 0.270136
C64   C     C_3   0.274796 0.072119 0.295655 0.249948
C65   C     C_3   0.725561 0.935559 0.682855 0.270266
C66   C     C_3   0.225200 0.572690 0.706265 0.250064
C67   C     C_3   0.774439 0.433010 0.313207 0.270246
C68   C     C_3   0.774819 0.569718 0.302161 0.250001
C69   C     C_1   0.163185 0.999255 0.161291 -0.029150
C70   C     C_3   0.225559 0.438300 0.679117 0.270079
C71   C     C_3   0.773996 0.940702 0.724652 -0.473347
C72   C     C_3   0.226337 0.075026 0.240639 -0.507275
C73   C     C_3   0.226013 0.942343 0.277203 -0.473119
C74   C     C_3   0.773644 0.074484 0.756978 -0.507186
C75   C     C_3   0.273996 0.443766 0.721258 -0.473108
C76   C     C_3   0.726363 0.573283 0.247447 -0.507109
C77   C     C_3   0.726004 0.437790 0.271717 -0.473425
C78   C     C_3   0.273659 0.575411 0.761357 -0.506953
C79   C     C_1   0.874314 0.999756 0.874893 -0.196143
C80   C     C_1   0.336815 0.499217 0.838687 -0.029159
C81   C     C_1   0.125685 0.999742 0.125111 -0.196119
C82   C     C_1   0.374316 0.499732 0.874885 -0.196107
C83   C     C_1   0.625686 0.499789 0.125103 -0.196146
C84   C     C_3   0.708814 0.997295 0.718603 0.158634
C85   C     C_3   0.291185 0.997072 0.281489 0.158634
C86   C     C_3   0.208816 0.496856 0.718399 0.158688
C87   C     C_3   0.791186 0.497756 0.281237 0.158579
C88   C     C_3   0.791108 0.998457 0.795583 0.195148
C89   C     C_3   0.208891 0.998359 0.204464 0.195104
C90   C     C_3   0.291110 0.498265 0.795477 0.194998
C91   C     C_1   0.663187 0.499393 0.161246 -0.029159
C92   C     C_3   0.708892 0.498669 0.204337 0.195146
C93   C     C_3   0.775930 0.978215 0.858403 -0.500073
C94   C     C_3   0.224073 0.975672 0.142327 -0.500138
C95   C     C_3   0.275923 0.473511 0.856968 -0.500177
C96   C     C_3   0.724064 0.483111 0.140436 -0.500023
C97   C     C_3   0.727002 0.986012 0.817854 0.447262
C98   C     C_3   0.273002 0.983198 0.182643 0.447347
C99   C     C_3   0.226995 0.480824 0.816844 0.447337
C100  C     C_3   0.772994 0.491336 0.181460 0.447350
C101  C     C_3   0.706861 0.816258 0.632789 0.096947
C102  C     C_1   0.663045 0.998645 0.669264 -0.013753
C103  C     C_3   0.699659 0.740143 0.656736 -0.821922
C104  C     C_3   0.295016 0.194672 0.322490 0.111669
C105  C     C_3   0.310939 0.258670 0.293050 -0.820608
C106  C     C_3   0.293230 0.818848 0.373147 0.097055
C107  C     C_3   0.300495 0.741789 0.351722 -0.822123
C108  C     C_3   0.704916 0.193600 0.671254 0.111721
C109  C     C_3   0.688938 0.258990 0.698555 -0.820638
C110  C     C_3   0.206813 0.321092 0.622019 0.097171
C111  C     C_3   0.199569 0.243286 0.641374 -0.822469
C112  C     C_3   0.795121 0.691100 0.340285 0.111845
H1    H     H_    0.787139 0.092455 0.717178 0.152525
H2    H     H_    0.288056 0.949254 0.387908 0.031387
H3    H     H_    0.845908 0.573440 0.215620 0.258136
H4    H     H_    0.226763 0.401087 0.899665 0.214602
H5    H     H_    0.146834 0.428435 0.787078 0.217734
H6    H     H_    0.165926 0.338531 0.825162 0.209474
H7    H     H_    0.160286 0.366822 0.727270 0.283050
H8    H     H_    0.282988 0.073997 0.363360 0.048026
H9    H     H_    0.711941 0.945985 0.613767 0.031371
H10   H     H_    0.217010 0.576170 0.638632 0.047830
H11   H     H_    0.788066 0.440091 0.382820 0.031427
H12   H     H_    0.783010 0.566128 0.369787 0.047806
H13   H     H_    0.211956 0.451992 0.610747 0.031395
H14   H     H_    0.788617 0.886525 0.750519 0.208123
H15   H     H_    0.216754 0.114806 0.188133 0.201316
H16   H     H_    0.211413 0.887825 0.253058 0.208163
H17   H     H_    0.217274 0.959304 0.324998 0.139325
H18   H     H_    0.783216 0.115608 0.808195 0.201337
H19   H     H_    0.288600 0.389009 0.743940 0.208150
H20   H     H_    0.716792 0.616826 0.198765 0.201233
H21   H     H_    0.711376 0.384393 0.242630 0.208146
H22   H     H_    0.283239 0.614029 0.814909 0.201437
H23   H     H_    0.792602 0.012431 0.916226 0.161368
H24   H     H_    0.213993 0.918110 0.122403 0.192278
H25   H     H_    0.207402 0.008580 0.083450 0.161334
H26   H     H_    0.786009 0.920990 0.880130 0.192337
H27   H     H_    0.292593 0.505262 0.916719 0.161346
H28   H     H_    0.212841 0.094663 0.279846 0.152557
H29   H     H_    0.713972 0.426696 0.115295 0.192419
H30   H     H_    0.707398 0.519745 0.084743 0.161254
H31   H     H_    0.286001 0.415700 0.875337 0.192268
H32   H     H_    0.734163 0.813907 0.622043 0.131004
H33   H     H_    0.678311 0.832835 0.573511 0.138318
H34   H     H_    0.672215 0.740649 0.666817 0.254252
H35   H     H_    0.693572 0.700937 0.605487 0.200528
H36   H     H_    0.727801 0.721950 0.715556 0.257061
H37   H     H_    0.316912 0.186188 0.390950 0.137598
H38   H     H_    0.263334 0.208871 0.312220 0.130597
H39   H     H_    0.782721 0.955883 0.676333 0.139231
H40   H     H_    0.289505 0.268746 0.224888 0.251019
H41   H     H_    0.312377 0.308688 0.328892 0.200258
H42   H     H_    0.342804 0.246467 0.303538 0.261243
H43   H     H_    0.265935 0.817658 0.383967 0.131156
H44   H     H_    0.321771 0.836476 0.431851 0.138276
H45   H     H_    0.327929 0.741158 0.341613 0.254220
H46   H     H_    0.306629 0.704077 0.404253 0.200600
H47   H     H_    0.272363 0.722542 0.293536 0.256989
H48   H     H_    0.683036 0.183585 0.603092 0.137418
H49   H     H_    0.736594 0.207164 0.681097 0.130548
H50   H     H_    0.287155 0.596447 0.722695 0.152480
H51   H     H_    0.710354 0.270603 0.766364 0.251135
H52   H     H_    0.687475 0.307876 0.661100 0.200086
H53   H     H_    0.657076 0.247417 0.688427 0.261244
H54   H     H_    0.234119 0.320941 0.611210 0.131085
H55   H     H_    0.178274 0.339505 0.563778 0.138242
H56   H     H_    0.172122 0.241628 0.651411 0.254259
H57   H     H_    0.193466 0.206827 0.587870 0.200525
H58   H     H_    0.227698 0.223261 0.699059 0.256940
H59   H     H_    0.817031 0.678312 0.407747 0.137461
H60   H     H_    0.763458 0.703346 0.331298 0.130366
H61   H     H_    0.717285 0.449546 0.320851 0.139209
H62   H     H_    0.789623 0.773355 0.249921 0.251018
H63   H     H_    0.812569 0.805593 0.357291 0.199920
H64   H     H_    0.842917 0.748690 0.326310 0.261306
H65   H     H_    0.765802 0.307391 0.366532 0.131159
H66   H     H_    0.821654 0.326729 0.416287 0.138325
H67   H     H_    0.827820 0.240689 0.317703 0.254187
H68   H     H_    0.806424 0.196072 0.376415 0.200689
H69   H     H_    0.772234 0.221612 0.267728 0.257169
H70   H     H_    0.182842 0.688000 0.613952 0.137697
H71   H     H_    0.236478 0.710083 0.692886 0.130578
H72   H     H_    0.712873 0.588052 0.288235 0.152613
H73   H     H_    0.210616 0.767091 0.782165 0.250939
H74   H     H_    0.187423 0.808975 0.679105 0.200350
H75   H     H_    0.157251 0.745302 0.703466 0.261320
H76   H     H_    0.737659 0.096184 0.866094 0.255944
H77   H     H_    0.681429 0.117923 0.883525 0.228794
H78   H     H_    0.674461 0.022364 0.891623 0.231475
H79   H     H_    0.654133 0.066027 0.788439 0.257873
H80   H     H_    0.273219 0.905693 0.097713 0.214605
H81   H     H_    0.353160 0.932148 0.211023 0.217594
H82   H     H_    0.334065 0.842805 0.170486 0.209581
H83   H     H_    0.282739 0.462236 0.673943 0.139316
H84   H     H_    0.339711 0.868575 0.269123 0.283010
H85   H     H_    0.262359 0.092124 0.130945 0.255902
H86   H     H_    0.318583 0.111489 0.112847 0.228683
H87   H     H_    0.325538 0.015498 0.107756 0.231498
H88   H     H_    0.345874 0.061748 0.209529 0.257687
H89   H     H_    0.726783 0.911282 0.905223 0.214700
H90   H     H_    0.646840 0.936654 0.791009 0.217419
H91   H     H_    0.665934 0.848062 0.834473 0.209776
H92   H     H_    0.660317 0.870769 0.735065 0.282956
H93   H     H_    0.237661 0.588588 0.871523 0.255903
H94   H     H_    0.716999 0.071312 0.634319 0.047833
H95   H     H_    0.181390 0.606049 0.889938 0.228808
H96   H     H_    0.174466 0.509771 0.892587 0.231422
H97   H     H_    0.154114 0.558090 0.792022 0.257472
H98   H     H_    0.773202 0.421965 0.089774 0.214690
H99   H     H_    0.853111 0.445008 0.204910 0.216975
H100  H     H_    0.833943 0.357795 0.156983 0.210202
H101  H     H_    0.839747 0.375644 0.257565 0.282715
H102  H     H_    0.762359 0.603567 0.139869 0.255796
H103  H     H_    0.818634 0.629647 0.124057 0.228576
H104  H     H_    0.825431 0.535177 0.109775 0.231408
N1    N     N_2   0.719777 0.050156 0.857747 -0.303997
N2    N     N_2   0.287520 0.915109 0.161762 -0.260646
N3    N     N_2   0.280227 0.045802 0.140724 -0.304057
N4    N     N_2   0.712487 0.919094 0.840898 -0.260579
N5    N     N_2   0.219765 0.542096 0.860415 -0.303964
N6    N     N_2   0.787492 0.426751 0.154477 -0.260393
N7    N     N_2   0.780234 0.558166 0.145493 -0.304024
N8    N     N_2   0.212473 0.411822 0.835885 -0.260759
O1    O     O_R   0.500010 0.060620 0.392670 -0.619957
O2    O     O_R   0.438570 0.939380 0.438570 -0.620850
O3    O     O_R   0.438570 0.060620 0.438570 -0.613410
O4    O     O_R   0.561430 0.939380 0.561430 -0.620780
O5    O     O_R   0.061430 0.560620 0.561430 -0.613441
O6    O     O_R   0.938570 0.439380 0.438570 -0.620724
O7    O     O_R   0.938570 0.560620 0.438570 -0.613450
O8    O     O_R   0.061430 0.439380 0.561430 -0.620898
O9    O     O_R   0.000000 0.107140 0.939380 -0.620293
O10   O     O_R   0.000000 0.892860 0.060620 -0.619774
O11   O     O_R   0.000000 0.107140 0.060620 -0.620215
O12   O     O_R   0.499990 0.939380 0.607330 -0.620863
O13   O     O_R   0.000000 0.892860 0.939380 -0.619757
O14   O     O_R   0.500000 0.607140 0.939380 -0.620245
O15   O     O_R   0.500000 0.392860 0.060620 -0.619793
O16   O     O_R   0.500000 0.607140 0.060620 -0.620259
O17   O     O_R   0.500000 0.392860 0.939380 -0.619738
O18   O     O_R   0.938580 1.000000 0.877970 -0.619515
O19   O     O_R   0.061420 1.000000 0.122030 -0.619465
O20   O     O_R   0.438580 0.500000 0.877970 -0.619470
O21   O     O_R   0.561420 0.500000 0.122030 -0.619511
O22   O     O_R   0.938570 1.000000 0.999140 -0.617696
O23   O     O_R   0.499990 0.060620 0.607330 -0.620029
O24   O     O_R   0.061430 1.000000 0.000860 -0.617744
O25   O     O_R   0.438570 0.500000 0.999140 -0.617743
O26   O     O_R   0.561430 0.500000 0.000860 -0.617686
O27   O     O_R   0.534690 0.892630 0.034650 -0.622674
O28   O     O_R   0.465310 0.107370 0.965350 -0.621866
O29   O     O_R   0.465310 0.892630 0.965350 -0.622776
O30   O     O_R   0.534690 0.107370 0.034650 -0.622021
O31   O     O_R   0.034690 0.392630 0.034650 -0.622764
O32   O     O_R   0.965310 0.607370 0.965350 -0.621996
O33   O     O_R   0.965310 0.392630 0.965350 -0.622694
O34   O     O_R   0.500010 0.939380 0.392670 -0.620949
O35   O     O_R   0.034690 0.607370 0.034650 -0.621881
O36   O     O_R   0.534680 1.000000 0.141990 -0.623679
O37   O     O_R   0.465320 0.000000 0.858010 -0.623649
O38   O     O_R   0.034680 0.500000 0.141990 -0.623654
O39   O     O_R   0.965320 0.500000 0.858010 -0.623653
O40   O     O_R   0.465320 1.000000 0.072630 -0.622011
O41   O     O_R   0.534680 1.000000 0.927370 -0.622047
O42   O     O_R   0.965320 0.500000 0.072630 -0.622106
O43   O     O_R   0.034680 0.500000 0.927370 -0.621985
O44   O     O_3   0.714314 0.865443 0.698373 -0.581573
O45   O     O_R   0.000010 0.560620 0.392670 -0.620193
O46   O     O_3   0.293626 0.131545 0.276600 -0.590610
O47   O     O_3   0.285725 0.866112 0.305962 -0.581639
O48   O     O_3   0.706341 0.131935 0.719179 -0.590513
O49   O     O_3   0.214287 0.366743 0.690426 -0.581649
O50   O     O_3   0.793664 0.632337 0.288712 -0.590461
O51   O     O_3   0.785675 0.364611 0.293526 -0.581501
O52   O     O_3   0.206377 0.631076 0.726931 -0.590611
O53   O     O_R   0.999990 0.439380 0.607330 -0.621063
O54   O     O_R   0.999990 0.560620 0.607330 -0.619813
O55   O     O_R   0.000010 0.439380 0.392670 -0.620735
O56   O     O_R   0.561430 0.060620 0.561430 -0.613430
Zn1   Zn    Zn3+2 0.500000 0.080950 0.500000 0.961573
Zn2   Zn    Zn3+2 0.453690 1.000000 0.953700 0.954406
Zn3   Zn    Zn3+2 0.046310 0.500000 0.046300 0.954407
Zn4   Zn    Zn3+2 0.953690 0.500000 0.953700 0.954284
Zn5   Zn    Zn3+2 0.500000 0.919050 0.500000 0.953511
Zn6   Zn    Zn3+2 0.000000 0.580950 0.500000 0.961563
Zn7   Zn    Zn3+2 0.000000 0.419050 0.500000 0.953510
Zn8   Zn    Zn3+2 0.000010 1.000000 0.919080 0.959129
Zn9   Zn    Zn3+2 0.999990 1.000000 0.080920 0.959272
Zn10  Zn    Zn3+2 0.500010 0.500000 0.919080 0.959271
Zn11  Zn    Zn3+2 0.499990 0.500000 0.080920 0.959143
Zn12  Zn    Zn3+2 0.546310 1.000000 0.046300 0.954303

loop_
_geom_bond_atom_site_label_1
_geom_bond_atom_site_label_2
_ccdc_geom_bond_type
C9    N2    S    
O19   Zn9   S    
C53   O56   A    
C105  H41   S    
C99   N5    S    
C77   C92   S    
C95   H31   S    
C35   O18   A    
C37   O19   A    
O40   Zn2   S    
C55   O5    A    
C7    H74   S    
C66   O52   S    
C67   C77   S    
O2    Zn5   S    
H80   N2    S    
C4    H65   S    
C66   C86   S    
C10   H87   S    
C68   H12   S    
C43   O35   A    
O14   Zn10  S    
C9    H84   S    
C103  H35   S    
C90   C95   S    
O22   Zn9   S    
C32   O10   A    
H76   N1    S    
C78   C90   S    
C38   O25   A    
O53   Zn7   S    
C101  H33   S    
C24   C36   S    
C49   C60   T    
H93   N5    S    
C14   H99   S    
C6    H70   S    
O34   Zn5   S    
H98   N6    S    
C84   C97   S    
C12   H96   S    
C12   N5    S    
C30   C48   S    
C112  O50   S    
C12   H97   S    
C1    O34   A    
C42   O33   A    
C16   H6    S    
C58   C79   T    
C53   O4    A    
C101  H32   S    
C9    H81   S    
O9    Zn8   S    
C32   O13   A    
C94   C98   S    
C8    H79   S    
C1    O1    A    
O25   Zn11  S    
C72   H28   S    
O3    Zn1   S    
C65   O44   S    
C92   C96   S    
C84   C102  S    
C108  C109  S    
C2    C85   S    
C18   C102  T    
O10   Zn9   S    
C104  H38   S    
C89   C94   S    
O16   Zn11  S    
C63   O47   S    
C110  C111  S    
C54   O2    A    
C33   O14   A    
C75   C90   S    
O17   Zn10  S    
C39   O21   A    
C63   H2    S    
O4    Zn5   S    
C71   H39   S    
C7    H73   S    
C25   O12   A    
C8    H78   S    
C13   C86   S    
C10   N3    S    
O41   Zn12  S    
C94   H24   S    
C36   O45   A    
C66   H10   S    
C71   H14   S    
C93   H26   S    
O1    Zn1   S    
H4    N8    S    
C6    O52   S    
C108  H48   S    
C8    H77   S    
C18   C53   S    
C47   O54   A    
C45   O41   A    
C105  H42   S    
C96   H29   S    
C1    C22   S    
C101  C103  S    
C70   O49   S    
C98   N3    S    
C38   C82   S    
C34   O17   A    
C15   N7    S    
O27   Zn12  S    
C37   C81   S    
C112  H60   S    
C77   H21   S    
C31   C49   S    
C20   C55   S    
C69   C89   S    
C10   H86   S    
C5    H69   S    
C104  C105  S    
C107  H45   S    
C96   H30   S    
C75   H19   S    
C103  H36   S    
C100  N7    S    
C70   H13   S    
O33   Zn4   S    
C64   H8    S    
C66   C78   S    
C73   H17   S    
C28   C45   S    
O32   Zn4   S    
C72   H15   S    
C37   O24   A    
C12   H95   S    
O45   Zn6   S    
C108  O48   S    
O56   Zn1   S    
C41   C59   S    
C68   O50   S    
C15   H103  S    
C76   H72   S    
C109  H51   S    
C16   H7    S    
C42   C60   S    
C91   C92   S    
O24   Zn8   S    
C40   O27   A    
C88   C93   S    
C9    H82   S    
C4    C5    S    
C65   C84   S    
C63   C73   S    
C48   O43   A    
C65   C71   S    
C74   H1    S    
C31   O11   A    
C41   O30   A    
C17   C21   T    
O39   Zn4   S    
C71   C88   S    
C14   H101  S    
C58   C88   S    
C67   C87   S    
C111  H57   S    
C11   H90   S    
O55   Zn7   S    
C104  H37   S    
O6    Zn7   S    
C36   O55   A    
C44   O40   A    
C34   O15   A    
C52   C59   T    
O28   Zn2   S    
C44   O36   A    
C110  O49   S    
C31   O9    A    
C110  H55   S    
C3    H62   S    
C45   O37   A    
O38   Zn3   S    
O43   Zn3   S    
C3    C112  S    
C46   O42   A    
O18   Zn8   S    
C100  N6    S    
C85   C98   S    
C97   N4    S    
C56   O6    A    
O7    Zn6   S    
C43   O32   A    
C11   H91   S    
C23   C28   T    
C24   C29   T    
C86   C99   S    
C78   H22   S    
C32   C50   S    
C109  H53   S    
C26   C47   S    
C76   C92   S    
C5    H67   S    
C51   C57   T    
C40   O29   A    
C25   O23   A    
C19   C54   S    
C80   C82   T    
O21   Zn11  S    
C101  O44   S    
O5    Zn6   S    
C26   C30   T    
C65   H9    S    
C22   C27   T    
C98   N2    S    
C97   N1    S    
C16   N8    S    
C46   O38   A    
O8    Zn7   S    
C70   C86   S    
C34   C52   S    
C93   C97   S    
C64   C85   S    
O20   Zn10  S    
C107  H46   S    
C83   C91   T    
O29   Zn2   S    
C43   C61   S    
C3    H63   S    
C87   C100  S    
C7    H75   S    
C50   C61   T    
C105  H40   S    
C62   C84   S    
C99   N8    S    
C35   O22   A    
C77   H61   S    
C40   C57   S    
O54   Zn6   S    
C13   C20   T    
C2    C19   T    
C17   C87   S    
C4    O51   S    
C95   H27   S    
C55   O8    A    
C14   N6    S    
C94   H25   S    
C95   C99   S    
O11   Zn9   S    
H89   N4    S    
C4    H66   S    
C15   H104  S    
C93   H23   S    
C109  H52   S    
C10   H88   S    
C8    N1    S    
C21   C56   S    
C107  H47   S    
C67   O51   S    
C78   H50   S    
C6    C7    S    
C64   O46   S    
C68   C76   S    
C73   H16   S    
C5    H68   S    
C108  H49   S    
C6    H71   S    
C48   O39   A    
C106  H44   S    
O26   Zn10  S    
C14   H100  S    
C29   C46   S    
C111  H58   S    
C74   H18   S    
C73   C89   S    
C67   H11   S    
O23   Zn1   S    
C33   O16   A    
H85   N3    S    
C16   H5    S    
O42   Zn4   S    
C72   C89   S    
C76   H20   S    
C33   C51   S    
C39   O26   A    
C42   O31   A    
C96   C100  S    
C41   O28   A    
C35   C79   S    
O12   Zn5   S    
C15   H3    S    
C11   H92   S    
C64   C72   S    
C80   C90   S    
C110  H54   S    
C104  O46   S    
C54   O3    A    
C69   C81   T    
H102  N7    S    
C38   O20   A    
C39   C83   S    
O37   Zn2   S    
C112  H59   S    
C3    H64   S    
C106  O47   S    
C23   C25   S    
O15   Zn11  S    
C56   O7    A    
O35   Zn3   S    
C106  H43   S    
C106  C107  S    
O31   Zn3   S    
C70   C75   S    
C68   C87   S    
C62   C74   S    
C111  H56   S    
O36   Zn12  S    
C74   C88   S    
C27   C44   S    
O13   Zn8   S    
C11   N4    S    
C62   H94   S    
C63   C85   S    
C47   O53   A    
C103  H34   S    
C62   O48   S    
O30   Zn12  S    
C75   H83   S    
