data_mof_unit_56865.cif
_audit_creation_date              2012-12-10T20:32:45-0500
_audit_creation_method            fapswitch 2.2
_symmetry_space_group_name_H-M    P1
_symmetry_Int_Tables_number       1
_space_group_crystal_system       triclinic
_cell_length_a                    11.547483
_cell_length_b                    10.667714
_cell_length_c                    9.86295
_cell_angle_alpha                 89.98874
_cell_angle_beta                  89.940913
_cell_angle_gamma                 90.061992
_cell_volume                      1214.96854172

loop_
_atom_site_label
_atom_site_type_symbol
_atom_type_description
_atom_site_fract_x
_atom_site_fract_y
_atom_site_fract_z
_atom_type_partial_charge
C1    C     C_R   0.497495 0.260029 0.500233 0.887068
C2    C     C_R   0.578454 0.568643 0.071897 -0.109065
C3    C     C_R   0.578518 0.568588 0.927861 -0.138364
C4    C     C_R   0.281877 0.500007 0.500040 0.890822
C5    C     C_R   0.413159 0.441850 0.928785 0.215409
C6    C     C_3   0.382040 0.306437 0.922386 -0.503235
C7    C     C_3   0.383908 0.305347 0.076276 -0.532766
C8    C     C_R   0.493580 0.739793 0.499903 0.869060
C9    C     C_R   0.718134 0.500212 0.499936 0.905078
C10   C     C_1   0.161479 0.500505 0.500032 -0.209138
C11   C     C_1   0.059346 0.500838 0.499870 -0.012300
C12   C     C_R   0.481233 0.128643 0.502635 -0.113911
C13   C     C_1   0.940722 0.500870 0.499761 -0.006920
C14   C     C_1   0.838572 0.500622 0.499792 -0.200511
C15   C     C_R   0.508323 0.063048 0.619816 0.127561
C16   C     C_R   0.372647 0.873777 0.271582 0.155649
C17   C     C_R   0.416441 0.896585 0.140780 -0.159387
C18   C     C_R   0.369786 0.833991 0.028817 -0.137713
C19   C     C_R   0.278960 0.748845 0.046419 -0.128005
C20   C     C_R   0.233920 0.726897 0.175865 -0.120827
C21   C     C_R   0.280055 0.789529 0.288068 -0.094178
C22   C     C_R   0.429662 0.067309 0.392698 -0.277201
C23   C     C_R   0.424388 0.936975 0.391136 -0.024830
C24   C     C_R   0.473562 0.871314 0.502087 -0.156651
C25   C     C_R   0.504825 0.935579 0.619307 0.120899
C26   C     C_3   0.612236 0.924830 0.703236 -0.478204
C27   C     C_3   0.616223 0.066754 0.703437 -0.485424
C28   C     C_R   0.413535 0.441284 0.071281 0.238288
H1    H     H_    0.396875 0.120032 0.307178 0.164636
H2    H     H_    0.643296 0.621971 0.873443 0.147111
H3    H     H_    0.294187 0.291486 0.879351 0.204426
H4    H     H_    0.487675 0.961292 0.125839 0.124893
H5    H     H_    0.404340 0.851007 0.928458 0.138065
H6    H     H_    0.243518 0.699865 0.959754 0.130049
H7    H     H_    0.163507 0.661004 0.189388 0.132525
H8    H     H_    0.244560 0.771572 0.387899 0.100357
H9    H     H_    0.451264 0.248244 0.876287 0.217250
H10   H     H_    0.297393 0.288357 0.122269 0.203648
H11   H     H_    0.455431 0.247575 0.118274 0.213837
H12   H     H_    0.594628 0.884130 0.804951 0.196535
H13   H     H_    0.685495 0.881192 0.647234 0.198966
H14   H     H_    0.601475 0.107663 0.805540 0.198689
H15   H     H_    0.691619 0.105938 0.647307 0.201505
H16   H     H_    0.643130 0.622130 0.126161 0.147097
N1    N     N_R   0.499240 0.499140 0.142800 -0.103476
N2    N     N_R   0.499240 0.499180 0.857150 -0.107510
O1    O     O_R   0.500010 0.316790 0.614690 -0.617360
O2    O     O_R   0.500000 0.316760 0.385350 -0.622791
O3    O     O_R   0.334450 0.500030 0.614670 -0.613258
O4    O     O_R   0.334440 0.500000 0.385330 -0.612968
O5    O     O_R   0.500000 0.683240 0.614650 -0.619490
O6    O     O_R   0.499990 0.683210 0.385310 -0.608025
O7    O     O_R   0.665560 0.500000 0.614670 -0.613044
O8    O     O_R   0.665550 0.499970 0.385330 -0.613292
Zn1   Zn    Zn3+2 0.500010 0.500020 0.653130 0.939295
Zn2   Zn    Zn3+2 0.499990 0.499980 0.346870 0.951122

loop_
_geom_bond_atom_site_label_1
_geom_bond_atom_site_label_2
_ccdc_geom_bond_type
N2    Zn1   S    
C3    H2    S    
C23   C24   A    
C1    O2    A    
C6    C7    S    
C22   H1    S    
C27   H15   S    
C5    C28   A    
C5    N2    A    
C8    O6    A    
C3    N2    A    
C15   C27   S    
C19   C20   A    
C27   H14   S    
C12   C15   A    
C4    O3    A    
C9    C14   S    
C2    C3    A    
C6    H9    S    
C21   H8    S    
C13   C14   T    
C24   C25   A    
C11   C13   S    
C8    O5    A    
C26   H12   S    
C26   C27   S    
C16   C21   A    
C1    C12   S    
C8    C24   S    
C7    H10   S    
C17   C18   A    
C16   C23   S    
O5    Zn1   S    
O7    Zn1   S    
C2    N1    A    
C5    C6    S    
C18   H5    S    
O8    Zn2   S    
C28   N1    A    
C15   C25   A    
C9    O7    A    
C10   C11   T    
C4    C10   S    
C12   C22   A    
C20   C21   A    
N1    Zn2   S    
O1    Zn1   S    
C18   C19   A    
C2    H16   S    
O2    Zn2   S    
C17   H4    S    
C7    H11   S    
C22   C23   A    
C1    O1    A    
C6    H3    S    
C9    O8    A    
C25   C26   S    
O3    Zn1   S    
C20   H7    S    
O4    Zn2   S    
C7    C28   S    
O6    Zn2   S    
C26   H13   S    
C4    O4    A    
C16   C17   A    
C19   H6    S    
