data_mof_unit_38492.cif
_audit_creation_date              2012-12-11T16:08:39-0500
_audit_creation_method            fapswitch 2.2
_symmetry_space_group_name_H-M    P1
_symmetry_Int_Tables_number       1
_space_group_crystal_system       triclinic
_cell_length_a                    12.967673
_cell_length_b                    13.266846
_cell_length_c                    27.657564
_cell_angle_alpha                 94.976548
_cell_angle_beta                  90.286895
_cell_angle_gamma                 119.280719
_cell_volume                      4128.4622782

loop_
_atom_site_label
_atom_site_type_symbol
_atom_type_description
_atom_site_fract_x
_atom_site_fract_y
_atom_site_fract_z
_atom_type_partial_charge
C1    C     C_R   0.629654 0.892834 0.428741 0.520069
C2    C     C_R   0.662701 0.419762 0.236899 -0.113027
C3    C     C_R   0.654435 0.405768 0.286390 -0.098703
C4    C     C_R   0.674263 0.321402 0.304533 0.026941
C5    C     C_R   0.690226 0.349287 0.204872 0.061570
C6    C     C_1   0.697265 0.369610 0.154286 0.060193
C7    C     C_1   0.655566 0.299084 0.354640 -0.046427
C8    C     C_1   0.704542 0.395578 0.113255 0.070955
C9    C     C_R   0.164644 0.745779 0.351517 -0.128389
C10   C     C_R   0.142345 0.735628 0.301587 -0.018448
C11   C     C_R   0.136292 0.728844 0.200124 -0.035923
C12   C     C_R   0.601165 0.222286 0.440679 0.546727
C13   C     C_R   0.111367 0.628002 0.222765 0.139130
C14   C     C_R   0.116426 0.632988 0.273237 -0.089518
C15   C     C_R   0.153002 0.736094 0.150244 -0.022986
C16   C     C_R   0.131041 0.815129 0.127338 0.028969
C17   C     C_R   0.199266 0.943718 0.358239 -0.081703
C18   C     C_R   0.174575 0.933807 0.308313 0.036520
C19   C     C_R   0.151889 0.831404 0.279486 0.057041
C20   C     C_R   0.181101 0.027587 0.286342 -0.121191
C21   C     C_R   0.169503 0.021815 0.235926 -0.104381
C22   C     C_R   0.153579 0.922748 0.206296 0.021176
C23   C     C_R   0.267832 0.875725 0.425858 0.544187
C24   C     C_R   0.145136 0.826893 0.228557 -0.002546
C25   C     C_R   0.141668 0.914845 0.155195 0.117586
C26   C     C_R   0.202594 0.852625 0.379190 0.000205
C27   C     C_R   0.769457 0.905589 0.364108 0.007507
C28   C     C_R   0.774268 0.900772 0.313002 0.048205
C29   C     C_R   0.774832 0.894728 0.211542 -0.010583
C30   C     C_R   0.871234 0.981987 0.240395 -0.143025
C31   C     C_R   0.871642 0.984558 0.290516 -0.095625
C32   C     C_R   0.779378 0.891516 0.161788 -0.138941
C33   C     C_R   0.689712 0.800392 0.131537 0.002604
C34   C     C_R   0.627616 0.898443 0.564755 0.545165
C35   C     C_R   0.562612 0.754813 0.354932 -0.139576
C36   C     C_R   0.572410 0.736680 0.305351 -0.032145
C37   C     C_R   0.674499 0.814785 0.283595 0.031827
C38   C     C_R   0.478684 0.645527 0.277105 -0.113307
C39   C     C_R   0.482607 0.631647 0.226713 0.170602
C40   C     C_R   0.578608 0.717917 0.202829 0.016091
C41   C     C_R   0.675860 0.808549 0.232544 -0.001056
C42   C     C_R   0.584833 0.718002 0.151321 0.159666
C43   C     C_R   0.656880 0.846452 0.383437 -0.041017
C44   C     C_R   0.751496 0.314361 0.650387 0.139768
C45   C     C_R   0.604845 0.229710 0.577985 0.564941
C46   C     C_R   0.760836 0.329171 0.701575 0.027470
C47   C     C_R   0.769619 0.343125 0.804467 -0.001878
C48   C     C_R   0.858467 0.335798 0.777966 -0.136429
C49   C     C_R   0.854997 0.330681 0.727545 -0.109800
C50   C     C_R   0.773776 0.353344 0.855967 0.004316
C51   C     C_R   0.686508 0.370413 0.880201 0.021009
C52   C     C_R   0.565209 0.317067 0.652001 -0.130032
C53   C     C_R   0.573694 0.333838 0.702414 0.008855
C54   C     C_R   0.669975 0.335477 0.727507 0.011184
C55   C     C_R   0.483508 0.340439 0.728377 0.160872
C56   C     C_R   0.271384 0.879285 0.563259 0.553096
C57   C     C_R   0.487961 0.345256 0.778668 -0.105077
C58   C     C_R   0.581807 0.345350 0.803703 -0.030262
C59   C     C_R   0.674321 0.341953 0.778598 0.045993
C60   C     C_R   0.586689 0.355397 0.853875 -0.144960
C61   C     C_R   0.646249 0.295443 0.626274 -0.003271
C62   C     C_1   0.220458 0.861720 0.609677 0.022420
C63   C     C_R   0.147125 0.735169 0.720170 -0.104172
C64   C     C_R   0.135626 0.724508 0.770183 0.041878
C65   C     C_R   0.161014 0.920123 0.781984 -0.137118
C66   C     C_R   0.172721 0.929226 0.732157 -0.110449
C67   C     C_1   0.634348 0.270884 0.395250 -0.004821
C68   C     C_R   0.165665 0.836735 0.701219 0.024618
C69   C     C_R   0.143356 0.819013 0.801449 0.045685
C70   C     C_1   0.125174 0.811312 0.852680 0.017386
C71   C     C_1   0.190247 0.849781 0.650838 -0.020696
C72   C     C_1   0.101070 0.796836 0.894428 0.043389
C73   C     C_1   0.648359 0.858985 0.608534 0.032060
C74   C     C_R   0.782559 0.850352 0.719039 -0.137865
C75   C     C_R   0.794329 0.833581 0.767280 -0.117497
C76   C     C_R   0.580057 0.710197 0.768889 0.040763
C77   C     C_R   0.568636 0.728013 0.719598 0.217327
C78   C     C_R   0.703169 0.251406 0.273046 -0.128137
C79   C     C_R   0.670592 0.799615 0.695298 0.022331
C80   C     C_R   0.694353 0.765986 0.792612 -0.027777
C81   C     C_1   0.711365 0.760962 0.843842 -0.064699
C82   C     C_1   0.660606 0.829843 0.647292 0.005909
C83   C     C_1   0.727112 0.758045 0.886583 -0.003161
C84   C     C_R   0.066894 0.774188 0.079106 0.593373
C85   C     C_R   0.717101 0.441288 0.067251 0.555357
C86   C     C_R   0.721200 0.782114 0.081717 0.585079
C87   C     C_R   0.056778 0.766324 0.941339 0.546404
C88   C     C_R   0.709414 0.431734 0.929393 0.557374
C89   C     C_R   0.711748 0.264142 0.223031 0.042785
C90   C     C_R   0.749279 0.753609 0.936999 0.550669
Cr1   Cr    Cr6+3 0.416430 0.829200 0.492370 1.056793
Cr2   Cr    Cr6+3 0.674630 0.087020 0.504170 1.088211
Cr3   Cr    Cr6+3 0.408920 0.083740 0.503490 1.057673
Cr4   Cr    Cr6+3 0.914010 0.832750 0.013970 1.106422
Cr5   Cr    Cr6+3 0.922310 0.578600 0.003000 1.137441
Cr6   Cr    Cr6+3 0.656280 0.574630 0.003870 1.107934
H1    H     H_    0.717229 0.185363 0.287508 0.101596
H2    H     H_    0.175392 0.096672 0.220738 0.182260
H3    H     H_    0.197349 0.106408 0.308122 0.134375
H4    H     H_    0.225984 0.025748 0.379776 0.155100
H5    H     H_    0.858544 0.957140 0.146779 0.188952
H6    H     H_    0.946919 0.048837 0.224085 0.144121
H7    H     H_    0.945799 0.056910 0.311090 0.173263
H8    H     H_    0.402628 0.582349 0.294616 0.144893
H9    H     H_    0.478341 0.702618 0.370543 0.139682
H10   H     H_    0.932055 0.334056 0.795516 0.127163
H11   H     H_    0.925537 0.324441 0.709374 0.181882
H12   H     H_    0.516845 0.363032 0.872346 0.148530
H13   H     H_    0.417934 0.349782 0.798309 0.147544
H14   H     H_    0.488742 0.309538 0.632656 0.200833
H15   H     H_    0.143725 0.664744 0.695863 0.150499
H16   H     H_    0.646585 0.485479 0.223440 0.136690
H17   H     H_    0.165748 0.992240 0.805442 0.125939
H18   H     H_    0.188897 0.008923 0.717875 0.149142
H19   H     H_    0.860977 0.905803 0.700572 0.134909
H20   H     H_    0.881866 0.876086 0.785345 0.132971
H21   H     H_    0.630811 0.459515 0.310326 0.127415
H22   H     H_    0.163608 0.673925 0.367895 0.134811
H23   H     H_    0.101050 0.556636 0.290315 0.146374
O1    O     O_R   0.296680 0.802170 0.437540 -0.518127
O2    O     O_R   0.662610 0.183990 0.557860 -0.445208
O3    O     O_R   0.500730 0.201280 0.562180 -0.518174
O4    O     O_R   0.312500 0.978850 0.548170 -0.491712
O5    O     O_3   0.499990 0.999990 0.500010 -0.261345
O6    O     O_R   0.820790 0.857990 0.068830 -0.491537
O7    O     O_R   0.016700 0.827330 0.062850 -0.467149
O8    O     O_R   0.041970 0.673520 0.060040 -0.458370
O9    O     O_R   0.817980 0.483660 0.048840 -0.473396
O10   O     O_R   0.637200 0.461990 0.052510 -0.479991
O11   O     O_R   0.664790 0.681920 0.057970 -0.449630
O12   O     O_R   0.525380 0.838530 0.443500 -0.500298
O13   O     O_R   0.815840 0.852920 0.961840 -0.470604
O14   O     O_R   0.012100 0.822630 0.963670 -0.518711
O15   O     O_R   0.037010 0.668460 0.953040 -0.468892
O16   O     O_R   0.813390 0.478970 0.949660 -0.469821
O17   O     O_R   0.632250 0.456930 0.945520 -0.530522
O18   O     O_R   0.660200 0.677230 0.958780 -0.476051
O19   O     O_3   0.830870 0.661990 0.006950 -0.321911
O20   O     O_R   0.702130 0.995190 0.446810 -0.528188
O21   O     O_R   0.661770 0.181390 0.458760 -0.484650
O22   O     O_R   0.499820 0.198480 0.455280 -0.507528
O23   O     O_R   0.311660 0.976250 0.449080 -0.500348
O24   O     O_R   0.297580 0.804960 0.544440 -0.485700
O25   O     O_R   0.526220 0.841130 0.542590 -0.484729
O26   O     O_R   0.703030 0.997990 0.553710 -0.485579
C91   C     C_2   0.878368 0.962216 0.397499 0.226081
H24   H     H_    0.872375 0.973850 0.436409 0.146848
O27   O     O_2   0.975768 0.987720 0.382687 -0.542439
Br1   Br    Br    0.450562 0.623472 0.106173 -0.341425
Br2   Br    Br    0.359958 0.483239 0.197601 -0.411590
C92   C     C_2   0.742062 0.186152 0.191954 0.274189
H25   H     H_    0.756610 0.122360 0.208319 0.102854
O28   O     O_2   0.751311 0.191341 0.148230 -0.448291
C93   C     C_2   0.867842 0.346766 0.884240 0.269437
H26   H     H_    0.958665 0.389032 0.873623 0.144985
O29   O     O_2   0.843706 0.292472 0.919832 -0.457235
Br3   Br    Br    0.881945 0.321733 0.613974 -0.473026
Br4   Br    Br    0.349434 0.339457 0.697767 -0.463963
C94   C     C_2   0.116467 0.613639 0.787285 0.273462
H27   H     H_    0.108575 0.544182 0.760997 0.139552
O30   O     O_2   0.110170 0.597917 0.830235 -0.500986
C95   C     C_2   0.475824 0.634989 0.796356 0.295944
H28   H     H_    0.487738 0.596671 0.827538 0.101858
O31   O     O_2   0.376516 0.617299 0.785800 -0.427654
Br5   Br    Br    0.416592 0.655969 0.684047 -0.393571
C96   C     C_2   0.216664 0.680981 0.124731 0.325735
H29   H     H_    0.239772 0.625511 0.143094 0.200975
O32   O     O_2   0.252868 0.704352 0.084269 -0.426556
Br6   Br    Br    0.047688 0.475825 0.187977 -0.454660
Br7   Br    Br    0.148149 0.042481 0.123639 -0.434395

loop_
_geom_bond_atom_site_label_1
_geom_bond_atom_site_label_2
_ccdc_geom_bond_type
C25   Br7   S    
C66   C68   A    
C44   Br3   S    
C87   O14   A    
C76   C95   S    
C35   C36   A    
Cr3   O5    S    
C72   C87   S    
Cr6   O17   S    
C53   C54   A    
C46   C49   A    
C34   O25   A    
C37   C41   A    
C5    C6    S    
C33   C42   A    
C36   C37   A    
C44   C61   A    
C95   H28   S    
C29   C32   A    
C52   C61   A    
Cr2   O5    S    
Cr6   O19   S    
C38   C39   A    
C34   O26   A    
Cr1   O12   S    
C58   C60   A    
C15   C16   A    
C11   C24   A    
C16   C84   S    
Cr4   O14   S    
C12   O22   A    
C18   C20   A    
C8    C85   S    
C23   C26   S    
C45   C61   S    
C42   Br1   S    
C38   H8    S    
C3    H21   S    
C85   O10   A    
C56   O24   A    
C11   C15   A    
Cr5   O9    S    
C1    C43   S    
Cr1   O24   S    
C48   H10   S    
C47   C48   A    
C22   C25   A    
C92   H25   S    
C12   O21   A    
C23   O23   A    
C35   C43   A    
C75   C80   A    
C93   O29   D    
C1    O20   A    
C90   O13   A    
C84   O8    A    
Cr4   O7    S    
C21   C22   A    
C86   O6    A    
C96   O32   D    
C9    H22   S    
C55   Br4   S    
C87   O15   A    
C46   C54   A    
C4    C7    S    
C81   C83   T    
C44   C46   A    
C9    C26   A    
C50   C51   A    
C47   C50   A    
C91   O27   D    
C54   C59   A    
C53   C55   A    
C78   C89   A    
C84   O7    A    
C12   C67   S    
C57   H13   S    
C74   C75   A    
C91   H24   S    
C56   O4    A    
C76   C80   A    
C76   C77   A    
C88   O17   A    
C49   H11   S    
C10   C14   A    
C23   O1    A    
C18   C19   A    
C6    C8    T    
C45   O2    A    
C58   C59   A    
C47   C59   A    
Cr5   O15   S    
Cr4   O13   S    
C13   Br6   S    
C31   H7    S    
C33   C86   S    
C4    C78   A    
C29   C30   A    
C35   H9    S    
Cr5   O8    S    
C94   H27   S    
C39   Br2   S    
C52   H14   S    
C10   C19   A    
C2    H16   S    
C30   H6    S    
C78   H1    S    
Cr5   O16   S    
C17   C18   A    
C77   C79   A    
C15   C96   S    
C64   C69   A    
Cr3   O3    S    
C93   H26   S    
C48   C49   A    
C65   C66   A    
C74   C79   A    
C55   C57   A    
C27   C91   S    
C96   H29   S    
Cr4   O19   S    
C94   O30   D    
C22   C24   A    
C2    C5    A    
C17   C26   A    
C3    C4    A    
Cr2   O21   S    
C73   C82   T    
C39   C40   A    
C90   O18   A    
Cr3   O22   S    
C52   C53   A    
Cr6   O11   S    
Cr1   O25   S    
C9    C10   A    
Cr4   O6    S    
C16   C25   A    
C83   C90   S    
C63   C68   A    
C40   C41   A    
Cr5   O19   S    
C66   H18   S    
C29   C41   A    
Cr2   O26   S    
Cr1   O1    S    
C65   H17   S    
Cr6   O18   S    
C28   C31   A    
C86   O11   A    
Cr3   O4    S    
C88   O16   A    
C80   C81   S    
C1    O12   A    
C60   H12   S    
C51   C88   S    
C79   C82   S    
C75   H20   S    
C45   O3    A    
Cr1   O5    S    
C32   C33   A    
C36   C38   A    
C19   C24   A    
C95   O31   D    
Cr2   O2    S    
C21   H2    S    
C11   C13   A    
C57   C58   A    
C30   C31   A    
C20   H3    S    
C28   C37   A    
C50   C93   S    
C68   C71   S    
C65   C69   A    
C74   H19   S    
C64   C94   S    
C40   C42   A    
C62   C71   T    
C2    C3    A    
C56   C62   S    
C92   O28   D    
C63   H15   S    
C69   C70   S    
C17   H4    S    
C34   C73   S    
C7    C67   T    
C63   C64   A    
C27   C43   A    
C89   C92   S    
C20   C21   A    
C14   H23   S    
C27   C28   A    
C32   H5    S    
C85   O9    A    
C70   C72   T    
C51   C60   A    
C13   C14   A    
Cr2   O20   S    
C77   Br5   S    
C5    C89   A    
Cr3   O23   S    
Cr6   O10   S    
