data_mof_unit_53632.cif
_audit_creation_date              2012-12-10T20:42:41-0500
_audit_creation_method            fapswitch 2.2
_symmetry_space_group_name_H-M    P1
_symmetry_Int_Tables_number       1
_space_group_crystal_system       triclinic
_cell_length_a                    8.904247
_cell_length_b                    10.666251
_cell_length_c                    9.935239
_cell_angle_alpha                 90.053714
_cell_angle_beta                  89.794165
_cell_angle_gamma                 91.091908
_cell_volume                      943.420873858

loop_
_atom_site_label
_atom_site_type_symbol
_atom_type_description
_atom_site_fract_x
_atom_site_fract_y
_atom_site_fract_z
_atom_type_partial_charge
Br1   Br    Br    0.677255 0.143642 0.231473 -0.477882
Br2   Br    Br    0.725169 0.694248 0.836059 -0.411967
C1    C     C_R   0.508218 0.260453 0.499749 0.901647
C2    C     C_R   0.417249 0.412800 0.929251 0.129748
C3    C     C_3   0.251142 0.393515 0.924207 -0.463802
C4    C     C_R   0.218942 0.499760 0.500138 0.921160
C5    C     C_3   0.251166 0.393386 0.077136 -0.443637
C6    C     C_R   0.504097 0.739785 0.500204 0.901321
C7    C     C_R   0.781070 0.500205 0.499861 0.940319
C8    C     C_1   0.065458 0.499884 0.500220 -0.182013
C9    C     C_1   0.934547 0.500050 0.499788 -0.143280
C10   C     C_R   0.502056 0.064274 0.619850 0.111528
C11   C     C_R   0.533668 0.129185 0.501210 -0.195723
C12   C     C_R   0.587667 0.934212 0.390547 -0.237628
C13   C     C_R   0.593160 0.064319 0.389308 0.266162
C14   C     C_R   0.527002 0.871491 0.502515 -0.164954
C15   C     C_R   0.499411 0.936732 0.620701 0.184986
C16   C     C_3   0.367779 0.929516 0.714290 -0.436138
C17   C     C_3   0.370635 0.071746 0.713577 -0.465519
C18   C     C_R   0.417303 0.412705 0.071176 0.185274
C19   C     C_R   0.592872 0.579160 0.070113 0.408002
C20   C     C_R   0.592524 0.578501 0.927466 0.297611
H1    H     H_    0.218949 0.301109 0.880076 0.207843
H2    H     H_    0.684369 0.652274 0.228196 0.382988
H3    H     H_    0.192485 0.474773 0.121568 0.225998
H4    H     H_    0.219112 0.300859 0.121111 0.221198
H5    H     H_    0.624381 0.883067 0.302513 0.221307
H6    H     H_    0.265867 0.887531 0.666425 0.201190
H7    H     H_    0.397760 0.888952 0.813452 0.234486
H8    H     H_    0.270249 0.112804 0.665489 0.199847
H9    H     H_    0.402289 0.113325 0.812386 0.227010
H10   H     H_    0.192555 0.475018 0.880453 0.231540
N1    N     N_R   0.499010 0.499140 0.142800 -0.182043
N2    N     N_R   0.499010 0.499180 0.857150 -0.172085
O1    O     O_R   0.500020 0.316790 0.614690 -0.616410
O2    O     O_R   0.500000 0.316760 0.385350 -0.573398
O3    O     O_R   0.285350 0.500020 0.614650 -0.618913
O4    O     O_R   0.285340 0.499980 0.385310 -0.615976
O5    O     O_R   0.500000 0.683240 0.614650 -0.583283
O6    O     O_R   0.499980 0.683210 0.385310 -0.646569
O7    O     O_R   0.714660 0.500020 0.614690 -0.580452
O8    O     O_R   0.714650 0.499980 0.385350 -0.630361
O9    O     O_3   0.688168 0.664714 0.130996 -0.730266
Zn1   Zn    Zn3+2 0.500010 0.500020 0.653130 0.989061
Zn2   Zn    Zn3+2 0.499990 0.499980 0.346870 0.982073

loop_
_geom_bond_atom_site_label_1
_geom_bond_atom_site_label_2
_ccdc_geom_bond_type
C10   C15   A    
C4    C8    S    
C4    O4    A    
Br2   C20   S    
O5    Zn1   S    
Br1   C13   S    
C6    O5    A    
C12   H5    S    
N1    Zn2   S    
C7    O7    A    
C3    H1    S    
C1    O1    A    
C3    H10   S    
C17   H9    S    
O3    Zn1   S    
C15   C16   S    
C4    O3    A    
N2    Zn1   S    
O2    Zn2   S    
C6    C14   S    
C16   H7    S    
C19   C20   A    
O1    Zn1   S    
C7    C9    S    
C7    O8    A    
C5    H4    S    
C1    O2    A    
C18   N1    A    
C10   C17   S    
C16   C17   S    
C12   C14   A    
C11   C13   A    
C5    H3    S    
O6    Zn2   S    
C20   N2    A    
O7    Zn1   S    
C2    N2    A    
C19   N1    A    
C8    C9    T    
C2    C18   A    
C16   H6    S    
C10   C11   A    
C5    C18   S    
C3    C5    S    
H2    O9    S    
C12   C13   A    
C2    C3    S    
O4    Zn2   S    
C6    O6    A    
C19   O9    S    
C17   H8    S    
C14   C15   A    
O8    Zn2   S    
C1    C11   S    
