data_mof_unit_5741.cif
_audit_creation_date              2013-03-05T15:58:51-0500
_audit_creation_method            fapswitch 2.2
_symmetry_space_group_name_H-M    P1
_symmetry_Int_Tables_number       1
_space_group_crystal_system       triclinic
_cell_length_a                    13.883288
_cell_length_b                    14.985893
_cell_length_c                    17.302104
_cell_angle_alpha                 87.625932
_cell_angle_beta                  85.293118
_cell_angle_gamma                 89.955089
_cell_volume                      3584.53099561

loop_
_atom_site_label
_atom_site_type_symbol
_atom_site_description
_atom_site_fract_x
_atom_site_fract_y
_atom_site_fract_z
_atom_type_partial_charge
O1    O     O_R   0.417720 0.629750 0.499980 -0.642672
O2    O     O_R   0.582280 0.370250 0.500020 -0.584613
O3    O     O_R   0.582260 0.629730 0.499990 -0.539091
O4    O     O_R   0.417740 0.370270 0.500010 -0.591223
C1    C     C_R   0.499634 0.670585 0.503191 0.856874
C2    C     C_R   0.500360 0.329225 0.497770 0.871929
O5    O     O_R   0.408190 0.500030 0.613590 -0.592014
O6    O     O_R   0.591810 0.499970 0.386410 -0.553022
O7    O     O_R   0.572730 0.500000 0.613600 -0.542136
O8    O     O_R   0.427270 0.500000 0.386400 -0.574202
C3    C     C_R   0.486180 0.503883 0.649950 0.820960
C4    C     C_R   0.513170 0.494281 0.349898 0.887812
Cu1   Cu    Cu3+1 0.402580 0.500010 0.500000 0.978540
Cu2   Cu    Cu3+1 0.597420 0.499990 0.500000 1.028986
C5    C     C_R   0.472592 0.512614 0.735298 -0.094424
C6    C     C_R   0.519648 0.475929 0.265288 -0.117030
C7    C     C_R   0.528574 0.460889 0.784131 -0.061594
C8    C     C_R   0.438425 0.438711 0.232833 -0.079959
C9    C     C_R   0.498839 0.448635 0.863201 0.011462
C10   C     C_R   0.435697 0.438634 0.151515 -0.104269
C11   C     C_R   0.426995 0.505515 0.898447 -0.008067
C12   C     C_R   0.514262 0.476295 0.103188 -0.034471
C13   C     C_R   0.371069 0.559269 0.849585 -0.072044
C14   C     C_R   0.604420 0.481738 0.135285 -0.028180
C15   C     C_R   0.393087 0.562060 0.768053 -0.035907
C16   C     C_R   0.606119 0.490407 0.216265 -0.109385
C17   C     C_2   0.422786 0.517378 0.985175 0.415790
C18   C     C_2   0.506496 0.511893 0.020688 0.314566
C19   C     C_R   0.483375 0.185630 0.566932 -0.273268
C20   C     C_R   0.481247 0.814085 0.437655 -0.269187
C21   C     C_R   0.500306 0.232504 0.496107 -0.028540
C22   C     C_R   0.498202 0.767055 0.506030 -0.060060
C23   C     C_R   0.514440 0.186837 0.426196 -0.010044
C24   C     C_R   0.510425 0.812280 0.574692 -0.059350
C25   C     C_R   0.491183 0.094587 0.427900 -0.116949
C26   C     C_R   0.488895 0.904826 0.575682 -0.097528
C27   C     C_R   0.485663 0.046623 0.500662 0.014323
C28   C     C_R   0.484911 0.952923 0.503574 0.017559
C29   C     C_R   0.483274 0.092520 0.570430 0.021556
C30   C     C_R   0.482287 0.907088 0.434166 0.002897
C31   C     C_R   0.475309 0.048409 0.359752 -0.160855
C32   C     C_R   0.472643 0.951048 0.645762 -0.167087
C33   C     C_R   0.477662 0.954274 0.362505 0.430192
C34   C     C_R   0.476903 0.045199 0.642710 0.441854
H1    H     H_    0.474376 0.222644 0.619614 0.158153
H2    H     H_    0.472338 0.777196 0.386046 0.165651
C35   C     C_R   0.211085 0.558530 0.451134 0.095512
C36   C     C_R   0.790775 0.432789 0.539886 0.129242
N1    N     N_R   0.256180 0.500070 0.500030 -0.251831
N2    N     N_R   0.743820 0.499930 0.499970 -0.240859
C37   C     C_R   0.201574 0.442796 0.549921 0.169025
C38   C     C_R   0.798850 0.567965 0.461931 0.145870
C39   C     C_R   0.099318 0.440065 0.549119 -0.064548
C40   C     C_R   0.901613 0.567559 0.460090 -0.105103
C41   C     C_R   0.052103 0.502720 0.502827 0.016627
C42   C     C_R   0.948840 0.501826 0.503140 0.018826
C43   C     C_R   0.108111 0.565940 0.455989 -0.107741
C44   C     C_R   0.893212 0.435413 0.546432 -0.098976
C45   C     C_R   0.043299 0.376407 0.594288 -0.243967
C46   C     C_R   0.958296 0.632969 0.416635 -0.256906
C47   C     C_R   0.942605 0.374460 0.595142 0.469537
C48   C     C_R   0.058902 0.634626 0.415978 0.493522
H3    H     H_    0.077162 0.326135 0.629562 0.163767
H4    H     H_    0.925380 0.684812 0.382312 0.160337
C49   C     C_2   0.619294 0.419253 0.753628 0.295651
H5    H     H_    0.626346 0.347182 0.755108 0.020004
O9    O     O_2   0.688291 0.466302 0.730467 -0.544591
C50   C     C_2   0.358245 0.394331 0.282753 0.426449
H6    H     H_    0.283562 0.407933 0.272487 0.072145
O10   O     O_2   0.375315 0.340271 0.334520 -0.542892
C51   C     C_2   0.269179 0.607239 0.387896 0.503851
H7    H     H_    0.318093 0.660116 0.399429 0.053503
O11   O     O_2   0.259802 0.589855 0.320669 -0.579421
C52   C     C_2   0.735823 0.354244 0.572558 0.526930
H8    H     H_    0.675058 0.361421 0.614682 0.061684
O12   O     O_2   0.755975 0.279942 0.549691 -0.530658
C53   C     C_2   0.248999 0.383686 0.605494 0.420292
H9    H     H_    0.282591 0.322093 0.586921 0.069540
O13   O     O_2   0.244995 0.400948 0.674018 -0.534741
C54   C     C_2   0.753249 0.647108 0.426659 0.446629
H10   H     H_    0.767253 0.712699 0.447741 0.020992
O14   O     O_2   0.704267 0.641271 0.371918 -0.536099
O15   O     O_3   0.894543 0.310508 0.643721 -0.593646
C55   C     C_3   0.874911 0.343681 0.718842 0.050916
H11   H     H_    0.799404 0.325068 0.738376 0.175809
H12   H     H_    0.880011 0.417971 0.721138 0.169251
C56   C     C_3   0.940766 0.299239 0.775750 -0.362609
H13   H     H_    0.937525 0.225511 0.771441 0.241604
H14   H     H_    0.016526 0.321539 0.761081 0.235676
C57   C     C_3   0.910112 0.323110 0.859108 -0.832845
H15   H     H_    0.913621 0.396554 0.864994 0.271437
H16   H     H_    0.959448 0.290549 0.898999 0.269149
H17   H     H_    0.835225 0.299503 0.876178 0.245799
O16   O     O_3   0.107194 0.704591 0.374770 -0.591401
C58   C     C_3   0.131799 0.770507 0.426265 0.023978
H18   H     H_    0.199792 0.803014 0.400965 0.179772
H19   H     H_    0.147206 0.742608 0.484833 0.122117
C59   C     C_3   0.052815 0.841756 0.433951 -0.351816
H20   H     H_    0.037532 0.868274 0.375273 0.240893
H21   H     H_    0.985438 0.811610 0.462821 0.206520
C60   C     C_3   0.083546 0.918656 0.481676 -0.853099
H22   H     H_    0.098005 0.893739 0.540971 0.261071
H23   H     H_    0.024822 0.968952 0.486541 0.262484
H24   H     H_    0.149716 0.951438 0.453191 0.259853
C61   C     C_2   0.698450 0.511572 0.248591 0.567660
H25   H     H_    0.726489 0.467785 0.292900 0.101986
O17   O     O_2   0.743870 0.578634 0.225720 -0.488636
C62   C     C_2   0.335477 0.619563 0.716487 0.515970
H26   H     H_    0.371344 0.656607 0.667154 0.058736
O18   O     O_2   0.247490 0.623028 0.726607 -0.508852
O19   O     O_3   0.589993 0.540972 0.977029 -0.662232
C63   C     C_3   0.605205 0.633066 0.987434 0.023909
H27   H     H_    0.682063 0.641928 0.999044 0.204762
H28   H     H_    0.560998 0.660361 0.037936 0.119909
C64   C     C_3   0.586739 0.687180 0.913134 -0.339821
H29   H     H_    0.633114 0.661497 0.863517 0.258409
H30   H     H_    0.510121 0.679836 0.900708 0.224867
C65   C     C_3   0.608087 0.786151 0.920679 -0.851742
H31   H     H_    0.560842 0.813429 0.969019 0.261541
H32   H     H_    0.594006 0.823428 0.865942 0.275083
H33   H     H_    0.684955 0.795962 0.931803 0.254654
O20   O     O_3   0.335847 0.536519 0.027133 -0.652075
C66   C     C_3   0.333363 0.627263 0.048855 -0.014839
H34   H     H_    0.260773 0.653697 0.037819 0.207101
H35   H     H_    0.386646 0.671365 0.013854 0.142803
C67   C     C_3   0.345618 0.635748 0.135399 -0.372930
H36   H     H_    0.299606 0.585207 0.169530 0.269803
H37   H     H_    0.422193 0.624572 0.146735 0.201261
C68   C     C_3   0.317255 0.728640 0.162244 -0.765087
H38   H     H_    0.360119 0.780572 0.127002 0.241237
H39   H     H_    0.331622 0.734232 0.224062 0.272732
H40   H     H_    0.239098 0.740541 0.156717 0.272301
C69   C     C_2   0.290114 0.613463 0.882829 0.440841
H41   H     H_    0.231209 0.581312 0.918554 0.121386
O21   O     O_2   0.288888 0.694297 0.870594 -0.538000
C70   C     C_2   0.694233 0.461791 0.085031 0.441433
H42   H     H_    0.688763 0.422547 0.034232 0.101979
O22   O     O_2   0.774214 0.487343 0.098739 -0.512837
C71   C     C_2   0.355017 0.390974 0.119408 0.491474
H43   H     H_    0.280980 0.401119 0.142361 0.052583
O23   O     O_2   0.370635 0.337874 0.068519 -0.453554
C72   C     C_2   0.545413 0.375995 0.907982 0.357720
H44   H     H_    0.623216 0.367163 0.901554 0.066690
O24   O     O_2   0.496692 0.322907 0.949568 -0.484422
C73   C     C_2   0.569523 0.228645 0.355995 0.379932
H45   H     H_    0.596707 0.187693 0.308856 0.068008
O25   O     O_2   0.589986 0.307762 0.350873 -0.552074
C74   C     C_2   0.559866 0.769046 0.640000 0.268065
H46   H     H_    0.594431 0.810145 0.679932 0.094052
O26   O     O_2   0.564591 0.688313 0.649831 -0.558095
C75   C     C_2   0.443061 0.097535 0.289577 0.393470
H47   H     H_    0.415922 0.165156 0.293989 0.108440
O27   O     O_2   0.444849 0.063479 0.226601 -0.487524
C76   C     C_2   0.437920 0.902112 0.719841 0.408830
H48   H     H_    0.407974 0.835391 0.718469 0.081812
O28   O     O_2   0.440594 0.935367 0.782848 -0.497905
O29   O     O_3   0.471045 0.907763 0.295561 -0.575110
C77   C     C_3   0.565685 0.890451 0.262990 0.090671
H49   H     H_    0.610532 0.857312 0.306455 0.133331
H50   H     H_    0.601628 0.953966 0.240819 0.168710
C78   C     C_3   0.560221 0.828376 0.195605 -0.339555
H51   H     H_    0.522767 0.765446 0.216953 0.221156
H52   H     H_    0.518093 0.861151 0.150481 0.241931
C79   C     C_3   0.660838 0.805852 0.159542 -0.847324
H53   H     H_    0.699576 0.867693 0.137215 0.253386
H54   H     H_    0.654642 0.761460 0.110469 0.250015
H55   H     H_    0.703343 0.770801 0.203213 0.296982
O30   O     O_3   0.469936 0.091488 0.710571 -0.566859
C80   C     C_3   0.564094 0.103107 0.734166 0.060719
H56   H     H_    0.608260 0.146217 0.690743 0.135891
H57   H     H_    0.601093 0.037530 0.741383 0.161500
C81   C     C_3   0.557169 0.148210 0.811985 -0.249682
H58   H     H_    0.523161 0.214921 0.805147 0.216895
H59   H     H_    0.510878 0.107216 0.855306 0.271913
C82   C     C_3   0.656744 0.159095 0.841891 -0.928622
H60   H     H_    0.690494 0.092743 0.851403 0.268162
H61   H     H_    0.649589 0.192966 0.897910 0.276255
H62   H     H_    0.704395 0.199940 0.799629 0.244370

loop_
_geom_bond_atom_site_label_1
_geom_bond_atom_site_label_2
_geom_bond_distance
_ccdc_geom_bond_type
C28   C30   1.410968 A    
C56   H13   1.111655 S    
C32   C34   1.410833 A    
C67   H36   1.110069 S    
C80   H57   1.115686 S    
C80   H56   1.114733 S    
C26   C32   1.423162 A    
C58   H18   1.111421 S    
C55   C56   1.530181 S    
C41   C42   1.433265 A    
C63   H28   1.117454 S    
C73   H45   1.083900 S    
C39   C45   1.401915 A    
C58   C59   1.531707 S    
C43   C48   1.422311 A    
C82   H61   1.109884 S    
C40   C46   1.410122 A    
C53   H9    1.082609 S    
O5    C3    1.298607 A    
C61   O17   1.221181 D    
C79   H54   1.108937 S    
C60   H22   1.110946 S    
C52   O12   1.221693 D    
O15   C55   1.416306 S    
O1    C1    1.298130 A    
C10   C71   1.486467 S    
C79   H53   1.111017 S    
C9    C11   1.426632 A    
C55   H12   1.118169 S    
C23   C25   1.418477 A    
C5    C15   1.421073 A    
C49   O9    1.220625 D    
C8    C50   1.491061 S    
C64   H29   1.111714 S    
C62   H26   1.084492 S    
C46   C48   1.396079 A    
C34   O30   1.384876 S    
O4    Cu1   1.955459 S    
C65   H31   1.111176 S    
C77   C78   1.528044 S    
C73   O25   1.217373 D    
C24   C74   1.494543 S    
C30   C33   1.407777 A    
C4    C6    1.496162 S    
C38   C40   1.424447 A    
C50   H6    1.084003 S    
C64   H30   1.108828 S    
C56   H14   1.110002 S    
N2    C38   1.385449 A    
C75   H47   1.084337 S    
C21   C23   1.413993 A    
C42   C44   1.411571 A    
C76   O28   1.220584 D    
C81   C82   1.526496 S    
C1    C22   1.448628 S    
C14   C70   1.497725 S    
C44   C47   1.430039 A    
C36   N2    1.389093 A    
C2    C21   1.450927 S    
C11   C17   1.514732 S    
C60   H23   1.110369 S    
C12   C18   1.515208 S    
Cu1   Cu2   2.705018 S    
C77   H50   1.114096 S    
C31   C33   1.409967 A    
O2    C2    1.297439 A    
C3    C5    1.484447 S    
Cu2   N2    2.032470 S    
C25   C31   1.424148 A    
C16   C61   1.479721 S    
C35   N1    1.378357 A    
C63   H27   1.110933 S    
C78   H52   1.111576 S    
C17   O20   1.392500 S    
C81   H59   1.111605 S    
C78   H51   1.112018 S    
C82   H62   1.109583 S    
C39   C41   1.405592 A    
C18   O19   1.390712 S    
C6    C16   1.423287 A    
C40   C42   1.404792 A    
C45   C47   1.397132 A    
C52   H8    1.076976 S    
C13   C69   1.478096 S    
C36   C52   1.470578 S    
C66   H34   1.110722 S    
C74   H46   1.084950 S    
C70   O22   1.219538 D    
C47   O15   1.382905 S    
C51   O11   1.219749 D    
C54   H10   1.085666 S    
C66   C67   1.531310 S    
C67   C68   1.526868 S    
N1    C37   1.374336 A    
O29   C77   1.414682 S    
C19   H1    1.084992 S    
C37   C39   1.421503 A    
C65   H33   1.110786 S    
C22   C24   1.414007 A    
O7    Cu2   1.967286 S    
C37   C53   1.474824 S    
C48   O16   1.384882 S    
C27   C28   1.403003 A    
C35   C43   1.429680 A    
C57   H16   1.110311 S    
C82   H60   1.110729 S    
O6    C4    1.310020 A    
C64   C65   1.525697 S    
C19   C29   1.394134 A    
C53   O13   1.220759 D    
C20   C30   1.392580 A    
C55   H11   1.106999 S    
C67   H37   1.108123 S    
O7    C3    1.312123 A    
C35   C51   1.473239 S    
C76   H48   1.085085 S    
O3    Cu2   1.955460 S    
O8    C4    1.307354 A    
Cu1   N1    2.032470 S    
C74   O26   1.217227 D    
O4    C2    1.299657 A    
O30   C80   1.414079 S    
C32   C76   1.494757 S    
C10   C12   1.421122 A    
C59   H20   1.111534 S    
C60   H24   1.111086 S    
C59   H21   1.110801 S    
C41   C43   1.411767 A    
C77   H49   1.115921 S    
C80   C81   1.527435 S    
C12   C14   1.414145 A    
O1    Cu1   1.955743 S    
C78   C79   1.525861 S    
C81   H58   1.111292 S    
C57   H17   1.111234 S    
C68   H38   1.110624 S    
C5    C7    1.404062 A    
O6    Cu2   1.973277 S    
O19   C63   1.417395 S    
C25   C27   1.420110 A    
C19   C21   1.389983 A    
C7    C49   1.473477 S    
C20   H2    1.085065 S    
C79   H55   1.111254 S    
C14   C16   1.414600 A    
C70   H42   1.085352 S    
O3    C1    1.298113 A    
O8    Cu1   1.967288 S    
C71   H43   1.084035 S    
C58   H19   1.117029 S    
C36   C44   1.436594 A    
C29   C34   1.408251 A    
C31   C75   1.493752 S    
C9    C72   1.488169 S    
C59   C60   1.526226 S    
C61   H25   1.084790 S    
C45   H3    1.081436 S    
C46   H4    1.082067 S    
C68   H40   1.110699 S    
C11   C13   1.420152 A    
C51   H7    1.079385 S    
C27   C29   1.411929 A    
C20   C22   1.388553 A    
C71   O23   1.217351 D    
C57   H15   1.110991 S    
C69   H41   1.084426 S    
C26   C28   1.419831 A    
C7    C9    1.400841 A    
C54   O14   1.216470 D    
C62   O18   1.221102 D    
C8    C10   1.410629 A    
C75   O27   1.220643 D    
C33   O29   1.385754 S    
O16   C58   1.417641 S    
O2    Cu2   1.955744 S    
C65   H32   1.110672 S    
C66   H35   1.115733 S    
O5    Cu1   1.973275 S    
C13   C15   1.417579 A    
C24   C26   1.419002 A    
C6    C8    1.424375 A    
C49   H5    1.083846 S    
C56   C57   1.526762 S    
C17   C18   1.359338 D    
C69   O21   1.221401 D    
C50   O10   1.220304 D    
C72   H44   1.085312 S    
O20   C66   1.425431 S    
C38   C54   1.477228 S    
C63   C64   1.530813 S    
C72   O24   1.217263 D    
C23   C73   1.495978 S    
C15   C62   1.493544 S    
C68   H39   1.110532 S    
