data_mof_unit_35851.cif
_audit_creation_date              2012-12-10T20:49:48-0500
_audit_creation_method            fapswitch 2.2
_symmetry_space_group_name_H-M    P1
_symmetry_Int_Tables_number       1
_space_group_crystal_system       triclinic
_cell_length_a                    8.103303
_cell_length_b                    8.937834
_cell_length_c                    16.751846
_cell_angle_alpha                 89.996809
_cell_angle_beta                  85.286415
_cell_angle_gamma                 89.992607
_cell_volume                      1209.16544398

loop_
_atom_site_label
_atom_site_type_symbol
_atom_type_description
_atom_site_fract_x
_atom_site_fract_y
_atom_site_fract_z
_atom_type_partial_charge
C1    C     C_R   0.499993 0.782043 0.500014 0.938785
C2    C     C_R   0.395494 0.495666 0.217527 -0.307782
C3    C     C_R   0.585934 0.702768 0.840136 0.465552
C4    C     C_R   0.402037 0.525713 0.135506 0.482121
C5    C     C_R   0.442301 0.675323 0.890783 0.113160
C6    C     C_R   0.551576 0.578855 0.096617 0.110917
C7    C     C_R   0.306003 0.602820 0.862009 -0.213064
C8    C     C_R   0.694290 0.589594 0.137746 -0.236944
C9    C     C_R   0.317061 0.545911 0.784560 -0.202604
C10   C     C_R   0.686898 0.558093 0.218981 -0.197467
C11   C     C_2   0.446353 0.688412 0.977157 -0.089999
C12   C     C_R   0.500000 0.217957 0.500039 0.944082
C13   C     C_2   0.565250 0.614306 0.011565 -0.128122
C14   C     C_1   0.499988 0.934820 0.500049 -0.188890
C15   C     C_1   0.500004 0.065169 0.500055 -0.191612
C16   C     C_R   0.477549 0.508457 0.653482 0.884025
C17   C     C_R   0.522631 0.500157 0.346178 0.884476
C18   C     C_R   0.465003 0.560808 0.735927 -0.070422
C19   C     C_R   0.536408 0.514777 0.259492 -0.076861
C20   C     C_R   0.597001 0.643146 0.762895 -0.312541
H1    H     H_    0.195424 0.581374 0.901238 0.179155
H2    H     H_    0.806641 0.789948 0.825732 0.331259
H3    H     H_    0.810562 0.625883 0.107238 0.169422
H4    H     H_    0.708422 0.661862 0.723833 0.159317
H5    H     H_    0.280223 0.458396 0.248589 0.155311
H6    H     H_    0.797391 0.572356 0.250450 0.169019
H7    H     H_    0.212252 0.486897 0.763490 0.167229
H8    H     H_    0.671765 0.569344 0.975642 0.170024
H9    H     H_    0.338101 0.731116 0.012504 0.175120
H10   H     H_    0.172885 0.463594 0.128896 0.329337
N1    N     N_1   0.926360 0.500000 0.499990 -0.036203
N2    N     N_1   0.073640 0.500000 0.500010 -0.035441
O1    O     O_R   0.363150 0.714660 0.500000 -0.612915
O2    O     O_3   0.714924 0.782649 0.868556 -0.778236
O3    O     O_R   0.636850 0.285340 0.500000 -0.610932
O4    O     O_R   0.636850 0.714660 0.500000 -0.617134
O5    O     O_R   0.363150 0.285340 0.500000 -0.612967
O6    O     O_R   0.346950 0.500000 0.615800 -0.619929
O7    O     O_R   0.653050 0.500000 0.384200 -0.623691
O8    O     O_R   0.620700 0.500000 0.615800 -0.619407
O9    O     O_R   0.379300 0.500000 0.384200 -0.619540
O10   O     O_3   0.266486 0.500563 0.092310 -0.798647
Zn1   Zn    Zn3+2 0.317220 0.500000 0.500010 0.987945
Zn2   Zn    Zn3+2 0.682780 0.500000 0.499990 0.985096

loop_
_geom_bond_atom_site_label_1
_geom_bond_atom_site_label_2
_ccdc_geom_bond_type
O5    Zn1   S    
C2    C4    A    
C13   H8    S    
O7    Zn2   S    
C11   C13   D    
N1    N2    T    
C12   C15   S    
C10   C19   A    
C10   H6    S    
C1    O1    A    
C3    C20   A    
C6    C13   S    
O3    Zn2   S    
O9    Zn1   S    
C9    H7    S    
C4    O10   S    
C16   O8    A    
C16   C18   S    
C17   C19   S    
N2    Zn1   S    
C5    C11   S    
C2    H5    S    
C18   C20   A    
H2    O2    S    
C17   O9    A    
O4    Zn2   S    
C4    C6    A    
N1    Zn2   S    
O1    Zn1   S    
C7    C9    A    
C9    C18   A    
O8    Zn2   S    
C8    H3    S    
C11   H9    S    
C8    C10   A    
C17   O7    A    
C12   O5    A    
C5    C7    A    
C14   C15   T    
H10   O10   S    
C6    C8    A    
C1    C14   S    
C3    O2    S    
C3    C5    A    
C2    C19   A    
C7    H1    S    
O6    Zn1   S    
C20   H4    S    
C1    O4    A    
C16   O6    A    
C12   O3    A    
