data_mof_unit_32554.cif
_audit_creation_date              2012-12-10T18:08:01-0500
_audit_creation_method            fapswitch 2.2
_symmetry_space_group_name_H-M    P1
_symmetry_Int_Tables_number       1
_space_group_crystal_system       triclinic
_cell_length_a                    12.753945
_cell_length_b                    13.869945
_cell_length_c                    15.883371
_cell_angle_alpha                 90.173712
_cell_angle_beta                  92.955463
_cell_angle_gamma                 98.250207
_cell_volume                      2776.78176714

loop_
_atom_site_label
_atom_site_type_symbol
_atom_type_description
_atom_site_fract_x
_atom_site_fract_y
_atom_site_fract_z
_atom_type_partial_charge
C1    C     C_R   0.483304 0.315740 0.499271 0.816346
C2    C     C_R   0.516672 0.684253 0.500760 0.818070
C3    C     C_2   0.543364 0.978867 0.498855 -0.164685
C4    C     C_2   0.456165 0.021077 0.501525 -0.171720
C5    C     C_1   0.464695 0.125001 0.500565 0.001042
C6    C     C_1   0.534941 0.874960 0.499715 -0.004551
C7    C     C_2   0.027780 0.471246 0.476500 -0.118632
C8    C     C_2   0.972533 0.534659 0.516742 -0.117542
C9    C     C_1   0.854725 0.522425 0.514949 0.157678
C10   C     C_1   0.145405 0.479653 0.482886 0.158397
C11   C     C_R   0.500494 0.499497 0.339581 0.823524
C12   C     C_R   0.499481 0.500177 0.660403 0.824969
C13   C     C_3   0.458440 0.410506 0.969575 0.018636
C14   C     C_3   0.540979 0.586297 0.030233 0.017964
C15   C     C_3   0.558716 0.432222 0.028909 0.018460
C16   C     C_3   0.440729 0.564499 0.970929 0.017317
C17   C     C_1   0.501392 0.498230 0.250125 -0.176177
C18   C     C_1   0.498476 0.500263 0.749827 -0.169838
C19   C     C_3   0.398919 0.475268 0.024710 -0.278632
C20   C     C_3   0.600536 0.521486 0.975147 -0.280450
C21   C     C_3   0.500383 0.497285 0.083151 0.093647
C22   C     C_3   0.499111 0.499469 0.916740 0.094150
C23   C     C_1   0.501267 0.497327 0.174736 -0.057932
C24   C     C_1   0.498442 0.500143 0.825191 -0.054432
C25   C     C_1   0.526508 0.787756 0.500325 -0.174974
C26   C     C_1   0.473332 0.212220 0.499839 -0.171630
Cu1   Cu    Cu3+1 0.395330 0.493960 0.494680 0.979146
Cu2   Cu    Cu3+1 0.604670 0.506040 0.505320 0.977320
H1    H     H_    0.681585 0.540258 0.952295 0.128476
H2    H     H_    0.317901 0.456535 0.047630 0.130079
H3    H     H_    0.378266 0.977955 0.504487 0.147851
H4    H     H_    0.621249 0.022005 0.495885 0.158046
N1    N     N_1   0.238040 0.484880 0.486690 -0.155135
N2    N     N_1   0.761960 0.515120 0.513310 -0.155597
O1    O     O_R   0.399110 0.356330 0.494860 -0.572166
O2    O     O_R   0.600890 0.643670 0.505140 -0.569037
O3    O     O_R   0.575890 0.366540 0.503840 -0.565697
O4    O     O_R   0.424110 0.633460 0.496160 -0.570720
O5    O     O_R   0.411620 0.494890 0.374590 -0.573583
O6    O     O_R   0.588380 0.505110 0.625410 -0.576076
O7    O     O_R   0.588400 0.505100 0.383570 -0.570966
O8    O     O_R   0.411600 0.494900 0.616430 -0.562743
C27   C     C_R   0.620085 0.354346 0.062556 0.112049
C28   C     C_R   0.727133 0.355403 0.045314 -0.160192
C29   C     C_R   0.781269 0.279673 0.073237 -0.137661
C30   C     C_R   0.729026 0.202516 0.118380 -0.129255
C31   C     C_R   0.622914 0.201578 0.136685 -0.144261
C32   C     C_R   0.568562 0.277207 0.108965 -0.129160
H5    H     H_    0.768672 0.413832 0.009630 0.117389
H6    H     H_    0.863618 0.280519 0.059448 0.126523
H7    H     H_    0.770863 0.143635 0.139362 0.114137
H8    H     H_    0.582619 0.141955 0.171912 0.126858
H9    H     H_    0.485933 0.275056 0.122629 0.127998
C33   C     C_R   0.378777 0.641379 0.936080 0.113271
C34   C     C_R   0.270614 0.638088 0.950509 -0.148085
C35   C     C_R   0.215034 0.711482 0.919461 -0.134919
C36   C     C_R   0.266946 0.788553 0.874034 -0.111934
C37   C     C_R   0.374346 0.791959 0.858901 -0.127351
C38   C     C_R   0.430146 0.718648 0.889724 -0.126008
H10   H     H_    0.229104 0.579410 0.985943 0.115471
H11   H     H_    0.131748 0.708816 0.930919 0.116159
H12   H     H_    0.223966 0.845666 0.850689 0.105532
H13   H     H_    0.414449 0.851616 0.823596 0.122516
H14   H     H_    0.513561 0.722415 0.878070 0.125917
C39   C     C_R   0.416798 0.311247 0.932966 0.113781
C40   C     C_R   0.313980 0.265542 0.947876 -0.152515
C41   C     C_R   0.277451 0.172593 0.914579 -0.135252
C42   C     C_R   0.343137 0.124742 0.866289 -0.107985
C43   C     C_R   0.445463 0.169854 0.851086 -0.131667
C44   C     C_R   0.482258 0.262736 0.884264 -0.128424
H15   H     H_    0.262027 0.301146 0.985314 0.116279
H16   H     H_    0.198215 0.137562 0.926350 0.122152
H17   H     H_    0.314787 0.052733 0.840719 0.113908
H18   H     H_    0.496352 0.132777 0.813728 0.128008
H19   H     H_    0.561916 0.296739 0.872360 0.128741
C45   C     C_R   0.582456 0.685672 0.066644 0.113675
C46   C     C_R   0.685340 0.731346 0.051879 -0.155139
C47   C     C_R   0.721729 0.824404 0.085001 -0.136514
C48   C     C_R   0.655836 0.872391 0.132972 -0.106276
C49   C     C_R   0.553438 0.827313 0.148023 -0.132581
C50   C     C_R   0.516780 0.734326 0.115012 -0.131543
H20   H     H_    0.737457 0.695627 0.014697 0.114851
H21   H     H_    0.801020 0.859413 0.073346 0.121530
H22   H     H_    0.684079 0.944476 0.158418 0.113529
H23   H     H_    0.502393 0.864498 0.185134 0.127044
H24   H     H_    0.437069 0.700344 0.126791 0.128136
C51   C     C_R   0.029738 0.619622 0.565468 0.124764
C52   C     C_R   0.007072 0.634355 0.649825 -0.139230
C53   C     C_R   0.061042 0.714076 0.695918 -0.128639
C54   C     C_R   0.137344 0.780028 0.658063 -0.104775
C55   C     C_R   0.159595 0.766623 0.573992 -0.128165
C56   C     C_R   0.105753 0.687144 0.527646 -0.125342
H25   H     H_    0.948492 0.583621 0.680123 0.123538
H26   H     H_    0.043721 0.724701 0.761013 0.120854
H27   H     H_    0.178936 0.841780 0.693674 0.114172
H28   H     H_    0.218351 0.818011 0.544623 0.123941
H29   H     H_    0.122997 0.678495 0.462223 0.123452
C57   C     C_R   0.970519 0.387821 0.425917 0.123564
C58   C     C_R   0.990935 0.292625 0.442645 -0.137705
C59   C     C_R   0.935683 0.213689 0.396360 -0.142697
C60   C     C_R   0.860179 0.229120 0.332797 -0.115865
C61   C     C_R   0.840559 0.323637 0.314755 -0.124383
C62   C     C_R   0.895909 0.402781 0.360606 -0.131394
H30   H     H_    0.048433 0.279386 0.492294 0.127437
H31   H     H_    0.951039 0.140458 0.410074 0.128082
H32   H     H_    0.817012 0.167813 0.297551 0.119074
H33   H     H_    0.782380 0.335726 0.265351 0.153992
H34   H     H_    0.880471 0.475642 0.345276 0.128389

loop_
_geom_bond_atom_site_label_1
_geom_bond_atom_site_label_2
_ccdc_geom_bond_type
C28   H5    S    
C7    C10   S    
C34   C35   A    
C60   C61   A    
C7    C57   S    
C33   C34   A    
C51   C52   A    
C3    C6    S    
C36   C37   A    
C36   H12   S    
C13   C39   S    
C46   C47   A    
Cu1   N1    S    
C38   H14   S    
C17   C23   T    
C18   C24   T    
C46   H20   S    
C14   C21   S    
C19   C21   S    
C48   H22   S    
C6    C25   T    
Cu2   O6    S    
Cu1   O4    S    
C57   C62   A    
Cu2   O7    S    
C37   H13   S    
C35   C36   A    
C41   H16   S    
C53   H26   S    
C12   O8    A    
C61   C62   A    
C55   H28   S    
C52   H25   S    
C47   H21   S    
C58   C59   A    
Cu1   O5    S    
C42   C43   A    
C3    H4    S    
C11   O7    A    
C62   H34   S    
C2    C25   S    
C27   C32   A    
C50   H24   S    
C1    O3    A    
C20   H1    S    
C58   H30   S    
Cu2   N2    S    
C34   H10   S    
C15   C20   S    
C56   H29   S    
C33   C38   A    
C43   H18   S    
C32   H9    S    
C13   C19   S    
C41   C42   A    
C31   C32   A    
C14   C20   S    
C7    C8    D    
C45   C46   A    
C55   C56   A    
C47   C48   A    
C8    C9    S    
Cu1   O1    S    
C42   H17   S    
C29   C30   A    
C30   H7    S    
C48   C49   A    
C14   C45   S    
C12   O6    A    
C27   C28   A    
C49   H23   S    
C2    O4    A    
C40   H15   S    
C15   C21   S    
C59   H31   S    
C61   H33   S    
C11   O5    A    
C20   C22   S    
C57   C58   A    
C13   C15   S    
C1    C26   S    
C14   C16   S    
C3    C4    D    
Cu1   Cu2   S    
C28   C29   A    
C1    O1    A    
C2    O2    A    
C60   H32   S    
C30   C31   A    
C11   C17   S    
C16   C22   S    
C49   C50   A    
C54   H27   S    
C45   C50   A    
C31   H8    S    
C8    C51   S    
C21   C23   S    
C37   C38   A    
C15   C27   S    
C29   H6    S    
Cu1   O8    S    
C54   C55   A    
C9    N2    T    
Cu2   O3    S    
C16   C19   S    
C59   C60   A    
C13   C22   S    
C40   C41   A    
C10   N1    T    
C22   C24   S    
C43   C44   A    
C16   C33   S    
C4    H3    S    
C5    C26   T    
C4    C5    S    
C52   C53   A    
Cu2   O2    S    
C39   C40   A    
C12   C18   S    
C44   H19   S    
C35   H11   S    
C53   C54   A    
C51   C56   A    
C19   H2    S    
C39   C44   A    
