data_mof_unit_16030.cif
_audit_creation_date              2012-12-10T18:17:27-0500
_audit_creation_method            fapswitch 2.2
_symmetry_space_group_name_H-M    P1
_symmetry_Int_Tables_number       1
_space_group_crystal_system       triclinic
_cell_length_a                    20.304561
_cell_length_b                    21.751918
_cell_length_c                    14.330003
_cell_angle_alpha                 88.837035
_cell_angle_beta                  90.007209
_cell_angle_gamma                 90.001464
_cell_volume                      6327.73044525

loop_
_atom_site_label
_atom_site_type_symbol
_atom_type_description
_atom_site_fract_x
_atom_site_fract_y
_atom_site_fract_z
_atom_type_partial_charge
C1    C     C_R   0.086282 0.413668 0.500327 0.870910
C2    C     C_R   0.913532 0.586125 0.499324 0.870941
C3    C     C_R   0.913531 0.413876 0.500670 0.870984
C4    C     C_R   0.086279 0.586332 0.499677 0.870943
C5    C     C_R   0.586282 0.913667 0.500327 0.870902
C6    C     C_R   0.413532 0.086125 0.499323 0.870952
C7    C     C_R   0.413532 0.913877 0.500669 0.870959
C8    C     C_R   0.586281 0.086332 0.499679 0.870950
C9    C     C_R   0.940952 0.503013 0.799120 0.143599
C10   C     C_R   0.058689 0.502752 0.200304 0.147360
C11   C     C_R   0.058690 0.497311 0.799717 0.147359
C12   C     C_R   0.940955 0.496958 0.200860 0.143553
C13   C     C_R   0.440953 0.003020 0.799120 0.143569
C14   C     C_R   0.558689 0.002727 0.200302 0.147372
C15   C     C_R   0.558689 0.997292 0.799717 0.147348
C16   C     C_R   0.440954 0.996966 0.200861 0.143577
C17   C     C_R   0.059021 0.499703 0.899709 0.010137
C18   C     C_R   0.940075 0.498976 0.100572 0.014004
C19   C     C_R   0.940074 0.500994 0.899409 0.014003
C20   C     C_R   0.059023 0.500399 0.100309 0.010138
C21   C     C_R   0.559020 0.999670 0.899710 0.010141
C22   C     C_R   0.440074 0.998983 0.100572 0.014001
C23   C     C_R   0.440073 0.001001 0.899409 0.013999
C24   C     C_R   0.559021 0.000359 0.100309 0.010135
C25   C     C_R   0.999495 0.500165 0.949640 0.047468
C26   C     C_R   0.999495 0.499869 0.050360 0.047487
C27   C     C_R   0.499493 0.000152 0.949640 0.047475
C28   C     C_R   0.499494 0.999854 0.050360 0.047478
C29   C     C_R   0.117951 0.500638 0.951635 -0.217510
C30   C     C_R   0.881029 0.499792 0.048549 -0.217820
C31   C     C_R   0.881029 0.500124 0.951412 -0.217816
C32   C     C_R   0.117954 0.499565 0.048397 -0.217625
C33   C     C_R   0.617950 0.000570 0.951638 -0.217547
C34   C     C_R   0.381027 0.999815 0.048549 -0.217820
C35   C     C_R   0.381027 0.000147 0.951412 -0.217813
C36   C     C_R   0.617951 0.999489 0.048399 -0.217588
C37   C     C_R   0.118956 0.688896 0.544211 -0.250913
C38   C     C_R   0.880726 0.311411 0.457012 -0.260967
C39   C     C_R   0.880707 0.688567 0.543067 -0.260979
C40   C     C_R   0.119061 0.311200 0.455457 -0.250918
C41   C     C_R   0.619024 0.188836 0.544420 -0.250917
C42   C     C_R   0.380776 0.811366 0.457175 -0.260968
C43   C     C_R   0.380694 0.188557 0.543102 -0.260967
C44   C     C_R   0.619047 0.811187 0.455492 -0.250926
C45   C     C_R   0.133965 0.634173 0.500023 -0.049811
C46   C     C_R   0.866310 0.365722 0.502489 -0.033547
C47   C     C_R   0.866314 0.634284 0.497492 -0.033605
C48   C     C_R   0.133973 0.365828 0.499976 -0.049836
C49   C     C_R   0.633973 0.134168 0.500039 -0.049841
C50   C     C_R   0.366305 0.865727 0.502482 -0.033425
C51   C     C_R   0.366315 0.134285 0.497490 -0.033628
C52   C     C_R   0.633972 0.865827 0.499977 -0.049839
C53   C     C_R   0.195424 0.623653 0.460772 -0.295229
C54   C     C_R   0.807115 0.374329 0.549596 -0.290575
C55   C     C_R   0.807143 0.625707 0.450294 -0.290527
C56   C     C_R   0.195362 0.376274 0.539521 -0.295425
C57   C     C_R   0.695391 0.123687 0.460632 -0.295332
C58   C     C_R   0.307046 0.874393 0.549393 -0.290658
C59   C     C_R   0.307158 0.125721 0.450254 -0.290523
C60   C     C_R   0.695370 0.876283 0.539489 -0.295397
C61   C     C_R   0.242402 0.669791 0.460839 0.140317
C62   C     C_R   0.760017 0.328260 0.549270 0.133932
C63   C     C_R   0.760045 0.671774 0.450624 0.133913
C64   C     C_R   0.242344 0.330142 0.539434 0.140338
C65   C     C_R   0.742372 0.169821 0.460710 0.140336
C66   C     C_R   0.259941 0.828330 0.549044 0.133962
C67   C     C_R   0.260060 0.171788 0.450584 0.133909
C68   C     C_R   0.742352 0.830151 0.539402 0.140339
C69   C     C_R   0.227409 0.725987 0.503698 0.051929
C70   C     C_R   0.774228 0.272724 0.503988 0.053091
C71   C     C_R   0.774232 0.727280 0.496009 0.053108
C72   C     C_R   0.227437 0.274035 0.496255 0.051979
C73   C     C_R   0.727432 0.225969 0.503748 0.051951
C74   C     C_R   0.274208 0.772741 0.503943 0.053089
C75   C     C_R   0.274235 0.227282 0.496005 0.053117
C76   C     C_R   0.727434 0.774032 0.496258 0.051964
C77   C     C_R   0.165675 0.735282 0.546618 0.120997
C78   C     C_R   0.835250 0.264004 0.458795 0.124379
C79   C     C_R   0.835231 0.735973 0.541295 0.124377
C80   C     C_R   0.165791 0.264827 0.453021 0.120961
C81   C     C_R   0.665751 0.235214 0.546849 0.120976
C82   C     C_R   0.335290 0.763966 0.458940 0.124393
C83   C     C_R   0.335221 0.235963 0.541328 0.124365
C84   C     C_R   0.665776 0.764814 0.453059 0.120975
C85   C     C_R   0.303840 0.660788 0.418971 -0.227043
C86   C     C_R   0.699102 0.336811 0.592881 -0.220224
C87   C     C_R   0.699151 0.663250 0.406920 -0.220224
C88   C     C_R   0.303703 0.339064 0.581594 -0.226982
C89   C     C_R   0.803762 0.160864 0.418673 -0.227020
C90   C     C_R   0.198964 0.836937 0.592456 -0.220236
C91   C     C_R   0.199180 0.163276 0.406840 -0.220235
C92   C     C_R   0.803723 0.839084 0.581529 -0.226982
C93   C     C_R   0.849808 0.208150 0.416666 -0.225085
C94   C     C_R   0.151764 0.790612 0.590800 -0.221896
C95   C     C_R   0.151976 0.209596 0.408502 -0.221929
C96   C     C_R   0.849769 0.791799 0.583525 -0.225123
C97   C     C_R   0.349895 0.708067 0.416979 -0.225054
C98   C     C_R   0.651900 0.290488 0.591227 -0.221906
C99   C     C_R   0.651948 0.709570 0.408579 -0.221930
C100  C     C_R   0.349747 0.291779 0.583594 -0.225132
H1    H     H_    0.070977 0.695150 0.576047 0.134769
H2    H     H_    0.927646 0.306000 0.421809 0.131996
H3    H     H_    0.927608 0.693958 0.578342 0.132024
H4    H     H_    0.071146 0.305006 0.423383 0.134909
H5    H     H_    0.571083 0.195057 0.576389 0.134859
H6    H     H_    0.427744 0.805913 0.422117 0.131928
H7    H     H_    0.427585 0.193938 0.578406 0.132046
H8    H     H_    0.571124 0.804986 0.423443 0.134875
H9    H     H_    0.206417 0.579338 0.431531 0.144880
H10   H     H_    0.797381 0.417367 0.584081 0.130755
H11   H     H_    0.797425 0.582691 0.415736 0.130781
H12   H     H_    0.206301 0.420531 0.568993 0.145081
H13   H     H_    0.706351 0.079404 0.431263 0.145011
H14   H     H_    0.297270 0.917471 0.583740 0.130686
H15   H     H_    0.297449 0.082714 0.415667 0.130790
H16   H     H_    0.706317 0.920547 0.568937 0.145069
H17   H     H_    0.316060 0.617510 0.387208 0.150247
H18   H     H_    0.687902 0.379366 0.627591 0.145243
H19   H     H_    0.687969 0.620719 0.372131 0.145242
H20   H     H_    0.315871 0.382282 0.613578 0.150284
H21   H     H_    0.815950 0.117620 0.386788 0.150272
H22   H     H_    0.187718 0.879534 0.627015 0.145259
H23   H     H_    0.188008 0.120755 0.372022 0.145242
H24   H     H_    0.815898 0.882309 0.613488 0.150278
H25   H     H_    0.896819 0.200994 0.382754 0.144498
H26   H     H_    0.104551 0.797943 0.624045 0.144036
H27   H     H_    0.104835 0.202336 0.375003 0.144036
H28   H     H_    0.896763 0.798935 0.617508 0.144485
H29   H     H_    0.396949 0.700871 0.383209 0.144503
H30   H     H_    0.604732 0.297777 0.624621 0.144035
H31   H     H_    0.604797 0.702301 0.375109 0.144025
H32   H     H_    0.396732 0.298906 0.617604 0.144495
H33   H     H_    0.165761 0.501837 0.919175 0.165837
H34   H     H_    0.833159 0.500200 0.081124 0.152409
H35   H     H_    0.833159 0.499671 0.918821 0.152404
H36   H     H_    0.165769 0.498445 0.080865 0.165840
H37   H     H_    0.665761 0.001748 0.919181 0.165848
H38   H     H_    0.333158 0.000237 0.081125 0.152420
H39   H     H_    0.333158 0.999707 0.918821 0.152405
H40   H     H_    0.665764 0.998336 0.080868 0.165847
N1    N     N_R   0.000000 0.500000 0.750030 -0.134482
N2    N     N_R   1.000000 0.500000 0.249970 -0.134481
N3    N     N_R   0.500000 1.000000 0.750030 -0.134483
N4    N     N_R   0.500000 0.000000 0.249970 -0.134479
O1    O     O_R   0.066090 0.433930 0.580280 -0.632954
O2    O     O_R   0.933910 0.566070 0.419720 -0.634552
O3    O     O_R   0.933910 0.566070 0.580280 -0.634455
O4    O     O_R   0.066090 0.433930 0.419720 -0.638499
O5    O     O_R   0.933910 0.433930 0.419720 -0.634463
O6    O     O_R   0.066090 0.566070 0.580280 -0.638448
O7    O     O_R   0.066090 0.566070 0.419720 -0.632972
O8    O     O_R   0.933910 0.433930 0.580280 -0.634550
O9    O     O_R   0.566090 0.933930 0.580280 -0.632964
O10   O     O_R   0.433910 0.066070 0.419720 -0.634555
O11   O     O_R   0.433910 0.066070 0.580280 -0.634464
O12   O     O_R   0.566090 0.933930 0.419720 -0.638476
O13   O     O_R   0.433910 0.933930 0.419720 -0.634456
O14   O     O_R   0.566090 0.066070 0.580280 -0.638477
O15   O     O_R   0.566090 0.066070 0.419720 -0.632964
O16   O     O_R   0.433910 0.933930 0.580280 -0.634535
Zn1   Zn    Zn3+2 0.000000 0.500000 0.607200 0.915160
Zn2   Zn    Zn3+2 1.000000 0.500000 0.392800 0.915131
Zn3   Zn    Zn3+2 0.500000 0.000000 0.607200 0.915146
Zn4   Zn    Zn3+2 0.500000 0.000000 0.392800 0.915146
C101  C     C_3   0.875614 0.508827 0.747949 -0.372193
C102  C     C_3   0.846577 0.574066 0.754252 -0.351043
C103  C     C_3   0.780304 0.578556 0.704266 -0.877556
H41   H     H_    0.785045 0.563975 0.630801 0.262096
H42   H     H_    0.743494 0.548729 0.740363 0.252168
H43   H     H_    0.762505 0.626829 0.704541 0.260187
H44   H     H_    0.839407 0.587374 0.827829 0.216048
H45   H     H_    0.881062 0.608116 0.722559 0.248812
H46   H     H_    0.879825 0.497454 0.674866 0.260346
H47   H     H_    0.840308 0.473744 0.774746 0.162303
C104  C     C_3   0.124520 0.508710 0.249838 -0.368146
C105  C     C_3   0.156264 0.572435 0.231601 -0.352767
C106  C     C_3   0.231429 0.568818 0.232255 -0.921398
H48   H     H_    0.249343 0.543169 0.294944 0.255152
H49   H     H_    0.249411 0.545017 0.169415 0.257078
H50   H     H_    0.252371 0.615971 0.231680 0.263234
H51   H     H_    0.140730 0.593060 0.163580 0.227876
H52   H     H_    0.139659 0.604851 0.285446 0.247557
H53   H     H_    0.121390 0.501077 0.324911 0.249881
H54   H     H_    0.157314 0.470833 0.227577 0.177166
C107  C     C_3   0.124521 0.491355 0.750215 -0.368178
C108  C     C_3   0.156301 0.427663 0.768599 -0.352853
C109  C     C_3   0.231465 0.431329 0.768094 -0.921627
H55   H     H_    0.249416 0.456916 0.705376 0.255149
H56   H     H_    0.249378 0.455212 0.830903 0.257132
H57   H     H_    0.252436 0.384189 0.768848 0.263161
H58   H     H_    0.140729 0.407065 0.836616 0.227972
H59   H     H_    0.139759 0.395205 0.714767 0.247423
H60   H     H_    0.121380 0.498911 0.675126 0.249848
H61   H     H_    0.157289 0.529275 0.772402 0.177223
C110  C     C_3   0.875620 0.491132 0.252013 -0.372175
C111  C     C_3   0.846606 0.425880 0.245736 -0.350983
C112  C     C_3   0.780324 0.421384 0.295680 -0.877539
H62   H     H_    0.785043 0.436007 0.369129 0.262101
H63   H     H_    0.743507 0.451176 0.259522 0.252160
H64   H     H_    0.762548 0.373103 0.295451 0.260184
H65   H     H_    0.839452 0.412546 0.172165 0.216009
H66   H     H_    0.881096 0.391849 0.277473 0.248813
H67   H     H_    0.879829 0.502534 0.325089 0.260304
H68   H     H_    0.840301 0.526194 0.225181 0.162284
C113  C     C_3   0.375614 0.008838 0.747948 -0.372132
C114  C     C_3   0.346585 0.074081 0.754242 -0.351048
C115  C     C_3   0.280314 0.078575 0.704251 -0.877521
H69   H     H_    0.285055 0.063988 0.630787 0.262082
H70   H     H_    0.243498 0.048754 0.740349 0.252168
H71   H     H_    0.262521 0.126850 0.704517 0.260184
H72   H     H_    0.339414 0.087393 0.827817 0.216031
H73   H     H_    0.381075 0.108126 0.722550 0.248799
H74   H     H_    0.379823 0.997456 0.674868 0.260349
H75   H     H_    0.340305 0.973761 0.774752 0.162330
C116  C     C_3   0.624520 0.008689 0.249828 -0.368148
C117  C     C_3   0.656275 0.072402 0.231526 -0.352784
C118  C     C_3   0.731441 0.068768 0.232113 -0.921533
H76   H     H_    0.749377 0.043136 0.294805 0.255148
H77   H     H_    0.749389 0.044941 0.169278 0.257101
H78   H     H_    0.752393 0.115916 0.231474 0.263199
H79   H     H_    0.640719 0.093014 0.163506 0.227915
H80   H     H_    0.639699 0.104836 0.285363 0.247488
H81   H     H_    0.621390 0.001088 0.324908 0.249854
H82   H     H_    0.657305 0.970795 0.227602 0.177189
C119  C     C_3   0.624520 0.991334 0.750213 -0.368171
C120  C     C_3   0.656286 0.927631 0.768562 -0.352824
C121  C     C_3   0.731451 0.931282 0.768055 -0.921620
H83   H     H_    0.749405 0.956885 0.705355 0.255154
H84   H     H_    0.749372 0.955142 0.830880 0.257122
H85   H     H_    0.752411 0.884138 0.768773 0.263179
H86   H     H_    0.640711 0.907021 0.836569 0.227956
H87   H     H_    0.639736 0.895189 0.714715 0.247449
H88   H     H_    0.621382 0.998912 0.675128 0.249846
H89   H     H_    0.657297 0.029241 0.772424 0.177210
C122  C     C_3   0.375618 0.991146 0.252013 -0.372210
C123  C     C_3   0.346591 0.925900 0.245725 -0.351009
C124  C     C_3   0.280296 0.921420 0.295632 -0.877593
H90   H     H_    0.284996 0.936055 0.369076 0.262107
H91   H     H_    0.243493 0.951211 0.259441 0.252170
H92   H     H_    0.262512 0.873141 0.295411 0.260191
H93   H     H_    0.339455 0.912563 0.172152 0.216036
H94   H     H_    0.381064 0.891864 0.277486 0.248849
H95   H     H_    0.379829 0.002537 0.325093 0.260303
H96   H     H_    0.340307 0.026217 0.225188 0.162299

loop_
_geom_bond_atom_site_label_1
_geom_bond_atom_site_label_2
_ccdc_geom_bond_type
C29   H33   S    
N1    Zn1   S    
C101  C102  S    
C110  H67   S    
C70   C78   A    
C43   C83   A    
C69   C77   A    
C42   C82   A    
C107  H61   S    
C19   C31   A    
C116  H82   S    
C76   C84   A    
C71   C79   A    
C49   C57   A    
C66   C90   A    
C113  C114  S    
C118  H78   S    
C102  H45   S    
O2    Zn2   S    
C54   H10   S    
C3    O8    A    
C24   C36   A    
C14   C24   A    
O9    Zn3   S    
C119  H89   S    
O10   Zn4   S    
C16   N4    A    
C29   C32   A    
C73   C81   A    
C92   H24   S    
C30   C31   A    
C109  H56   S    
C5    O9    A    
C64   C88   A    
C21   C33   A    
C81   C98   A    
C78   C93   A    
C101  H46   S    
C120  H86   S    
C66   C74   A    
C77   C94   A    
C92   C96   A    
C33   C36   A    
C17   C29   A    
C123  C124  S    
C96   H28   S    
C48   C56   A    
C34   C35   A    
C10   N2    A    
C123  H94   S    
C108  H58   S    
C112  H63   S    
C117  H79   S    
C109  H57   S    
C44   C84   A    
C52   C60   A    
C59   C67   A    
C53   C61   A    
C114  H72   S    
C58   C66   A    
C121  H83   S    
C33   H37   S    
C106  H49   S    
C55   C63   A    
C115  H71   S    
C63   C87   A    
C122  C123  S    
C56   C64   A    
C5    C52   S    
C18   C30   A    
C13   N3    A    
C23   C27   A    
C6    C51   S    
C88   H20   S    
C6    O11   A    
C38   H2    S    
C35   H39   S    
O7    Zn2   S    
C44   H8    S    
C21   C27   A    
C8    O14   A    
C102  H44   S    
C91   H23   S    
C124  H90   S    
N4    Zn4   S    
C89   C93   A    
C90   H22   S    
C62   C70   A    
C46   C54   A    
C112  H62   S    
C74   C82   A    
C72   C75   A    
C19   C25   A    
O8    Zn1   S    
N3    Zn3   S    
C22   C28   A    
C13   C23   A    
C9    C19   A    
C90   C94   A    
C103  H43   S    
C87   C99   A    
C4    C45   S    
C94   H26   S    
C105  H51   S    
C22   C34   A    
C14   N4    A    
C3    O5    A    
C7    O13   A    
C115  H69   S    
C50   C58   A    
O16   Zn3   S    
C117  C118  S    
C103  H42   S    
O3    Zn1   S    
C65   C73   A    
C10   C20   A    
C103  H41   S    
C32   H36   S    
C9    N1    A    
C114  C115  S    
C68   C92   A    
C57   H13   S    
C110  H68   S    
C38   C78   A    
C16   C122  S    
C30   H34   S    
C25   C26   A    
C39   C47   A    
C37   C77   A    
C34   H38   S    
C39   C79   A    
C123  H93   S    
C112  H64   S    
C105  H52   S    
C116  C117  S    
C87   H19   S    
C95   H27   S    
C40   H4    S    
C42   H6    S    
C104  C105  S    
C15   C21   A    
C106  H50   S    
C41   C81   A    
C18   C26   A    
C98   H30   S    
C70   C73   A    
C67   C91   A    
C119  C120  S    
C69   C74   A    
C86   H18   S    
C40   C80   A    
C43   H7    S    
C68   C76   A    
C17   C25   A    
C80   C95   A    
C85   H17   S    
C11   N1    A    
O13   Zn4   S    
C122  H95   S    
C88   C100  A    
C61   C85   A    
O14   Zn3   S    
C42   C50   A    
C15   N3    A    
C63   C71   A    
C31   H35   S    
C105  C106  S    
C118  H76   S    
C15   C119  S    
C113  H75   S    
C120  C121  S    
C23   C35   A    
C83   C100  A    
C124  H91   S    
C102  C103  S    
C82   C97   A    
C13   C113  S    
C60   H16   S    
C67   C75   A    
C1    O1    A    
C37   C45   A    
C5    O12   A    
C75   C83   A    
C119  H88   S    
C62   C86   A    
C47   C55   A    
C20   C32   A    
C61   C69   A    
C10   C104  S    
C40   C48   A    
C4    O7    A    
C11   C17   A    
C16   C22   A    
C55   H11   S    
C11   C107  S    
C104  H53   S    
C24   C28   A    
C7    C50   S    
C107  H60   S    
C111  C112  S    
C20   C26   A    
C116  H81   S    
N2    Zn2   S    
C115  H70   S    
O6    Zn1   S    
C1    C48   S    
C39   H3    S    
C7    O16   A    
C99   H31   S    
C2    C47   S    
C2    O2    A    
C41   C49   A    
C4    O6    A    
C65   C89   A    
C3    C46   S    
C2    O3    A    
C84   C99   A    
O1    Zn1   S    
C60   C68   A    
O11   Zn3   S    
C9    C101  S    
C101  H47   S    
C97   H29   S    
C79   C96   A    
C72   C80   A    
C121  H84   S    
C100  H32   S    
C37   H1    S    
C111  H65   S    
C6    O10   A    
C44   C52   A    
C107  C108  S    
C71   C76   A    
C89   H21   S    
C43   C51   A    
C120  H87   S    
C45   C53   A    
O4    Zn2   S    
C12   C110  S    
C12   N2    A    
C14   C116  S    
C64   C72   A    
C108  H59   S    
C118  H77   S    
C86   C98   A    
C93   H25   S    
C122  H96   S    
C38   C46   A    
C117  H80   S    
C85   C97   A    
C113  H74   S    
C110  C111  S    
C114  H73   S    
C109  H55   S    
C121  H85   S    
C51   C59   A    
C41   H5    S    
O12   Zn4   S    
C91   C95   A    
C59   H15   S    
C106  H48   S    
C124  H92   S    
C12   C18   A    
C27   C28   A    
C58   H14   S    
O15   Zn4   S    
C54   C62   A    
C1    O4    A    
C53   H9    S    
O5    Zn2   S    
C36   H40   S    
C108  C109  S    
C8    O15   A    
C111  H66   S    
C8    C49   S    
C56   H12   S    
C104  H54   S    
C57   C65   A    
