data_mof_unit_13755.cif
_audit_creation_date              2012-12-11T15:07:01-0500
_audit_creation_method            fapswitch 2.2
_symmetry_space_group_name_H-M    P1
_symmetry_Int_Tables_number       1
_space_group_crystal_system       triclinic
_cell_length_a                    19.591159
_cell_length_b                    11.430541
_cell_length_c                    18.711828
_cell_angle_alpha                 90.0
_cell_angle_beta                  89.889134
_cell_angle_gamma                 90.000021
_cell_volume                      4190.27300251

loop_
_atom_site_label
_atom_site_type_symbol
_atom_type_description
_atom_site_fract_x
_atom_site_fract_y
_atom_site_fract_z
_atom_type_partial_charge
C1    C     C_R   0.761353 0.524605 0.639541 0.517458
C2    C     C_3   0.254229 0.061024 0.563846 0.018446
C3    C     C_R   0.740413 0.034389 0.151728 0.543776
C4    C     C_R   0.773748 0.131774 0.858532 0.529610
C5    C     C_R   0.226251 0.131773 0.141468 0.529610
C6    C     C_R   0.273748 0.631773 0.858532 0.529609
C7    C     C_R   0.726251 0.631773 0.141468 0.529609
C8    C     C_R   0.967839 0.353906 0.854096 0.532895
C9    C     C_R   0.032161 0.353906 0.145903 0.532894
C10   C     C_R   0.467839 0.853906 0.854096 0.532895
C11   C     C_R   0.532161 0.853906 0.145903 0.532895
C12   C     C_3   0.682074 0.124874 0.467452 -0.083043
C13   C     C_3   0.245771 0.561022 0.436154 0.018440
C14   C     C_3   0.317926 0.124874 0.532548 -0.083041
C15   C     C_3   0.182074 0.624873 0.467452 -0.083048
C16   C     C_3   0.817926 0.624874 0.532548 -0.083041
C17   C     C_3   0.692525 0.152712 0.547040 -0.192640
C18   C     C_3   0.307475 0.152710 0.452960 -0.192635
C19   C     C_3   0.192525 0.652712 0.547040 -0.192651
C20   C     C_3   0.807475 0.652711 0.452960 -0.192635
C21   C     C_3   0.757802 0.945897 0.480080 -0.232932
C22   C     C_3   0.242197 0.945898 0.519920 -0.232934
C23   C     C_3   0.257802 0.445896 0.480080 -0.232932
C24   C     C_3   0.754229 0.561024 0.563846 0.018443
C25   C     C_3   0.742197 0.445898 0.519920 -0.232932
C26   C     C_2   0.654467 0.225911 0.425055 0.199767
C27   C     C_2   0.345534 0.225912 0.574944 0.199760
C28   C     C_2   0.154468 0.725909 0.425054 0.199780
C29   C     C_2   0.845534 0.725912 0.574944 0.199761
C30   C     C_3   0.759606 0.095897 0.573603 0.031212
C31   C     C_3   0.240393 0.095898 0.426397 0.031211
C32   C     C_3   0.259606 0.595897 0.573603 0.031215
C33   C     C_3   0.740394 0.595897 0.426397 0.031210
C34   C     C_3   0.751969 0.965841 0.561000 -0.272793
C35   C     C_3   0.248029 0.965841 0.439001 -0.272799
C36   C     C_3   0.251969 0.465840 0.561000 -0.272792
C37   C     C_R   0.238647 0.524604 0.360459 0.517459
C38   C     C_3   0.748030 0.465841 0.439000 -0.272795
C39   C     C_3   0.821825 0.139326 0.528640 -0.226775
C40   C     C_3   0.178175 0.139328 0.471360 -0.226775
C41   C     C_3   0.321825 0.639326 0.528640 -0.226774
C42   C     C_3   0.678175 0.639327 0.471360 -0.226775
C43   C     C_3   0.003593 0.202809 0.458770 -0.221044
C44   C     C_3   0.996406 0.202809 0.541230 -0.221044
C45   C     C_3   0.503593 0.702809 0.458770 -0.221043
C46   C     C_3   0.496406 0.702809 0.541230 -0.221043
C47   C     C_3   0.063608 0.401178 0.472951 -0.219081
C48   C     C_R   0.261353 0.024605 0.639541 0.517459
C49   C     C_3   0.936392 0.401178 0.527049 -0.219081
C50   C     C_3   0.563608 0.901178 0.472951 -0.219081
C51   C     C_3   0.436392 0.901178 0.527049 -0.219081
C52   C     C_3   0.940192 0.385813 0.445802 -0.270951
C53   C     C_3   0.059807 0.385813 0.554198 -0.270952
C54   C     C_3   0.440192 0.885813 0.445802 -0.270951
C55   C     C_3   0.559807 0.885813 0.554198 -0.270952
C56   C     C_3   0.009213 0.330184 0.430476 0.054365
C57   C     C_3   0.990786 0.330184 0.569524 0.054365
C58   C     C_3   0.509213 0.830184 0.430476 0.054365
C59   C     C_R   0.738647 0.024604 0.360459 0.517458
C60   C     C_3   0.490786 0.830184 0.569524 0.054365
C61   C     C_3   0.813134 0.001399 0.042384 -0.031248
C62   C     C_3   0.186866 0.001398 0.957615 -0.031248
C63   C     C_3   0.313134 0.501399 0.042384 -0.031248
C64   C     C_3   0.686866 0.501399 0.957615 -0.031247
C65   C     C_R   0.774420 0.123036 0.649007 0.530529
C66   C     C_R   0.225580 0.123036 0.350993 0.530529
C67   C     C_R   0.274420 0.623036 0.649007 0.530530
C68   C     C_R   0.725580 0.623036 0.350993 0.530529
C69   C     C_3   0.821177 0.028614 0.964315 -0.198846
C70   C     C_3   0.807046 0.140594 0.448128 -0.271998
C71   C     C_3   0.178823 0.028614 0.035685 -0.198846
C72   C     C_3   0.321177 0.528614 0.964314 -0.198846
C73   C     C_3   0.678822 0.528614 0.035685 -0.198846
C74   C     C_3   0.684728 0.031430 0.032896 -0.245711
C75   C     C_3   0.315272 0.031430 0.967104 -0.245712
C76   C     C_3   0.184728 0.531430 0.032896 -0.245712
C77   C     C_3   0.815272 0.531429 0.967104 -0.245711
C78   C     C_3   0.761549 0.197958 0.061342 -0.264664
C79   C     C_3   0.238451 0.197958 0.938658 -0.264664
C80   C     C_3   0.261549 0.697958 0.061342 -0.264664
C81   C     C_3   0.192954 0.140596 0.551873 -0.271996
C82   C     C_3   0.738452 0.697958 0.938658 -0.264664
C83   C     C_3   0.750521 0.067832 0.075160 0.057744
C84   C     C_3   0.249479 0.067832 0.924840 0.057744
C85   C     C_3   0.250521 0.567832 0.075160 0.057744
C86   C     C_3   0.749479 0.567832 0.924840 0.057744
C87   C     C_3   0.760386 0.102139 0.935725 0.036739
C88   C     C_3   0.239613 0.102139 0.064275 0.036739
C89   C     C_3   0.260386 0.602139 0.935724 0.036739
C90   C     C_3   0.739613 0.602139 0.064275 0.036739
C91   C     C_3   0.696366 0.029223 0.950526 -0.276711
C92   C     C_3   0.307047 0.640593 0.448128 -0.271998
C93   C     C_3   0.303634 0.029223 0.049474 -0.276711
C94   C     C_3   0.196366 0.529222 0.950525 -0.276711
C95   C     C_3   0.803634 0.529222 0.049474 -0.276711
C96   C     C_3   0.752022 0.216856 0.979981 -0.232607
C97   C     C_3   0.247978 0.216856 0.020019 -0.232607
C98   C     C_3   0.252022 0.716856 0.979980 -0.232607
C99   C     C_3   0.747978 0.716856 0.020019 -0.232607
C100  C     C_3   0.006204 0.481688 0.040030 -0.220528
C101  C     C_3   0.993795 0.481688 0.959970 -0.220528
C102  C     C_3   0.506204 0.981688 0.040030 -0.220527
C103  C     C_3   0.692954 0.640596 0.551872 -0.271997
C104  C     C_3   0.493796 0.981688 0.959970 -0.220527
C105  C     C_3   0.063704 0.279788 0.025863 -0.217990
C106  C     C_3   0.936296 0.279788 0.974137 -0.217990
C107  C     C_3   0.563704 0.779788 0.025863 -0.217990
C108  C     C_3   0.436296 0.779788 0.974137 -0.217990
C109  C     C_3   0.941124 0.302373 0.055442 -0.264349
C110  C     C_3   0.058876 0.302373 0.944558 -0.264350
C111  C     C_3   0.441124 0.802373 0.055442 -0.264349
C112  C     C_3   0.558876 0.802373 0.944558 -0.264350
C113  C     C_R   0.970043 0.341693 0.645637 0.530120
C114  C     C_3   0.745771 0.061023 0.436154 0.018441
C115  C     C_R   0.029957 0.341693 0.354363 0.530119
C116  C     C_R   0.470043 0.841693 0.645637 0.530120
C117  C     C_R   0.529957 0.841693 0.354363 0.530120
C118  C     C_3   0.011187 0.354584 0.069256 0.051107
C119  C     C_3   0.988813 0.354584 0.930744 0.051107
C120  C     C_3   0.511187 0.854584 0.069256 0.051107
C121  C     C_3   0.488813 0.854584 0.930744 0.051107
C122  C     C_R   0.759587 0.534389 0.848272 0.543775
C123  C     C_R   0.240413 0.534389 0.151728 0.543776
C124  C     C_R   0.259587 0.034389 0.848272 0.543775
Cr1   Cr    Cr6+3 0.885690 0.492860 0.745310 1.020757
Cr2   Cr    Cr6+3 0.111880 0.178590 0.246990 1.036983
Cr3   Cr    Cr6+3 0.388120 0.678590 0.753010 1.036981
Cr4   Cr    Cr6+3 0.611880 0.678590 0.246990 1.036982
Cr5   Cr    Cr6+3 0.114310 0.492860 0.254690 1.020771
Cr6   Cr    Cr6+3 0.385690 0.992860 0.745310 1.020757
Cr7   Cr    Cr6+3 0.614310 0.992860 0.254690 1.020762
Cr8   Cr    Cr6+3 0.729880 0.332270 0.748190 1.041573
Cr9   Cr    Cr6+3 0.270120 0.332270 0.251810 1.041573
Cr10  Cr    Cr6+3 0.229880 0.832270 0.748190 1.041572
Cr11  Cr    Cr6+3 0.770120 0.832270 0.251810 1.041575
Cr12  Cr    Cr6+3 0.888120 0.178590 0.753010 1.036981
H1    H     H_    0.642559 0.062626 0.465655 0.134675
H2    H     H_    0.188746 0.918922 0.530363 0.178241
H3    H     H_    0.885164 0.288849 0.953844 0.107286
H4    H     H_    0.599573 0.862216 0.926427 0.107865
H5    H     H_    0.400427 0.862215 0.073573 0.107865
H6    H     H_    0.099573 0.362215 0.926427 0.107865
H7    H     H_    0.900427 0.362215 0.073573 0.107865
H8    H     H_    0.935113 0.221952 0.086466 0.166643
H9    H     H_    0.064887 0.221952 0.913534 0.166643
H10   H     H_    0.435113 0.721952 0.086466 0.166643
H11   H     H_    0.564887 0.721952 0.913534 0.166643
H12   H     H_    0.950384 0.187277 0.964972 0.165726
H13   H     H_    0.311253 0.418920 0.469639 0.178263
H14   H     H_    0.049616 0.187278 0.035028 0.165726
H15   H     H_    0.450384 0.687277 0.964972 0.165726
H16   H     H_    0.549616 0.687278 0.035028 0.165726
H17   H     H_    0.648424 0.119602 0.578673 0.121259
H18   H     H_    0.351575 0.119598 0.421327 0.121258
H19   H     H_    0.148425 0.619602 0.578672 0.121260
H20   H     H_    0.851575 0.619600 0.421327 0.121260
H21   H     H_    0.723479 0.875429 0.463562 0.102064
H22   H     H_    0.276520 0.875430 0.536438 0.102067
H23   H     H_    0.223479 0.375428 0.463562 0.102064
H24   H     H_    0.688747 0.418922 0.530362 0.178255
H25   H     H_    0.776520 0.375429 0.536438 0.102065
H26   H     H_    0.702647 0.933389 0.582261 0.097238
H27   H     H_    0.297349 0.933387 0.417737 0.097240
H28   H     H_    0.202647 0.433389 0.582262 0.097238
H29   H     H_    0.797351 0.433388 0.417738 0.097239
H30   H     H_    0.851888 0.108084 0.417808 0.137351
H31   H     H_    0.148112 0.108086 0.582193 0.137348
H32   H     H_    0.351889 0.608082 0.417808 0.137352
H33   H     H_    0.648112 0.608085 0.582192 0.137349
H34   H     H_    0.795785 0.230379 0.429477 0.100879
H35   H     H_    0.793047 0.920858 0.589578 0.158850
H36   H     H_    0.204215 0.230380 0.570523 0.100880
H37   H     H_    0.295786 0.730377 0.429477 0.100874
H38   H     H_    0.704215 0.730380 0.570523 0.100880
H39   H     H_    0.840379 0.223468 0.547396 0.110541
H40   H     H_    0.159621 0.223469 0.452604 0.110541
H41   H     H_    0.340379 0.723468 0.547396 0.110541
H42   H     H_    0.659621 0.723468 0.452604 0.110541
H43   H     H_    0.676624 0.248125 0.373668 0.122352
H44   H     H_    0.323381 0.248121 0.626334 0.122359
H45   H     H_    0.176636 0.748132 0.373671 0.122331
H46   H     H_    0.206948 0.920863 0.410425 0.158840
H47   H     H_    0.823381 0.748121 0.626334 0.122359
H48   H     H_    0.293047 0.420858 0.589579 0.158849
H49   H     H_    0.706951 0.420860 0.410423 0.158848
H50   H     H_    0.046549 0.150042 0.441297 0.145023
H51   H     H_    0.953450 0.150042 0.558702 0.145023
H52   H     H_    0.546549 0.650042 0.441298 0.145023
H53   H     H_    0.357441 0.062626 0.534345 0.134671
H54   H     H_    0.453450 0.650042 0.558702 0.145023
H55   H     H_    0.959087 0.158416 0.434696 0.119744
H56   H     H_    0.040912 0.158416 0.565304 0.119742
H57   H     H_    0.459087 0.658416 0.434696 0.119744
H58   H     H_    0.540912 0.658416 0.565304 0.119743
H59   H     H_    0.615067 0.885457 0.452687 0.101909
H60   H     H_    0.384933 0.885457 0.547313 0.101909
H61   H     H_    0.115067 0.385457 0.452687 0.101908
H62   H     H_    0.884933 0.385457 0.547313 0.101910
H63   H     H_    0.601851 0.829847 0.573859 0.106842
H64   H     H_    0.142559 0.562625 0.465655 0.134682
H65   H     H_    0.398149 0.829848 0.426140 0.106842
H66   H     H_    0.101851 0.329847 0.573859 0.106843
H67   H     H_    0.898149 0.329848 0.426140 0.106842
H68   H     H_    0.935165 0.472168 0.418971 0.134069
H69   H     H_    0.064835 0.472168 0.581029 0.134067
H70   H     H_    0.435165 0.972168 0.418971 0.134068
H71   H     H_    0.564835 0.972168 0.581029 0.134067
H72   H     H_    0.950257 0.493984 0.537224 0.162930
H73   H     H_    0.049742 0.493984 0.462776 0.162937
H74   H     H_    0.450257 0.993984 0.537224 0.162929
H75   H     H_    0.857441 0.562627 0.534345 0.134672
H76   H     H_    0.549742 0.993984 0.462776 0.162932
H77   H     H_    0.799514 0.911621 0.046705 0.143050
H78   H     H_    0.200486 0.911621 0.953295 0.143051
H79   H     H_    0.299514 0.411621 0.046705 0.143050
H80   H     H_    0.700485 0.411621 0.953295 0.143051
H81   H     H_    0.868922 0.075788 0.956621 0.169748
H82   H     H_    0.131078 0.075787 0.043379 0.169749
H83   H     H_    0.368922 0.575787 0.956621 0.169749
H84   H     H_    0.631077 0.575787 0.043379 0.169749
H85   H     H_    0.826364 0.945261 0.933869 0.128468
H86   H     H_    0.862724 0.073944 0.536646 0.157980
H87   H     H_    0.173636 0.945261 0.066131 0.128469
H88   H     H_    0.326364 0.445261 0.933869 0.128468
H89   H     H_    0.673636 0.445261 0.066130 0.128468
H90   H     H_    0.663559 0.949349 0.052428 0.112302
H91   H     H_    0.336441 0.949349 0.947572 0.112303
H92   H     H_    0.163559 0.449349 0.052428 0.112302
H93   H     H_    0.836441 0.449348 0.947572 0.112302
H94   H     H_    0.704006 0.938458 0.931343 0.109726
H95   H     H_    0.295994 0.938458 0.068656 0.109726
H96   H     H_    0.204006 0.438458 0.931343 0.109726
H97   H     H_    0.137275 0.073947 0.463355 0.157971
H98   H     H_    0.795994 0.438457 0.068657 0.109726
H99   H     H_    0.724035 0.251462 0.091779 0.112169
H100  H     H_    0.275965 0.251461 0.908221 0.112169
H101  H     H_    0.224035 0.751461 0.091779 0.112169
H102  H     H_    0.775966 0.751461 0.908221 0.112169
H103  H     H_    0.813190 0.224120 0.078577 0.136940
H104  H     H_    0.186810 0.224120 0.921423 0.136940
H105  H     H_    0.313190 0.724120 0.078577 0.136939
H106  H     H_    0.686810 0.724120 0.921422 0.136939
H107  H     H_    0.782668 0.288461 0.959768 0.098488
H108  H     H_    0.362725 0.573944 0.536647 0.157981
H109  H     H_    0.217332 0.288461 0.040232 0.098488
H110  H     H_    0.282668 0.788461 0.959768 0.098488
H111  H     H_    0.717332 0.788461 0.040232 0.098488
H112  H     H_    0.697860 0.241710 0.972942 0.142031
H113  H     H_    0.302140 0.241710 0.027058 0.142032
H114  H     H_    0.197860 0.741710 0.972942 0.142032
H115  H     H_    0.802140 0.741710 0.027058 0.142032
H116  H     H_    0.646716 0.100538 0.044268 0.137176
H117  H     H_    0.353284 0.100538 0.955732 0.137177
H118  H     H_    0.146715 0.600537 0.044268 0.137176
H119  H     H_    0.637275 0.573945 0.463354 0.157977
H120  H     H_    0.853284 0.600537 0.955732 0.137177
H121  H     H_    0.693233 0.246001 0.557149 0.159310
H122  H     H_    0.306768 0.246000 0.442850 0.159315
H123  H     H_    0.193233 0.746001 0.557148 0.159301
H124  H     H_    0.806767 0.746001 0.442851 0.159315
H125  H     H_    0.651615 0.066682 0.922278 0.127841
H126  H     H_    0.348385 0.066682 0.077722 0.127841
H127  H     H_    0.151615 0.566682 0.922278 0.127841
H128  H     H_    0.848384 0.566681 0.077722 0.127841
H129  H     H_    0.051778 0.531896 0.051759 0.139696
H130  H     H_    0.811253 0.918921 0.469638 0.178262
H131  H     H_    0.948222 0.531895 0.948241 0.139696
H132  H     H_    0.551778 0.031896 0.051759 0.139695
H133  H     H_    0.448222 0.031896 0.948241 0.139696
H134  H     H_    0.964468 0.530251 0.067314 0.129584
H135  H     H_    0.035532 0.530251 0.932686 0.129584
H136  H     H_    0.464468 0.030251 0.067314 0.129584
H137  H     H_    0.535532 0.030251 0.932686 0.129584
H138  H     H_    0.614836 0.788849 0.046155 0.107285
H139  H     H_    0.385164 0.788849 0.953845 0.107285
H140  H     H_    0.114836 0.288850 0.046155 0.107285
I1    I     I_    0.913092 0.989669 0.092326 -0.434630
I2    I     I_    0.086908 0.989669 0.907674 -0.434633
I3    I     I_    0.413092 0.489669 0.092326 -0.434632
I4    I     I_    0.586907 0.489671 0.907674 -0.434632
O1    O     O_R   0.957210 0.449410 0.665480 -0.517802
O2    O     O_R   0.167480 0.095300 0.164000 -0.525443
O3    O     O_R   0.332520 0.595300 0.836000 -0.525444
O4    O     O_R   0.667480 0.595300 0.164000 -0.525443
O5    O     O_R   0.946380 0.253940 0.826940 -0.495741
O6    O     O_R   0.053620 0.253940 0.173060 -0.495741
O7    O     O_R   0.446380 0.753940 0.826940 -0.495740
O8    O     O_R   0.553620 0.753940 0.173060 -0.495740
O9    O     O_3   0.834560 0.334570 0.748840 -0.291506
O10   O     O_3   0.165440 0.334570 0.251160 -0.291510
O11   O     O_3   0.334560 0.834570 0.748840 -0.291506
O12   O     O_R   0.042790 0.449410 0.334520 -0.517795
O13   O     O_3   0.665440 0.834570 0.251160 -0.291508
O14   O     O_R   0.820730 0.541240 0.668250 -0.521269
O15   O     O_R   0.179270 0.541240 0.331750 -0.521256
O16   O     O_R   0.320730 0.041240 0.668250 -0.521270
O17   O     O_R   0.679270 0.041240 0.331750 -0.521265
O18   O     O_R   0.714240 0.455060 0.663710 -0.514775
O19   O     O_R   0.285760 0.455060 0.336290 -0.514777
O20   O     O_R   0.214240 0.955060 0.663710 -0.514776
O21   O     O_R   0.785760 0.955060 0.336290 -0.514775
O22   O     O_R   0.736780 0.204870 0.675910 -0.516361
O23   O     O_R   0.457210 0.949410 0.665480 -0.517802
O24   O     O_R   0.263220 0.204870 0.324090 -0.516362
O25   O     O_R   0.236780 0.704870 0.675910 -0.516360
O26   O     O_R   0.763220 0.704870 0.324090 -0.516361
O27   O     O_R   0.833070 0.087590 0.673490 -0.515643
O28   O     O_R   0.166930 0.087590 0.326510 -0.515643
O29   O     O_R   0.333070 0.587590 0.673490 -0.515644
O30   O     O_R   0.666930 0.587590 0.326510 -0.515643
O31   O     O_R   0.946890 0.246800 0.676300 -0.507327
O32   O     O_R   0.053110 0.246800 0.323700 -0.507327
O33   O     O_R   0.446890 0.746800 0.676300 -0.507326
O34   O     O_R   0.542790 0.949410 0.334520 -0.517799
O35   O     O_R   0.553110 0.746800 0.323700 -0.507327
O36   O     O_R   0.956650 0.457120 0.827980 -0.526900
O37   O     O_R   0.043350 0.457120 0.172020 -0.526899
O38   O     O_R   0.456650 0.957120 0.827980 -0.526900
O39   O     O_R   0.543350 0.957120 0.172020 -0.526899
O40   O     O_R   0.820220 0.548390 0.818890 -0.514226
O41   O     O_R   0.179780 0.548390 0.181110 -0.514225
O42   O     O_R   0.320220 0.048390 0.818890 -0.514226
O43   O     O_R   0.679780 0.048390 0.181110 -0.514226
O44   O     O_R   0.713680 0.462770 0.826210 -0.483065
O45   O     O_R   0.736260 0.212010 0.826560 -0.498745
O46   O     O_R   0.286320 0.462770 0.173790 -0.483065
O47   O     O_R   0.213680 0.962770 0.826210 -0.483065
O48   O     O_R   0.786320 0.962770 0.173790 -0.483064
O49   O     O_2   0.604138 0.279111 0.445866 -0.511745
O50   O     O_2   0.395859 0.279119 0.554128 -0.511753
O51   O     O_2   0.104129 0.779094 0.445857 -0.511723
O52   O     O_2   0.895858 0.779119 0.554129 -0.511752
O53   O     O_R   0.263740 0.212010 0.173440 -0.498745
O54   O     O_R   0.236260 0.712010 0.826560 -0.498745
O55   O     O_R   0.763740 0.712010 0.173440 -0.498744
O56   O     O_R   0.832520 0.095300 0.836000 -0.525444

loop_
_geom_bond_atom_site_label_1
_geom_bond_atom_site_label_2
_ccdc_geom_bond_type
C105  C110  S    
C87   C91   S    
Cr6   O23   S    
C76   H92   S    
C19   H19   S    
C107  C112  S    
C74   C83   S    
C17   H17   S    
C90   C95   S    
C4    C87   S    
C1    O14   A    
C79   H100  S    
Cr12  O9    S    
Cr10  O25   S    
C97   H109  S    
Cr12  O5    S    
C72   H88   S    
Cr6   O16   S    
Cr7   O13   S    
C89   C94   S    
Cr12  O56   S    
C104  H133  S    
C65   O27   A    
C76   C94   S    
C14   H53   S    
C66   O28   A    
C55   H63   S    
C78   C96   S    
C2    C22   S    
C110  H9    S    
C88   C97   S    
C47   C53   S    
C93   H95   S    
C23   H13   S    
C8    O36   A    
C17   C30   S    
C62   H78   S    
C77   H120  S    
C19   C32   S    
C109  C118  S    
Cr3   O29   S    
C41   H108  S    
Cr3   O7    S    
C1    O18   A    
C27   H44   S    
Cr4   O8    S    
C99   H115  S    
C97   H113  S    
C67   O29   A    
C35   H27   S    
C43   C44   S    
C108  H15   S    
C50   H59   S    
C92   H32   S    
C44   C57   S    
C16   C20   S    
C81   H31   S    
C29   O52   D    
Cr10  O20   S    
C20   C33   S    
C3    C83   S    
Cr10  O47   S    
Cr9   O24   S    
C105  C118  S    
C107  C120  S    
C75   C93   S    
Cr8   O44   S    
C123  O41   A    
C46   C60   S    
C105  H140  S    
C79   C97   S    
C40   H97   S    
C27   O50   D    
C77   H93   S    
C33   C38   S    
C116  O23   A    
C108  C111  S    
C52   H67   S    
C75   H91   S    
C44   H56   S    
C19   H123  S    
C106  H3    S    
C42   H42   S    
C85   C123  S    
C109  H8    S    
C69   H85   S    
C58   C117  S    
C2    C14   S    
C71   C88   S    
Cr11  O55   S    
C23   C36   S    
C115  O12   A    
Cr8   O9    S    
C2    C81   S    
C18   C31   S    
C48   O20   A    
C76   C85   S    
Cr1   O9    S    
C34   H35   S    
Cr6   O42   S    
C37   O19   A    
C38   H29   S    
C122  O40   A    
C112  H4    S    
C124  O47   A    
C108  H139  S    
C42   C103  S    
C94   H96   S    
C26   H43   S    
C82   H106  S    
C113  O31   A    
C71   H82   S    
Cr8   O18   S    
C33   C42   S    
C32   C36   S    
C41   H41   S    
C73   C90   S    
Cr1   O40   S    
C79   C84   S    
C75   C84   S    
Cr5   O15   S    
C49   C57   S    
C80   H105  S    
C13   C23   S    
C3    O43   A    
C25   H25   S    
C23   H23   S    
Cr6   O11   S    
C32   C41   S    
C39   H86   S    
C76   H118  S    
Cr2   O32   S    
C18   H18   S    
C50   H76   S    
C37   O15   A    
C9    C118  S    
C5    C88   S    
C61   H77   S    
C79   H104  S    
C11   C120  S    
C46   H58   S    
C12   C114  S    
Cr10  O54   S    
C30   C34   S    
C5    O2    A    
C39   H39   S    
C111  H10   S    
C40   H40   S    
C57   C113  S    
C7    C90   S    
C103  H38   S    
C12   C26   S    
C80   H101  S    
Cr5   O41   S    
C25   C38   S    
C49   H72   S    
C38   H49   S    
C21   H130  S    
C32   C67   S    
Cr3   O33   S    
Cr1   O1    S    
Cr5   O10   S    
Cr2   O6    S    
C60   C116  S    
Cr4   O4    S    
C99   H111  S    
C90   C99   S    
C93   H126  S    
C67   O25   A    
Cr11  O48   S    
C62   C84   S    
C61   I1    S    
C16   H75   S    
C75   H117  S    
C110  C119  S    
C68   O26   A    
Cr4   O35   S    
C55   H71   S    
C123  O46   A    
C112  H11   S    
C89   C98   S    
C24   C103  S    
C47   H73   S    
Cr11  O13   S    
C112  C121  S    
C74   H90   S    
C15   H64   S    
C63   I3    S    
C42   H119  S    
C64   I4    S    
C100  C101  S    
C30   C39   S    
C3    O48   A    
C30   C65   S    
C111  H5    S    
C44   H51   S    
C1    C24   S    
C122  O44   A    
C103  H33   S    
C47   H61   S    
C51   C60   S    
C17   H121  S    
C63   C85   S    
C33   C68   S    
C47   C56   S    
C59   O21   A    
C106  C109  S    
C78   H103  S    
Cr7   O39   S    
C106  C119  S    
C82   C99   S    
C6    O3    A    
C108  C121  S    
Cr1   O14   S    
C100  H134  S    
C45   C46   S    
C15   C19   S    
C105  H14   S    
C101  H135  S    
C66   O24   A    
C102  H136  S    
C69   H81   S    
C98   H110  S    
C117  O35   A    
Cr7   O34   S    
C31   C40   S    
Cr2   O10   S    
C78   C83   S    
Cr5   O12   S    
C54   H70   S    
C12   C17   S    
C86   C122  S    
C95   H98   S    
C14   C27   S    
C29   H47   S    
C69   C87   S    
C94   H127  S    
Cr8   O22   S    
C55   C60   S    
C68   O30   A    
Cr1   O36   S    
C10   O7    A    
C64   C86   S    
C45   H57   S    
Cr4   O13   S    
C45   C58   S    
C50   C58   S    
C61   C83   S    
C98   H114  S    
C53   C57   S    
C21   C34   S    
C22   H22   S    
C2    C48   S    
C82   C86   S    
C28   O51   D    
C73   H84   S    
C52   H68   S    
C74   C91   S    
C96   H107  S    
Cr2   O28   S    
C80   C85   S    
C116  O33   A    
C49   C52   S    
C25   H24   S    
C109  H7    S    
Cr10  O11   S    
C9    O37   A    
C8    O5    A    
Cr12  O31   S    
C95   H128  S    
C11   O39   A    
C13   C92   S    
C92   H37   S    
C31   C35   S    
C100  C118  S    
C54   H65   S    
C102  C120  S    
C124  O42   A    
C80   C98   S    
C74   H116  S    
C91   H125  S    
C22   H2    S    
C53   H66   S    
Cr9   O10   S    
C115  O32   A    
C70   H34   S    
C51   H74   S    
C15   C28   S    
C59   C114  S    
Cr2   O2    S    
C4    O45   A    
C56   C115  S    
C18   H122  S    
C63   C72   S    
C36   H28   S    
Cr7   O17   S    
C63   H79   S    
C8    C119  S    
C104  H137  S    
C96   H112  S    
Cr7   O43   S    
C7    O4    A    
C113  O1    A    
Cr5   O37   S    
C31   C66   S    
C14   C18   S    
C10   C121  S    
Cr4   O30   S    
C70   C114  S    
C35   H46   S    
C22   C35   S    
C9    O6    A    
C11   O8    A    
C51   H60   S    
C70   H30   S    
C100  H129  S    
C5    O53   A    
C106  H12   S    
C7    O55   A    
C81   H36   S    
Cr3   O3    S    
C110  H6    S    
C107  H138  S    
C59   O17   A    
Cr6   O38   S    
C78   H99   S    
C62   C71   S    
C53   H69   S    
C36   H48   S    
C13   C37   S    
C101  H131  S    
C43   H55   S    
C16   C24   S    
C102  H132  S    
C46   H54   S    
Cr11  O21   S    
C117  O34   A    
C71   H87   S    
C101  C119  S    
C24   C25   S    
Cr3   O11   S    
C104  C121  S    
C43   H50   S    
C16   C29   S    
C77   C95   S    
C111  C120  S    
C28   H45   S    
C64   C73   S    
C87   C96   S    
Cr9   O19   S    
C102  C104  S    
C20   H124  S    
C107  H16   S    
Cr8   O45   S    
C77   C86   S    
C4    O56   A    
C13   C15   S    
C6    O54   A    
C26   O49   D    
C34   H26   S    
C54   C58   S    
C61   C69   S    
C72   H83   S    
C88   C93   S    
C20   H20   S    
C21   H21   S    
C40   C81   S    
C64   H80   S    
C21   C114  S    
C48   O16   A    
C45   H52   S    
Cr9   O46   S    
C65   O22   A    
C84   C124  S    
C6    C89   S    
C50   C55   S    
C51   C54   S    
C91   H94   S    
C73   H89   S    
C72   C89   S    
Cr12  O27   S    
C10   O38   A    
C49   H62   S    
C82   H102  S    
C39   C70   S    
Cr9   O53   S    
C43   C56   S    
C41   C92   S    
Cr11  O26   S    
C12   H1    S    
C62   I2    S    
C52   C56   S    
