data_mof_unit_15751.cif
_audit_creation_date              2012-12-10T18:09:02-0500
_audit_creation_method            fapswitch 2.2
_symmetry_space_group_name_H-M    P1
_symmetry_Int_Tables_number       1
_space_group_crystal_system       triclinic
_cell_length_a                    12.628219
_cell_length_b                    13.09459
_cell_length_c                    13.658426
_cell_angle_alpha                 91.304917
_cell_angle_beta                  96.549843
_cell_angle_gamma                 97.487561
_cell_volume                      2223.07659671

loop_
_atom_site_label
_atom_site_type_symbol
_atom_type_description
_atom_site_fract_x
_atom_site_fract_y
_atom_site_fract_z
_atom_type_partial_charge
C1    C     C_R   0.559626 0.691444 0.515591 0.855717
C2    C     C_R   0.469799 0.037347 0.523646 0.013472
C3    C     C_R   0.370206 0.001308 0.558370 0.055427
C4    C     C_R   0.516811 0.496761 0.318270 0.889416
C5    C     C_R   0.355446 0.904879 0.599798 -0.208042
C6    C     C_R   0.433356 0.839707 0.596977 -0.223718
C7    C     C_R   0.478945 0.130794 0.475242 0.304188
C8    C     C_R   0.300620 0.159533 0.510879 0.397579
C9    C     C_R   0.598469 0.801307 0.531302 -0.112470
C10   C     C_R   0.899650 0.367605 0.655387 -0.319425
C11   C     C_R   0.206836 0.624164 0.379505 0.040873
C12   C     C_1   0.527758 0.495007 0.217166 -0.172080
C13   C     C_R   0.105196 0.655694 0.361400 0.383748
C14   C     C_R   0.023664 0.611795 0.413224 -0.326187
C15   C     C_R   0.041836 0.534887 0.480904 -0.028763
C16   C     C_R   0.440034 0.308261 0.486877 0.871647
C17   C     C_R   0.147168 0.509018 0.501218 0.166322
C18   C     C_R   0.958542 0.483599 0.529238 0.012521
C19   C     C_R   0.983568 0.418863 0.608515 0.116643
C20   C     C_R   0.091303 0.404340 0.636730 -0.068881
C21   C     C_R   0.168536 0.440054 0.575676 -0.150242
C22   C     C_R   0.850153 0.494153 0.500971 -0.033771
C23   C     C_R   0.285216 0.060465 0.547994 -0.331633
C24   C     C_R   0.794585 0.382885 0.624999 0.031150
C25   C     C_R   0.482723 0.501887 0.681633 0.868244
C26   C     C_1   0.469171 0.495654 0.781987 -0.177381
C27   C     C_2   0.451491 0.483324 0.969083 -0.178990
C28   C     C_2   0.542653 0.492944 0.029021 -0.170115
C29   C     C_1   0.537024 0.493679 0.131606 0.000930
C30   C     C_1   0.457968 0.489460 0.866899 0.029436
C31   C     C_R   0.127395 0.362750 0.734019 0.127388
C32   C     C_R   0.197150 0.287143 0.741918 -0.175259
C33   C     C_R   0.234723 0.253360 0.834238 -0.126983
C34   C     C_R   0.402601 0.197744 0.485024 -0.209711
C35   C     C_R   0.204103 0.295377 0.919854 -0.107363
C36   C     C_R   0.136372 0.371740 0.913306 -0.152270
C37   C     C_R   0.098666 0.405719 0.821100 -0.150523
C38   C     C_R   0.288681 0.670041 0.318576 0.238964
C39   C     C_R   0.344256 0.768726 0.343811 -0.074988
C40   C     C_R   0.413081 0.817906 0.281120 -0.156388
C41   C     C_R   0.422273 0.771271 0.190029 -0.118075
C42   C     C_R   0.361381 0.676301 0.161142 -0.150622
C43   C     C_R   0.293900 0.626217 0.224632 -0.088679
C44   C     C_R   0.703576 0.838495 0.513039 -0.187364
C45   C     C_R   0.736283 0.943953 0.512613 -0.185246
C46   C     C_R   0.661715 0.012223 0.520665 -0.098057
C47   C     C_R   0.553681 0.975149 0.532407 0.113730
C48   C     C_R   0.528384 0.871084 0.554365 0.054599
H1    H     H_    0.620743 0.503359 0.001627 0.162518
H2    H     H_    0.207969 0.030574 0.570669 0.147854
H3    H     H_    0.759978 0.786202 0.497853 0.158019
H4    H     H_    0.690528 0.093566 0.520263 0.195749
H5    H     H_    0.818300 0.972716 0.501817 0.150496
H6    H     H_    0.223171 0.254422 0.677292 0.161234
H7    H     H_    0.288199 0.194977 0.839374 0.134763
H8    H     H_    0.233704 0.269511 0.991296 0.131688
H9    H     H_    0.113791 0.405287 0.979757 0.133860
H10   H     H_    0.048058 0.466568 0.817678 0.136152
H11   H     H_    0.332812 0.807943 0.411318 0.147201
H12   H     H_    0.418017 0.764337 0.627336 0.174416
H13   H     H_    0.457507 0.893012 0.302337 0.160149
H14   H     H_    0.474708 0.809720 0.140941 0.140386
H15   H     H_    0.365936 0.641874 0.089296 0.139922
H16   H     H_    0.245844 0.553392 0.200807 0.115252
H17   H     H_    0.011937 0.742660 0.288217 0.335320
H18   H     H_    0.151003 0.178620 0.515675 0.327451
H19   H     H_    0.537952 0.206585 0.367871 0.339897
H20   H     H_    0.729500 0.345669 0.662021 0.136746
H21   H     H_    0.914188 0.315107 0.713980 0.160532
H22   H     H_    0.823336 0.539342 0.440541 0.127858
H23   H     H_    0.947697 0.641109 0.400557 0.134470
H24   H     H_    0.245637 0.415276 0.589774 0.225767
H25   H     H_    0.373356 0.473731 0.996342 0.157331
H26   H     H_    0.281302 0.877610 0.629499 0.153375
N1    N     N_R   0.773270 0.445590 0.549770 -0.102097
N2    N     N_R   0.227520 0.553880 0.450750 -0.169825
O1    O     O_R   0.631100 0.627590 0.523760 -0.614800
O2    O     O_3   0.217977 0.219189 0.498764 -0.767250
O3    O     O_3   0.558527 0.153377 0.414241 -0.775605
O4    O     O_R   0.455900 0.662370 0.491970 -0.622037
O5    O     O_R   0.600200 0.480080 0.377830 -0.610892
O6    O     O_R   0.425000 0.514870 0.346040 -0.613105
O7    O     O_R   0.544100 0.337630 0.508030 -0.600054
O8    O     O_R   0.368900 0.372410 0.476240 -0.566011
O9    O     O_R   0.575000 0.485130 0.653960 -0.611255
O10   O     O_R   0.399800 0.519920 0.622170 -0.641416
O11   O     O_3   0.087893 0.729568 0.292599 -0.772031
Zn1   Zn    Zn3+2 0.616980 0.476780 0.521230 0.947815
Zn2   Zn    Zn3+2 0.383020 0.523220 0.478770 0.941394

loop_
_geom_bond_atom_site_label_1
_geom_bond_atom_site_label_2
_ccdc_geom_bond_type
C33   H7    S    
C15   C18   A    
C12   C29   T    
C1    O1    A    
C41   C42   A    
C3    C23   A    
C2    C7    A    
C45   C46   A    
O6    Zn2   S    
C6    C48   A    
C22   N1    A    
C36   C37   A    
C11   N2    A    
C38   C39   A    
C46   H4    S    
C16   O8    A    
C8    C23   A    
C18   C19   A    
C14   H23   S    
O4    Zn2   S    
C5    H26   S    
C16   C34   S    
C4    O5    A    
C47   C48   A    
O1    Zn1   S    
C17   N2    A    
C4    C12   S    
C37   H10   S    
N2    Zn2   S    
O7    Zn1   S    
C45   H5    S    
C13   C14   A    
C27   C30   S    
C8    O2    S    
C41   H14   S    
C32   H6    S    
C43   H16   S    
H17   O11   S    
H18   O2    S    
C21   H24   S    
C6    H12   S    
H19   O3    S    
C36   H9    S    
C39   C40   A    
C23   H2    S    
C10   C24   A    
C25   C26   S    
C16   O7    A    
C17   C21   A    
C40   H13   S    
C31   C37   A    
C35   C36   A    
C11   C38   S    
C28   H1    S    
C31   C32   A    
C10   C19   A    
C39   H11   S    
C13   O11   S    
C25   O9    A    
C1    C9    S    
C8    C34   A    
C44   H3    S    
C40   C41   A    
C26   C30   T    
C7    C34   A    
C42   C43   A    
C44   C45   A    
C7    O3    S    
O9    Zn1   S    
C15   C17   A    
C46   C47   A    
C28   C29   S    
C9    C44   A    
C35   H8    S    
C18   C22   A    
C3    C5    A    
O10   Zn2   S    
C24   N1    A    
C2    C47   A    
C32   C33   A    
C19   C20   A    
C2    C3    A    
C38   C43   A    
C11   C13   A    
C5    C6    A    
C25   O10   A    
C33   C35   A    
O5    Zn1   S    
C24   H20   S    
C10   H21   S    
N1    Zn1   S    
C4    O6    A    
C20   C21   A    
C9    C48   A    
O8    Zn2   S    
C27   C28   D    
C1    O4    A    
C14   C15   A    
C27   H25   S    
C42   H15   S    
C22   H22   S    
C20   C31   S    
