data_mof_unit_30392.cif
_audit_creation_date              2012-12-11T15:06:41-0500
_audit_creation_method            fapswitch 2.2
_symmetry_space_group_name_H-M    P1
_symmetry_Int_Tables_number       1
_space_group_crystal_system       triclinic
_cell_length_a                    7.238217
_cell_length_b                    15.061409
_cell_length_c                    22.489829
_cell_angle_alpha                 90.006698
_cell_angle_beta                  89.90182
_cell_angle_gamma                 90.061696
_cell_volume                      2451.78544328

loop_
_atom_site_label
_atom_site_type_symbol
_atom_type_description
_atom_site_fract_x
_atom_site_fract_y
_atom_site_fract_z
_atom_type_partial_charge
O1    O     O_R   0.390810 0.844810 0.447340 -0.544299
O2    O     O_R   0.109190 0.155190 0.947340 -0.545324
O3    O     O_R   0.890810 0.655190 0.552660 -0.544524
O4    O     O_R   0.609190 0.344810 0.052660 -0.544927
O5    O     O_R   0.720550 0.655820 0.440420 -0.541916
O6    O     O_R   0.779450 0.344180 0.940420 -0.536702
O7    O     O_R   0.220550 0.844180 0.559580 -0.542134
O8    O     O_R   0.279450 0.155820 0.059580 -0.541800
C1    C     C_R   0.552865 0.626811 0.426413 0.682943
C2    C     C_R   0.947541 0.372578 0.925660 0.684567
C3    C     C_R   0.052766 0.872770 0.573791 0.681607
C4    C     C_R   0.447013 0.126810 0.073596 0.683659
O9    O     O_R   0.720530 0.844130 0.440420 -0.527699
O10   O     O_R   0.779470 0.155870 0.940420 -0.527296
O11   O     O_R   0.220530 0.655870 0.559580 -0.528223
O12   O     O_R   0.279470 0.344130 0.059580 -0.526485
O13   O     O_R   0.890830 0.844810 0.552660 -0.524541
O14   O     O_R   0.609170 0.155190 0.052660 -0.524172
O15   O     O_R   0.390830 0.655190 0.447340 -0.524248
O16   O     O_R   0.109170 0.344810 0.947340 -0.536576
C5    C     C_R   0.552724 0.873520 0.426540 0.733419
C6    C     C_R   0.947310 0.126170 0.926871 0.742285
C7    C     C_R   0.052118 0.627006 0.573683 0.733266
C8    C     C_R   0.447413 0.373541 0.073437 0.732614
O17   O     O_3   0.557310 0.749980 0.536820 -0.379320
O18   O     O_3   0.942690 0.250020 0.036820 -0.377731
O19   O     O_3   0.057310 0.750020 0.463180 -0.378842
O20   O     O_3   0.442690 0.249980 0.963180 -0.381967
V1    V     V_3+5 0.832160 0.749980 0.493170 1.477853
V2    V     V_3+5 0.667840 0.250020 0.993170 1.479458
V3    V     V_3+5 0.332160 0.750020 0.506830 1.477797
V4    V     V_3+5 0.167840 0.249980 0.006830 1.469979
C9    C     C_R   0.816607 0.587879 0.853839 -0.167427
C10   C     C_R   0.611570 0.401681 0.358053 -0.168115
C11   C     C_R   0.387082 0.901688 0.141974 -0.167269
C12   C     C_R   0.106736 0.097679 0.642071 -0.171024
H1    H     H_    0.791540 0.530509 0.940254 0.141715
H2    H     H_    0.608934 0.454585 0.446350 0.136770
H3    H     H_    0.389606 0.954584 0.053678 0.136061
H4    H     H_    0.102778 0.045000 0.553806 0.134878
H5    H     H_    0.766774 0.703414 0.767006 0.124131
H6    H     H_    0.677164 0.288286 0.270839 0.134374
H7    H     H_    0.321227 0.788336 0.229231 0.133803
H8    H     H_    0.168842 0.211952 0.728601 0.139949
H9    H     H_    0.742555 0.647187 0.867161 0.124081
H10   H     H_    0.651772 0.336280 0.373403 0.124556
H11   H     H_    0.346346 0.836308 0.126641 0.124567
H12   H     H_    0.143815 0.163413 0.626516 0.119804
C13   C     C_R   0.947896 0.445704 0.881414 -0.115719
C14   C     C_R   0.549810 0.555690 0.381204 -0.105388
C15   C     C_R   0.449763 0.055668 0.118798 -0.105283
C16   C     C_R   0.049488 0.943395 0.619191 -0.104833
C17   C     C_R   0.112995 0.468590 0.593966 0.362776
C18   C     C_R   0.363549 0.528885 0.095495 0.363478
C19   C     C_R   0.638046 0.028732 0.404353 0.365140
C20   C     C_R   0.871596 0.969357 0.906117 0.360310
C21   C     C_R   0.110388 0.394683 0.631722 -0.239872
C22   C     C_R   0.326406 0.596628 0.136456 -0.242135
C23   C     C_R   0.675379 0.096432 0.363360 -0.243316
C24   C     C_R   0.840919 0.899787 0.866003 -0.238344
C25   C     C_R   0.055591 0.403080 0.690761 -0.141695
C26   C     C_R   0.374525 0.587390 0.195944 -0.146322
C27   C     C_R   0.626582 0.087244 0.303922 -0.146545
C28   C     C_R   0.887516 0.908574 0.806276 -0.145508
C29   C     C_R   0.006758 0.485945 0.715101 0.103142
C30   C     C_R   0.473476 0.512869 0.216370 0.104823
C31   C     C_R   0.526879 0.012795 0.283579 0.104992
C32   C     C_R   0.976958 0.985369 0.784562 0.101111
C33   C     C_R   0.984946 0.558462 0.674872 -0.033526
C34   C     C_R   0.507123 0.442359 0.175184 -0.030044
C35   C     C_R   0.492997 0.942316 0.324792 -0.030546
C36   C     C_R   0.003526 0.057590 0.825023 -0.026046
C37   C     C_R   0.966640 0.497577 0.777241 0.062468
C38   C     C_R   0.525443 0.502932 0.277627 0.060706
C39   C     C_R   0.474416 0.002882 0.222357 0.060693
C40   C     C_R   0.026652 0.995618 0.722974 0.064166
C41   C     C_R   0.874279 0.576467 0.794925 0.069062
C42   C     C_R   0.584174 0.418133 0.297375 0.063852
C43   C     C_R   0.414969 0.918121 0.202640 0.063785
C44   C     C_R   0.080701 0.081103 0.702802 0.070127
C45   C     C_R   0.839078 0.643743 0.753652 -0.127780
C46   C     C_R   0.620668 0.350946 0.256224 -0.126564
C47   C     C_R   0.378290 0.850957 0.243812 -0.126241
C48   C     C_R   0.112421 0.149385 0.743449 -0.163002
C49   C     C_R   0.898327 0.636115 0.695085 -0.163429
C50   C     C_R   0.589435 0.363966 0.195888 -0.171909
C51   C     C_R   0.410058 0.863953 0.304130 -0.171876
C52   C     C_R   0.076322 0.137796 0.803547 -0.164692
C53   C     C_R   0.018918 0.435583 0.822607 0.263402
C54   C     C_R   0.529609 0.574286 0.319481 0.264901
C55   C     C_R   0.470434 0.074236 0.180515 0.264842
C56   C     C_R   0.032828 0.924319 0.681019 0.263969
C57   C     C_R   0.847263 0.521986 0.895850 -0.173886
C58   C     C_R   0.587884 0.469084 0.399650 -0.178452
C59   C     C_R   0.410995 0.969078 0.100367 -0.178425
C60   C     C_R   0.083972 0.030236 0.600597 -0.177269
C61   C     C_R   0.046523 0.550532 0.614915 -0.115723
C62   C     C_R   0.449145 0.450210 0.114873 -0.118493
C63   C     C_R   0.551442 0.950152 0.385069 -0.118587
C64   C     C_R   0.949365 0.049350 0.885671 -0.118873
H13   H     H_    0.041076 0.342843 0.715708 0.173707
H14   H     H_    0.322307 0.637063 0.225879 0.174276
H15   H     H_    0.678904 0.136881 0.273939 0.174292
H16   H     H_    0.841859 0.855998 0.777500 0.179362
H17   H     H_    0.149894 0.329867 0.615266 0.111706
H18   H     H_    0.252558 0.655683 0.122760 0.115519
H19   H     H_    0.749885 0.155414 0.376985 0.115108
H20   H     H_    0.774114 0.839186 0.880624 0.116346
H21   H     H_    0.868654 0.690332 0.665142 0.133810
H22   H     H_    0.625736 0.310929 0.165720 0.136151
H23   H     H_    0.373719 0.810901 0.334305 0.135828
H24   H     H_    0.101861 0.193179 0.832921 0.129367
O21   O     O_3   0.144844 0.369702 0.809242 -0.673303
H25   H     H_    0.199153 0.345687 0.846067 0.293905
O22   O     O_3   0.536702 0.660424 0.298635 -0.669232
H26   H     H_    0.595102 0.699204 0.328710 0.269388
O23   O     O_3   0.463883 0.160365 0.201378 -0.669402
H27   H     H_    0.404822 0.199050 0.171420 0.269526
O24   O     O_3   0.044479 0.838143 0.701627 -0.667807
H28   H     H_    0.099036 0.799486 0.670723 0.269377
O25   O     O_3   0.172677 0.461642 0.535719 -0.648755
H29   H     H_    0.215017 0.400029 0.528239 0.282104
O26   O     O_3   0.310350 0.536346 0.036682 -0.648677
H30   H     H_    0.251464 0.595034 0.030442 0.283048
O27   O     O_3   0.692046 0.036128 0.463101 -0.648491
H31   H     H_    0.751885 0.094678 0.469259 0.280661
O28   O     O_3   0.820482 0.962034 0.965187 -0.649148
H32   H     H_    0.767021 0.902275 0.972195 0.282338

loop_
_geom_bond_atom_site_label_1
_geom_bond_atom_site_label_2
_ccdc_geom_bond_type
O17   V3    S    
C21   H17   S    
C18   O26   S    
O1    C5    A    
C19   C23   A    
O19   V1    S    
O13   V1    S    
O3    C7    A    
H6    C46   S    
C44   C48   A    
O15   V3    S    
C36   C64   A    
O26   H30   S    
O7    C3    A    
C8    C62   S    
C28   C32   A    
O9    V1    S    
C50   H22   S    
C56   O24   S    
H4    C60   S    
C49   H21   S    
C18   C22   A    
O4    C8    A    
C29   C33   A    
C51   H23   S    
O22   H26   S    
C30   C38   A    
H7    C47   S    
O1    V3    S    
C29   C37   A    
O2    V4    S    
C20   O28   S    
O3    V1    S    
C12   C60   A    
C3    C16   S    
C15   C55   A    
C1    O15   A    
C19   O27   S    
C2    O16   A    
O2    C6    A    
C55   O23   S    
C12   H12   S    
C10   H10   S    
O5    V1    S    
C24   H20   S    
C39   C55   A    
O11   C7    A    
C11   H11   S    
O12   C8    A    
O10   V2    S    
C36   C52   A    
C14   C54   A    
C27   C31   A    
C53   O21   S    
C6    C64   S    
C26   C30   A    
O9    C5    A    
O8    V4    S    
C40   C44   A    
O7    V3    S    
C27   H15   S    
C12   C44   A    
C17   C21   A    
O18   V4    S    
C14   C58   A    
C17   C61   A    
C46   C50   A    
C35   C63   A    
C23   H19   S    
C20   C24   A    
C32   C36   A    
C22   H18   S    
C25   H13   S    
O5    C1    A    
C9    H9    S    
C42   C46   A    
C41   C45   A    
O8    C4    A    
H5    C45   S    
H2    C58   S    
H1    C57   S    
C54   O22   S    
O11   V3    S    
H3    C59   S    
O25   H29   S    
C22   C26   A    
C40   C56   A    
C35   C51   A    
O6    V2    S    
C10   C58   A    
O27   H31   S    
C16   C56   A    
C32   C40   A    
C20   C64   A    
C19   C63   A    
O28   H32   S    
C34   C50   A    
C4    C15   S    
C33   C49   A    
O21   H25   S    
O16   V4    S    
C28   H16   S    
C3    O13   A    
C7    C61   S    
C1    C14   S    
C48   C52   A    
C13   C53   A    
H8    C48   S    
C9    C57   A    
C47   C51   A    
O6    C2    A    
O24   H28   S    
C21   C25   A    
C11   C59   A    
O12   V4    S    
C23   C27   A    
C24   C28   A    
O10   C6    A    
O20   V2    S    
C37   C53   A    
C17   O25   S    
O23   H27   S    
C10   C42   A    
C43   C47   A    
C9    C41   A    
C30   C34   A    
C5    C63   S    
C38   C54   A    
C11   C43   A    
C16   C60   A    
C31   C35   A    
O4    V2    S    
O14   V2    S    
C52   H24   S    
C25   C29   A    
C31   C39   A    
C38   C42   A    
C4    O14   A    
C37   C41   A    
C18   C62   A    
C13   C57   A    
C2    C13   S    
C39   C43   A    
C45   C49   A    
C34   C62   A    
C15   C59   A    
C26   H14   S    
C33   C61   A    
