data_mof_unit_26148.cif
_audit_creation_date              2013-03-05T15:55:17-0500
_audit_creation_method            fapswitch 2.2
_symmetry_space_group_name_H-M    P1
_symmetry_Int_Tables_number       1
_space_group_crystal_system       triclinic
_cell_length_a                    27.716716
_cell_length_b                    10.717584
_cell_length_c                    9.867119
_cell_angle_alpha                 89.230891
_cell_angle_beta                  90.10596
_cell_angle_gamma                 91.733742
_cell_volume                      2929.48037883

loop_
_atom_site_label
_atom_site_type_symbol
_atom_site_description
_atom_site_fract_x
_atom_site_fract_y
_atom_site_fract_z
_atom_type_partial_charge
O1    O     O_R   0.500000 0.316780 0.614690 -0.657885
O2    O     O_R   0.500000 0.316750 0.385360 -0.640223
C1    C     C_R   0.502913 0.259761 0.502029 0.866659
O3    O     O_R   0.428760 0.500030 0.614650 -0.649562
O4    O     O_R   0.428750 0.500010 0.385320 -0.641757
C2    C     C_R   0.406012 0.498874 0.499850 0.861097
Zn1   Zn    Zn3+2 0.500000 0.500020 0.653130 0.950997
Zn2   Zn    Zn3+2 0.500000 0.499980 0.346870 0.936973
O5    O     O_R   0.500000 0.683250 0.614640 -0.622381
O6    O     O_R   0.500000 0.683220 0.385310 -0.620117
O7    O     O_R   0.571250 0.499990 0.614680 -0.552277
O8    O     O_R   0.571240 0.499970 0.385350 -0.631315
C3    C     C_R   0.494902 0.738826 0.499630 0.894831
C4    C     C_R   0.594054 0.501029 0.500205 0.942478
C5    C     C_R   0.176225 0.372923 0.504480 0.501471
O9    O     O_2   0.200151 0.265099 0.509244 -0.555434
N1    N     N_R   0.201320 0.484389 0.499819 -0.353061
C6    C     C_R   0.178685 0.595702 0.496835 0.533701
C7    C     C_R   0.277707 0.490451 0.620992 -0.146196
C8    C     C_R   0.327782 0.495035 0.621851 -0.226032
C9    C     C_R   0.328095 0.488070 0.375786 -0.211055
C10   C     C_R   0.277715 0.483356 0.374215 0.236948
C11   C     C_R   0.252704 0.484997 0.498066 0.318861
C12   C     C_R   0.101457 0.484237 0.497852 -0.056750
C13   C     C_R   0.125746 0.370609 0.503899 -0.001655
C14   C     C_R   0.099315 0.257666 0.508168 -0.137893
C15   C     C_R   0.128254 0.597770 0.495642 -0.070970
C16   C     C_R   0.353281 0.494451 0.499250 -0.079177
H1    H     H_    0.347577 0.486822 0.280720 0.167063
H2    H     H_    0.117209 0.169159 0.510775 0.187104
C17   C     C_R   0.646960 0.499732 0.499882 -0.127448
C18   C     C_R   0.972938 0.370095 0.511875 0.046025
C19   C     C_R   0.976019 0.595303 0.457207 0.060563
C20   C     C_R   0.949248 0.482575 0.482271 0.060469
C21   C     C_R   0.944709 0.262444 0.547044 -0.211954
C22   C     C_R   0.894655 0.264687 0.548016 -0.125975
C23   C     C_R   0.871074 0.373745 0.512487 -0.029707
C24   C     C_R   0.898265 0.482493 0.477437 -0.054193
C25   C     C_R   0.874436 0.591430 0.438125 -0.029776
C26   C     C_R   0.824016 0.590917 0.439491 0.522598
N2    N     N_R   0.798534 0.485931 0.479781 -0.348710
C27   C     C_R   0.820688 0.377775 0.513643 0.513953
C28   C     C_R   0.719760 0.453928 0.378785 -0.143513
C29   C     C_R   0.670054 0.458213 0.383443 -0.306872
C30   C     C_R   0.674272 0.538962 0.613740 0.425164
C31   C     C_R   0.725376 0.533096 0.609472 0.119219
C32   C     C_R   0.747353 0.490549 0.490172 0.288240
O10   O     O_2   0.793964 0.275359 0.549795 -0.544554
C33   C     C_R   0.023897 0.369106 0.505436 0.071735
C34   C     C_R   0.050493 0.484195 0.494142 0.001387
C35   C     C_R   0.026559 0.599071 0.479912 -0.010148
C36   C     C_R   0.049272 0.256687 0.509365 -0.211033
H3    H     H_    0.649570 0.427808 0.295635 0.193560
H4    H     H_    0.737144 0.421743 0.288005 0.160708
H5    H     H_    0.874505 0.180334 0.576972 0.195166
H6    H     H_    0.960347 0.175927 0.578878 0.155032
H7    H     H_    0.031362 0.165973 0.509199 0.149630
O11   O     O_2   0.205039 0.703738 0.494382 -0.551192
C37   C     C_R   0.104437 0.710605 0.496297 -0.246618
H8    H     H_    0.346444 0.499374 0.718303 0.171912
H9    H     H_    0.258151 0.491868 0.715856 0.146830
H10   H     H_    0.125069 0.797849 0.502611 0.191211
C38   C     C_R   0.951364 0.698999 0.405188 -0.129977
C39   C     C_R   0.901355 0.697654 0.397692 -0.165351
O12   O     O_2   0.800517 0.694680 0.403068 -0.544424
C40   C     C_R   0.053943 0.712921 0.492751 0.426788
H11   H     H_    0.970099 0.780839 0.364543 0.202697
H12   H     H_    0.883903 0.780449 0.360323 0.194878
H13   H     H_    0.510026 0.114051 0.288255 0.172182
C41   C     C_R   0.507519 0.106977 0.762690 -0.155961
H14   H     H_    0.528712 0.191640 0.778429 0.176009
C42   C     C_R   0.491234 0.043577 0.879045 -0.141773
H15   H     H_    0.497468 0.083601 0.977967 0.146108
C43   C     C_R   0.465926 0.930419 0.867482 -0.153578
H16   H     H_    0.451354 0.883463 0.956904 0.141370
C44   C     C_R   0.461292 0.875076 0.741029 -0.145929
H17   H     H_    0.441484 0.786721 0.735691 0.159474
C45   C     C_R   0.481884 0.933555 0.624106 0.100669
C46   C     C_R   0.498284 0.057743 0.631843 0.096973
C47   C     C_R   0.504529 0.125696 0.507753 -0.115484
C48   C     C_R   0.504530 0.064327 0.383630 -0.212438
H18   H     H_    0.502185 0.891185 0.284298 0.169830
C49   C     C_R   0.498327 0.937406 0.380534 -0.207789
C50   C     C_R   0.488564 0.871200 0.500448 -0.125943
H19   H     H_    0.554472 0.639724 0.124042 0.154879
C51   C     C_R   0.436029 0.337472 0.142358 -0.175647
H20   H     H_    0.433886 0.331199 0.249794 0.210206
C52   C     C_R   0.404363 0.258127 0.072719 -0.210263
H21   H     H_    0.379798 0.195796 0.128087 0.164820
C53   C     C_R   0.404349 0.258368 0.932495 -0.180267
H22   H     H_    0.379918 0.195887 0.878428 0.165860
C54   C     C_R   0.436095 0.337714 0.861210 -0.167918
H23   H     H_    0.434520 0.330730 0.753888 0.211396
C55   C     C_R   0.468483 0.419910 0.928473 0.144921
C56   C     C_R   0.468478 0.419886 0.073352 0.169425
N3    N     N_R   0.499540 0.498800 0.142780 -0.123334
C57   C     C_R   0.530010 0.576953 0.070671 -0.129294
H24   H     H_    0.554418 0.639750 0.872232 0.183743
C58   C     C_R   0.529991 0.576934 0.927243 -0.087888
N4    N     N_R   0.499520 0.498720 0.857170 -0.131451
O13   O     O_3   0.649814 0.583518 0.724614 -0.766778
H25   H     H_    0.672425 0.613059 0.795383 0.343406
C59   C     C_3   0.756050 0.570941 0.730189 -0.871831
H26   H     H_    0.745083 0.513928 0.820391 0.241330
H27   H     H_    0.795112 0.557221 0.715053 0.247268
H28   H     H_    0.751537 0.671445 0.751127 0.248863
O14   O     O_3   0.031176 0.824029 0.513963 -0.792543
H29   H     H_    0.055529 0.893261 0.522216 0.329421
C60   C     C_3   0.250913 0.477257 0.241551 -0.887688
H30   H     H_    0.275996 0.476647 0.153894 0.234803
H31   H     H_    0.227868 0.390794 0.238686 0.255963
H32   H     H_    0.227783 0.559542 0.230296 0.254115

loop_
_geom_bond_atom_site_label_1
_geom_bond_atom_site_label_2
_geom_bond_distance
_ccdc_geom_bond_type
O13   H25   0.986354 S    
N2    C27   1.365389 A    
C56   N3    1.376633 A    
Zn2   N3    2.014004 S    
C12   C15   1.406189 A    
C40   O14   1.382996 S    
C30   C31   1.420456 A    
Zn1   O7    2.011628 S    
C25   C39   1.396236 A    
C3    C50   1.434959 S    
N1    C11   1.424130 S    
C43   C44   1.392771 A    
C39   H12   1.083462 S    
C22   C23   1.396646 A    
C44   C45   1.418090 A    
C60   H31   1.110093 S    
C37   C40   1.400860 A    
O4    C2    1.294681 A    
O7    C4    1.295134 A    
C51   C52   1.390657 A    
C5    C13   1.398576 A    
C5    O9    1.349903 S    
C5    N1    1.364359 A    
C23   C27   1.398566 A    
O5    C3    1.284098 A    
C57   C58   1.415219 A    
C29   H3    1.083409 S    
C6    O11   1.350173 S    
C2    C16   1.460890 S    
C49   C50   1.394173 A    
O14   H29   0.991923 S    
C41   H14   1.078733 S    
C8    H8    1.083220 S    
C4    C17   1.466854 S    
C19   C38   1.412417 A    
C52   H21   1.082759 S    
C33   C36   1.413421 A    
C41   C46   1.421174 A    
O1    Zn1   2.005175 S    
C9    C10   1.395818 A    
O3    Zn1   2.010029 S    
C1    C47   1.439251 S    
C48   C49   1.366677 A    
C34   C35   1.421281 A    
C12   C34   1.412931 A    
C38   H11   1.078707 S    
C17   C29   1.400510 A    
C18   C21   1.413992 A    
H19   C57   1.081761 S    
C44   H17   1.081980 S    
O3    C2    1.295388 A    
Zn1   N4    2.013213 S    
C60   H32   1.110131 S    
C25   C26   1.397422 A    
C45   C46   1.396415 A    
C42   H15   1.082925 S    
C8    C16   1.402351 A    
C13   C14   1.395997 A    
C9    H1    1.083662 S    
H18   C49   1.083858 S    
C38   C39   1.387556 A    
O1    C1    1.279557 A    
C21   C22   1.388343 A    
C18   C20   1.416842 A    
C7    C11   1.396855 A    
C28   C29   1.380717 A    
C23   C24   1.408198 A    
C14   C36   1.386824 A    
C28   H4    1.083253 S    
C53   C54   1.390354 A    
C58   N4    1.365493 A    
C55   N4    1.375045 A    
Zn2   O8    2.010026 S    
C10   C60   1.505119 S    
N3    C57   1.365467 A    
C54   C55   1.409972 A    
N1    C6    1.364568 A    
N2    C32   1.424848 S    
C59   H27   1.107665 S    
C27   O10   1.349818 S    
C12   C13   1.409732 A    
C30   O13   1.385931 S    
C42   C43   1.388467 A    
C26   N2    1.365241 A    
C9    C16   1.404374 A    
C52   C53   1.383578 A    
H24   C58   1.081771 S    
C26   O12   1.349935 S    
C51   H20   1.062966 S    
Zn1   O5    1.995160 S    
C31   C32   1.413684 A    
C37   H10   1.083640 S    
C21   H6    1.078120 S    
C20   C24   1.413780 A    
O2    Zn2   1.995157 S    
C6    C15   1.398650 A    
O8    C4    1.296756 A    
C47   C48   1.397925 A    
O6    C3    1.292778 A    
O4    Zn2   2.011631 S    
C14   H2    1.083607 S    
C19   C35   1.417668 A    
C31   C59   1.514735 S    
C7    C8    1.387292 A    
O2    C1    1.299453 A    
C22   H5    1.083500 S    
C15   C37   1.395281 A    
C60   H30   1.110905 S    
C53   H22   1.082763 S    
C24   C25   1.408326 A    
C51   C56   1.410947 A    
C7    H9    1.083035 S    
C54   H23   1.063335 S    
C19   C20   1.417668 A    
C59   H28   1.110320 S    
C55   C56   1.429536 A    
C18   C33   1.414328 A    
H13   C48   1.083969 S    
C36   H7    1.078186 S    
C46   C47   1.424356 A    
C45   C50   1.414169 A    
C43   H16   1.082587 S    
Zn2   O6    2.005174 S    
C33   C34   1.420878 A    
C17   C30   1.415025 A    
C59   H26   1.110447 S    
C10   C11   1.406673 A    
C41   C42   1.394980 A    
C28   C32   1.391830 A    
C35   C40   1.424343 A    
