data_mof_unit_12063.cif
_audit_creation_date              2012-12-11T14:34:12-0500
_audit_creation_method            fapswitch 2.2
_symmetry_space_group_name_H-M    P1
_symmetry_Int_Tables_number       1
_space_group_crystal_system       triclinic
_cell_length_a                    13.857752
_cell_length_b                    13.963776
_cell_length_c                    27.257776
_cell_angle_alpha                 89.878606
_cell_angle_beta                  90.328003
_cell_angle_gamma                 119.488677
_cell_volume                      4591.17813112

loop_
_atom_site_label
_atom_site_type_symbol
_atom_type_description
_atom_site_fract_x
_atom_site_fract_y
_atom_site_fract_z
_atom_type_partial_charge
C1    C     C_R   0.234661 0.786905 0.569086 0.539241
C2    C     C_1   0.692276 0.854699 0.862779 0.001819
C3    C     C_1   0.139839 0.843128 0.861034 -0.014134
C4    C     C_1   0.117336 0.231812 0.852365 0.008242
C5    C     C_1   0.617971 0.808125 0.660960 -0.072656
C6    C     C_1   0.186532 0.811735 0.659550 -0.073098
C7    C     C_1   0.182087 0.358971 0.656297 -0.072992
C8    C     C_1   0.595018 0.792538 0.618051 -0.009374
C9    C     C_1   0.204251 0.803103 0.617089 -0.010269
C10   C     C_1   0.194718 0.393410 0.615103 -0.010417
C11   C     C_R   0.066587 0.152501 0.096327 0.531588
C12   C     C_R   0.212872 0.446423 0.568699 0.541875
C13   C     C_R   0.776359 0.883677 0.087673 0.537364
C14   C     C_R   0.085589 0.934889 0.095709 0.540550
C15   C     C_R   0.069393 0.160378 0.943196 0.577100
C16   C     C_R   0.778083 0.886466 0.951394 0.560881
C17   C     C_R   0.113727 0.892682 0.951136 0.570267
C18   C     C_R   0.620002 0.895221 0.360592 -0.137414
C19   C     C_R   0.092196 0.737275 0.364057 -0.135249
C20   C     C_R   0.281967 0.423598 0.352634 -0.131545
C21   C     C_R   0.642077 0.908967 0.310357 0.003429
C22   C     C_R   0.063030 0.760800 0.318108 0.012834
C23   C     C_R   0.551811 0.764652 0.569335 0.540701
C24   C     C_R   0.264941 0.378743 0.305918 0.006901
C25   C     C_R   0.675290 0.927612 0.208355 0.002552
C26   C     C_R   0.023713 0.801436 0.220935 0.015484
C27   C     C_R   0.223564 0.301108 0.209454 0.001830
C28   C     C_R   0.232336 0.788400 0.431612 0.546135
C29   C     C_R   0.212535 0.445331 0.431589 0.545244
C30   C     C_R   0.554803 0.766593 0.431511 0.545267
C31   C     C_R   0.660831 0.006656 0.233969 -0.136621
C32   C     C_R   0.954189 0.699484 0.242963 -0.123188
C33   C     C_R   0.328938 0.385866 0.222902 -0.138944
C34   C     C_3   0.548249 0.815475 0.797290 -0.208677
C35   C     C_R   0.643207 0.996766 0.284650 -0.138914
C36   C     C_R   0.974001 0.679110 0.291183 -0.127896
C37   C     C_R   0.349708 0.424168 0.271030 -0.135110
C38   C     C_R   0.701510 0.940319 0.158355 -0.149736
C39   C     C_R   0.012360 0.818803 0.171131 -0.127672
C40   C     C_R   0.199724 0.267916 0.160761 -0.125703
C41   C     C_R   0.718851 0.861373 0.134413 -0.006602
C42   C     C_R   0.089337 0.917673 0.148590 -0.015832
C43   C     C_R   0.093236 0.184956 0.147361 -0.009329
C44   C     C_R   0.640971 0.732179 0.360369 -0.135785
C45   C     C_3   0.252049 0.939333 0.788393 -0.196330
C46   C     C_R   0.244602 0.925089 0.370056 -0.130030
C47   C     C_R   0.090951 0.294591 0.374486 -0.136682
C48   C     C_R   0.658538 0.742091 0.310252 0.010434
C49   C     C_R   0.217609 0.949353 0.324123 0.011531
C50   C     C_R   0.073618 0.245782 0.328169 0.013286
C51   C     C_R   0.657469 0.829781 0.284893 0.058556
C52   C     C_R   0.128648 0.866012 0.297331 0.062875
C53   C     C_R   0.159853 0.290618 0.293256 0.063045
C54   C     C_R   0.670370 0.661638 0.284786 -0.139284
C55   C     C_R   0.282945 0.053509 0.303213 -0.130238
C56   C     C_3   0.192669 0.393753 0.796305 -0.200767
C57   C     C_R   0.970817 0.155722 0.315438 -0.130804
C58   C     C_R   0.679527 0.666980 0.234092 -0.138107
C59   C     C_R   0.265354 0.072698 0.254670 -0.124501
C60   C     C_R   0.951858 0.114168 0.267711 -0.125925
C61   C     C_R   0.680902 0.754915 0.208758 0.012353
C62   C     C_R   0.181413 0.988342 0.226791 0.018631
C63   C     C_R   0.033942 0.164070 0.231890 0.021272
C64   C     C_3   0.732064 0.935920 0.727162 -0.232532
C65   C     C_3   0.183499 0.727311 0.740066 -0.233038
C66   C     C_3   0.229089 0.262533 0.720985 -0.233812
C67   C     C_3   0.529511 0.802473 0.740816 -0.218649
C68   C     C_R   0.670514 0.837201 0.233958 0.056706
C69   C     C_R   0.109813 0.885940 0.248627 0.063087
C70   C     C_R   0.139523 0.250930 0.245000 0.064858
C71   C     C_R   0.699133 0.764929 0.158857 -0.128522
C72   C     C_R   0.171402 0.002858 0.176848 -0.134955
C73   C     C_R   0.011585 0.131265 0.182902 -0.150820
C74   C     C_R   0.613549 0.803383 0.384988 -0.005158
C75   C     C_R   0.186445 0.817684 0.388967 -0.005271
C76   C     C_R   0.194343 0.384598 0.386156 0.002928
C77   C     C_3   0.665742 0.733290 0.733512 -0.174833
C78   C     C_3   0.263131 0.932211 0.732217 -0.214080
C79   C     C_3   0.057582 0.806443 0.723966 -0.177600
C80   C     C_3   0.041485 0.249714 0.717983 -0.174678
C81   C     C_3   0.684792 0.744840 0.789867 0.130883
C82   C     C_3   0.044026 0.813117 0.780247 0.125774
C83   C     C_3   0.023383 0.213799 0.772502 0.120227
C84   C     C_1   0.725616 0.869131 0.904437 0.030661
C85   C     C_1   0.128942 0.860661 0.903275 0.016847
C86   C     C_1   0.097151 0.200272 0.894091 0.040816
C87   C     C_3   0.636198 0.820081 0.714212 0.031111
C88   C     C_3   0.172554 0.819207 0.712542 0.037280
C89   C     C_3   0.209810 0.428095 0.741515 -0.219111
C90   C     C_3   0.166309 0.325274 0.707836 0.035335
C91   C     C_3   0.749235 0.947491 0.783421 -0.249245
C92   C     C_3   0.170742 0.735165 0.796269 -0.261396
C93   C     C_3   0.212152 0.229139 0.775913 -0.263031
C94   C     C_3   0.667329 0.839715 0.809957 0.064519
C95   C     C_3   0.151169 0.832759 0.807960 0.082191
C96   C     C_3   0.135861 0.266784 0.800789 0.075565
Cl1   Cl    Cl    0.597010 0.616117 0.819752 -0.649730
Cl2   Cl    Cl    0.008182 0.917195 0.793937 -0.785539
Cl3   Cl    Cl    0.924768 0.245244 0.800065 -0.675520
Cr1   Cr    Cr6+3 0.164410 0.584450 0.499910 1.023321
Cr2   Cr    Cr6+3 0.415550 0.579960 0.499910 1.020763
Cr3   Cr    Cr6+3 0.420040 0.835590 0.499910 1.018434
Cr4   Cr    Cr6+3 0.155170 0.075460 0.019960 1.031493
Cr5   Cr    Cr6+3 0.924540 0.079710 0.019960 1.030870
Cr6   Cr    Cr6+3 0.920290 0.844830 0.019960 1.032264
H1    H     H_    0.835176 0.967794 0.792539 0.181931
H2    H     H_    0.485793 0.739466 0.816071 0.169055
H3    H     H_    0.243577 0.012467 0.797276 0.160027
H4    H     H_    0.141857 0.425166 0.814270 0.174588
H5    H     H_    0.600139 0.951274 0.379706 0.127397
H6    H     H_    0.045827 0.654748 0.378835 0.128745
H7    H     H_    0.361819 0.493745 0.361904 0.131063
H8    H     H_    0.664279 0.076457 0.214938 0.117252
H9    H     H_    0.887386 0.634057 0.222269 0.104422
H10   H     H_    0.394397 0.424121 0.196005 0.114116
H11   H     H_    0.631111 0.057972 0.303763 0.110512
H12   H     H_    0.100002 0.656886 0.809765 0.131085
H13   H     H_    0.922110 0.598309 0.306800 0.107041
H14   H     H_    0.430810 0.491640 0.280587 0.121160
H15   H     H_    0.709423 0.702105 0.140081 0.128320
H16   H     H_    0.229502 0.079764 0.159538 0.120665
H17   H     H_    0.930615 0.065416 0.172161 0.105817
H18   H     H_    0.687935 0.603715 0.214801 0.098391
H19   H     H_    0.319724 0.152223 0.238454 0.116643
H20   H     H_    0.872290 0.044935 0.258501 0.134892
H21   H     H_    0.670152 0.593436 0.303948 0.103112
H22   H     H_    0.350776 0.118534 0.323655 0.108461
H23   H     H_    0.175075 0.138557 0.778858 0.169174
H24   H     H_    0.904607 0.118769 0.342059 0.116780
H25   H     H_    0.810011 0.950071 0.709255 0.135489
H26   H     H_    0.119064 0.645015 0.726679 0.127863
H27   H     H_    0.198447 0.187571 0.697751 0.124781
H28   H     H_    0.638126 0.662301 0.379172 0.131573
H29   H     H_    0.315754 0.988458 0.389588 0.131199
H30   H     H_    0.024283 0.264299 0.400987 0.115715
H31   H     H_    0.598088 0.649404 0.723761 0.167145
H32   H     H_    0.048179 0.871386 0.704348 0.161167
H33   H     H_    0.995333 0.293693 0.708356 0.172851
H34   H     H_    0.713101 0.999910 0.713299 0.144094
H35   H     H_    0.742276 0.744393 0.715266 0.109094
H36   H     H_    0.991060 0.725789 0.709990 0.100251
H37   H     H_    0.008059 0.175427 0.694114 0.093972
H38   H     H_    0.771423 0.764331 0.797669 0.187971
H39   H     H_    0.973147 0.733779 0.792757 0.148717
H40   H     H_    0.987176 0.123268 0.773748 0.159772
H41   H     H_    0.505388 0.863017 0.727232 0.116885
H42   H     H_    0.346899 0.944373 0.723657 0.117845
H43   H     H_    0.299551 0.484541 0.734663 0.128591
H44   H     H_    0.459445 0.718916 0.732452 0.119848
H45   H     H_    0.265707 0.734686 0.732383 0.115937
H46   H     H_    0.255629 0.999620 0.713907 0.126000
H47   H     H_    0.165497 0.474469 0.733005 0.124123
H48   H     H_    0.535742 0.883957 0.810461 0.107591
H49   H     H_    0.329361 0.951681 0.806725 0.107706
H50   H     H_    0.274376 0.432424 0.815474 0.142061
H51   H     H_    0.715222 0.013947 0.139095 0.120391
H52   H     H_    0.947041 0.753852 0.149564 0.126933
H53   H     H_    0.263241 0.308174 0.133147 0.136131
H54   H     H_    0.319151 0.315305 0.713540 0.141043
H55   H     H_    0.737869 0.016633 0.796605 0.181819
H56   H     H_    0.246777 0.746297 0.815408 0.119645
H57   H     H_    0.293990 0.266633 0.794931 0.142371
O1    O     O_R   0.137150 0.468200 0.553200 -0.509772
O2    O     O_R   0.140110 0.470540 0.446010 -0.513554
O3    O     O_R   0.529460 0.669570 0.446010 -0.525306
O4    O     O_R   0.330430 0.859890 0.446010 -0.520164
O5    O     O_R   0.176710 0.690910 0.450560 -0.501383
O6    O     O_R   0.309090 0.485800 0.450560 -0.505042
O7    O     O_R   0.514200 0.823290 0.450560 -0.501359
O8    O     O_3   0.333333 0.666667 0.499990 -0.267000
O9    O     O_R   0.176750 0.985260 0.074180 -0.503890
O10   O     O_R   0.014740 0.191490 0.074180 -0.474684
O11   O     O_R   0.808510 0.823250 0.074180 -0.531629
O12   O     O_R   0.531800 0.668950 0.553200 -0.508188
O13   O     O_R   0.146100 0.172630 0.068980 -0.501940
O14   O     O_R   0.827370 0.973470 0.068980 -0.523590
O15   O     O_R   0.026530 0.853900 0.068980 -0.485171
O16   O     O_3   1.000000 0.000000 0.020040 -0.299159
O17   O     O_R   0.148270 0.170520 0.969620 -0.480931
O18   O     O_R   0.829480 0.977750 0.969620 -0.515303
O19   O     O_R   0.022250 0.851730 0.969620 -0.477992
O20   O     O_R   0.331050 0.862850 0.553200 -0.508704
O21   O     O_R   0.179100 0.982980 0.967000 -0.510150
O22   O     O_R   0.017020 0.196120 0.967000 -0.473851
O23   O     O_R   0.803880 0.820900 0.967000 -0.482588
O24   O     O_R   0.173970 0.688730 0.549930 -0.498690
O25   O     O_R   0.311270 0.485240 0.549930 -0.498968
O26   O     O_R   0.514760 0.826030 0.549930 -0.498098

loop_
_geom_bond_atom_site_label_1
_geom_bond_atom_site_label_2
_ccdc_geom_bond_type
C92   H56   S    
C25   C31   A    
C65   C92   S    
C26   C32   A    
C16   O18   A    
C55   C59   A    
C72   H16   S    
C89   H43   S    
C18   C21   A    
C2    C84   T    
C29   O2    A    
C77   H35   S    
C38   H51   S    
Cr6   O16   S    
C6    C9    T    
C13   C41   S    
C79   C82   S    
Cr5   O14   S    
C23   O12   A    
C20   H7    S    
C1    O24   A    
C27   C33   A    
C13   O11   A    
C54   H21   S    
C46   C49   A    
C58   H18   S    
C71   H15   S    
C60   C63   A    
C17   C85   S    
C34   H2    S    
C32   C36   A    
C29   O6    A    
C40   H53   S    
C60   H20   S    
C47   C76   A    
C15   O17   A    
C16   O23   A    
C56   H50   S    
C23   O26   A    
C30   C74   S    
C26   C39   A    
C67   H44   S    
C78   C88   S    
C16   C84   S    
C8    C23   S    
C6    C88   S    
C20   C76   A    
C7    C10   T    
Cr6   O23   S    
C65   H45   S    
C35   H11   S    
C66   H54   S    
C52   C69   A    
C28   O5    A    
C83   H40   S    
C13   O14   A    
Cr3   O26   S    
C43   C73   A    
C89   H47   S    
Cr5   O16   S    
C20   C24   A    
C11   C43   S    
C45   C78   S    
C77   H31   S    
C39   C42   A    
C36   H13   S    
C64   C87   S    
Cr4   O17   S    
C45   H3    S    
C28   O4    A    
Cr5   O10   S    
C47   H30   S    
C61   C71   A    
Cr3   O7    S    
C11   O10   A    
Cr3   O4    S    
Cr6   O11   S    
C39   H52   S    
Cr4   O9    S    
C82   Cl2   S    
C91   H1    S    
Cr2   O12   S    
C25   C68   A    
C80   C83   S    
C53   C70   A    
C10   C12   S    
C42   C72   A    
C46   C75   A    
C65   H26   S    
C78   H46   S    
C47   C50   A    
C66   H27   S    
C40   C43   A    
C4    C96   S    
C48   C51   A    
C50   C53   A    
C33   H10   S    
Cr1   O8    S    
Cr3   O20   S    
C18   H5    S    
C2    C94   S    
C19   C22   A    
C1    C9    S    
C38   C41   A    
C82   H39   S    
C29   C76   S    
C14   O9    A    
C57   C60   A    
C63   C73   A    
C24   C53   A    
C49   C55   A    
C12   O25   A    
C92   C95   S    
C33   C37   A    
C62   C69   A    
C48   C54   A    
Cr2   O6    S    
Cr1   O24   S    
C92   H12   S    
C30   O7    A    
C25   C38   A    
C46   H29   S    
C17   O21   A    
C37   H14   S    
C63   C70   A    
C77   C81   S    
C27   C40   A    
C49   C52   A    
C15   O22   A    
C67   H41   S    
Cr4   O13   S    
C24   C37   A    
C62   C72   A    
Cr2   O8    S    
Cr1   O2    S    
C14   C42   S    
Cr2   O3    S    
C91   H55   S    
C27   C70   A    
C79   C88   S    
C78   H42   S    
C15   C86   S    
C56   C89   S    
C79   H32   S    
C55   H22   S    
C93   C96   S    
C80   H37   S    
C66   C93   S    
Cr4   O21   S    
C3    C85   T    
C45   C95   S    
C56   H4    S    
C21   C51   A    
C65   C88   S    
C22   C52   A    
C54   C58   A    
C34   H48   S    
C57   H24   S    
C59   H19   S    
C56   C96   S    
C59   C62   A    
C82   C95   S    
Cr5   O22   S    
C50   C57   A    
C67   C87   S    
C34   C94   S    
C30   O3    A    
Cr6   O15   S    
C44   C74   A    
C34   C67   S    
C5    C8    T    
C3    C95   S    
C1    O20   A    
Cr5   O18   S    
C21   C35   A    
C19   H6    S    
C22   C36   A    
C11   O13   A    
C41   C71   A    
Cr4   O16   S    
Cr6   O19   S    
C19   C75   A    
C93   H23   S    
C12   O1    A    
C81   C94   S    
C7    C90   S    
C61   C68   A    
C79   H36   S    
C81   Cl1   S    
Cr3   O8    S    
C58   C61   A    
C80   H33   S    
C83   C96   S    
C44   H28   S    
Cr1   O5    S    
C66   C90   S    
Cr1   O1    S    
C31   C35   A    
C51   C68   A    
C80   C90   S    
C93   H57   S    
C14   O15   A    
C5    C87   S    
C17   O19   A    
C81   H38   S    
C4    C86   T    
C77   C87   S    
C18   C74   A    
C73   H17   S    
C64   H25   S    
C26   C69   A    
C83   Cl3   S    
C45   H49   S    
C64   C91   S    
C32   H9    S    
C89   C90   S    
Cr2   O25   S    
C28   C75   S    
C31   H8    S    
C44   C48   A    
C91   C94   S    
C64   H34   S    
