data_mof_unit_46025.cif
_audit_creation_date              2012-12-10T17:02:56-0500
_audit_creation_method            fapswitch 2.2
_symmetry_space_group_name_H-M    P1
_symmetry_Int_Tables_number       1
_space_group_crystal_system       triclinic
_cell_length_a                    9.853696
_cell_length_b                    11.035788
_cell_length_c                    13.456589
_cell_angle_alpha                 95.148141
_cell_angle_beta                  81.323898
_cell_angle_gamma                 111.266643
_cell_volume                      1347.08716511

loop_
_atom_site_label
_atom_site_type_symbol
_atom_type_description
_atom_site_fract_x
_atom_site_fract_y
_atom_site_fract_z
_atom_type_partial_charge
C1    C     C_R   0.556586 0.745429 0.507286 0.857452
C2    C     C_R   0.445937 0.460100 0.964820 -0.014129
C3    C     C_R   0.479992 0.518215 0.869637 0.094544
C4    C     C_R   0.553086 0.507469 0.033297 0.062327
C5    C     C_R   0.697855 0.590851 0.999802 0.173181
C6    C     C_R   0.728587 0.644980 0.906026 -0.234920
C7    C     C_R   0.618337 0.616567 0.845405 -0.182326
C8    C     C_R   0.517180 0.486178 0.136466 -0.263123
C9    C     C_R   0.771234 0.593902 0.164218 -0.139417
C10   C     C_R   0.376427 0.474727 0.799521 -0.103612
C11   C     C_2   0.588471 0.884878 0.511100 -0.349881
C12   C     C_R   0.423429 0.492216 0.690746 0.783517
C13   C     C_2   0.484657 0.930499 0.497808 -0.141036
C14   C     C_2   0.411738 0.115163 0.488556 -0.344425
C15   C     C_2   0.515772 0.069582 0.501405 -0.154995
C16   C     C_2   0.929833 0.501399 0.483451 0.055249
C17   C     C_2   0.081235 0.517081 0.504402 -0.069628
C18   C     C_R   0.443451 0.254584 0.492652 0.861780
C19   C     C_R   0.577778 0.512664 0.309830 0.800145
C20   C     C_R   0.807222 0.628070 0.063933 -0.182358
C21   C     C_R   0.624596 0.527831 0.201762 -0.057395
C22   C     C_R   0.233487 0.391550 0.830277 -0.248021
C23   C     C_R   0.199685 0.332919 0.922184 -0.106531
C24   C     C_R   0.307781 0.356322 0.985666 0.009332
Cu1   Cu    Cu3+1 0.362000 0.479240 0.482530 0.959988
Cu2   Cu    Cu3+1 0.638000 0.520760 0.517470 0.937842
H1    H     H_    0.855657 0.627723 0.213732 0.189422
H2    H     H_    0.375546 0.865015 0.484190 0.184299
H3    H     H_    0.302766 0.049362 0.475096 0.155318
H4    H     H_    0.697368 0.950657 0.524748 0.151115
H5    H     H_    0.130983 0.588573 0.561491 0.144564
H6    H     H_    0.105753 0.375955 0.405357 0.229819
H7    H     H_    0.886006 0.601606 0.607742 0.185266
H8    H     H_    0.835814 0.715887 0.882068 0.143300
H9    H     H_    0.918996 0.688541 0.037705 0.147117
H10   H     H_    0.403635 0.445109 0.168270 0.177097
H11   H     H_    0.151663 0.360025 0.778747 0.166286
H12   H     H_    0.092460 0.258286 0.938484 0.182207
H13   H     H_    0.643611 0.672938 0.778975 0.159174
H14   H     H_    0.624957 0.135075 0.514846 0.173840
N1    N     N_2   0.845330 0.551960 0.543750 -0.327906
N2    N     N_2   0.154690 0.448120 0.456210 -0.274740
O1    O     O_R   0.426290 0.668220 0.490680 -0.574534
O2    O     O_R   0.659360 0.703290 0.520190 -0.575726
O3    O     O_R   0.326580 0.473880 0.629020 -0.580545
O4    O     O_R   0.559660 0.508940 0.658530 -0.576088
O5    O     O_R   0.340640 0.296710 0.479810 -0.570814
O6    O     O_R   0.573710 0.331780 0.509320 -0.603526
O7    O     O_R   0.440340 0.491060 0.341470 -0.562440
O8    O     O_R   0.673420 0.526120 0.370980 -0.585653
C25   C     C_2   0.881224 0.429532 0.389363 0.433978
H15   H     H_    0.778144 0.349287 0.389553 0.094585
O9    O     O_2   0.959065 0.459502 0.309217 -0.563374
C26   C     C_2   0.280711 0.257162 0.061268 0.326180
H16   H     H_    0.372129 0.240966 0.086371 0.079779
O10   O     O_2   0.155993 0.190611 0.094965 -0.531560

loop_
_geom_bond_atom_site_label_1
_geom_bond_atom_site_label_2
_ccdc_geom_bond_type
Cu1   N2    S    
C2    C4    A    
C23   C24   A    
C13   H2    S    
C6    C7    A    
C23   H12   S    
Cu1   O5    S    
C9    C20   A    
C1    C11   S    
C16   C25   S    
Cu2   O6    S    
C4    C8    A    
H7    N1    S    
C18   O5    A    
Cu1   O1    S    
C13   C15   S    
C2    C3    A    
Cu2   O2    S    
C3    C10   A    
Cu2   N1    S    
C10   C22   A    
C11   C13   D    
C19   O8    A    
C9    C21   A    
C16   C17   S    
C10   C12   S    
C7    H13   S    
C19   C21   S    
C1    O1    A    
C14   C18   S    
C8    C21   A    
C3    C7    A    
Cu2   O8    S    
C2    C24   A    
C5    C6    A    
C17   H5    S    
C26   O10   D    
C15   H14   S    
C6    H8    S    
Cu2   O4    S    
C14   H3    S    
C24   C26   S    
C25   H15   S    
Cu1   O3    S    
C9    H1    S    
C12   O4    A    
C8    H10   S    
C5    C20   A    
C19   O7    A    
C26   H16   S    
C4    C5    A    
H6    N2    S    
C1    O2    A    
Cu1   Cu2   S    
C17   N2    D    
C22   H11   S    
C16   N1    D    
C20   H9    S    
C22   C23   A    
C14   C15   D    
C11   H4    S    
C12   O3    A    
C25   O9    D    
Cu1   O7    S    
C18   O6    A    
