data_mof_unit_10775.cif
_audit_creation_date              2012-12-11T14:28:23-0500
_audit_creation_method            fapswitch 2.2
_symmetry_space_group_name_H-M    P1
_symmetry_Int_Tables_number       1
_space_group_crystal_system       triclinic
_cell_length_a                    10.95368
_cell_length_b                    19.680406
_cell_length_c                    18.637994
_cell_angle_alpha                 89.889224
_cell_angle_beta                  90.444003
_cell_angle_gamma                 90.080653
_cell_volume                      4017.7138053

loop_
_atom_site_label
_atom_site_type_symbol
_atom_type_description
_atom_site_fract_x
_atom_site_fract_y
_atom_site_fract_z
_atom_type_partial_charge
C1    C     C_R   0.316366 0.938173 0.637103 0.527064
C2    C     C_3   0.149852 0.722776 0.034949 -0.097987
C3    C     C_3   0.079052 0.200634 0.969347 -0.098634
C4    C     C_3   0.488261 0.290001 0.478452 -0.109541
C5    C     C_3   0.493851 0.291627 0.021184 -0.110036
C6    C     C_3   0.502856 0.704793 0.521982 -0.108387
C7    C     C_3   0.578999 0.700614 0.969345 -0.098415
C8    C     C_3   0.187299 0.764099 0.517394 -0.150203
C9    C     C_3   0.126577 0.789994 0.994931 -0.153239
C10   C     C_3   0.168659 0.234643 0.489266 -0.156734
C11   C     C_3   0.172864 0.239651 0.015333 -0.153999
C12   C     C_3   0.621913 0.291826 0.504641 -0.152985
C13   C     C_3   0.141708 0.305181 0.521102 -0.132248
C14   C     C_3   0.626586 0.289987 0.994936 -0.152680
C15   C     C_3   0.635574 0.706752 0.494817 -0.148675
C16   C     C_3   0.672881 0.739598 0.015313 -0.153734
C17   C     C_3   0.084857 0.753984 0.571778 0.025683
C18   C     C_3   0.084740 0.749074 0.928745 0.028543
C19   C     C_3   0.081748 0.250604 0.426752 0.023826
C20   C     C_3   0.077639 0.248986 0.074124 0.022954
C21   C     C_3   0.585208 0.249698 0.570654 0.031759
C22   C     C_3   0.584734 0.249077 0.928745 0.028295
C23   C     C_3   0.591816 0.748663 0.429841 0.027269
C24   C     C_3   0.134063 0.308211 0.983039 -0.135330
C25   C     C_3   0.577685 0.748978 0.074112 0.022728
C26   C     C_3   0.998242 0.797090 0.525145 -0.113616
C27   C     C_3   0.952588 0.751198 0.953691 -0.152330
C28   C     C_3   0.975002 0.217673 0.466422 -0.111570
C29   C     C_3   0.983652 0.208920 0.029420 -0.117729
C30   C     C_3   0.452462 0.248266 0.545901 -0.152153
C31   C     C_3   0.452583 0.251212 0.953693 -0.152684
C32   C     C_3   0.460501 0.746361 0.455362 -0.150555
C33   C     C_3   0.483629 0.708947 0.029428 -0.118288
C34   C     C_3   0.958018 0.731082 0.487204 -0.103358
C35   C     C_3   0.649477 0.225699 0.464519 -0.104870
C36   C     C_3   0.973810 0.683632 0.995051 -0.174888
C37   C     C_3   0.946023 0.288050 0.499121 -0.131992
C38   C     C_3   0.942878 0.276961 0.995779 -0.124530
C39   C     C_3   0.478405 0.181467 0.504727 -0.171680
C40   C     C_3   0.473783 0.183640 0.995045 -0.175292
C41   C     C_3   0.483664 0.813456 0.496654 -0.169951
C42   C     C_3   0.442931 0.777001 0.995783 -0.125162
C43   C     C_3   0.044421 0.689200 0.535493 0.050068
C44   C     C_3   0.105983 0.682602 0.969191 0.075449
C45   C     C_3   0.053469 0.319700 0.458331 0.061587
C46   C     C_3   0.649842 0.222762 0.034944 -0.097106
C47   C     C_3   0.036707 0.315791 0.041963 0.058471
C48   C     C_3   0.611369 0.184108 0.530152 0.080079
C49   C     C_3   0.605956 0.182598 0.969183 0.076206
C50   C     C_3   0.615447 0.814413 0.470608 0.073148
C51   C     C_3   0.536834 0.815795 0.041944 0.058448
C52   C     C_2   0.999081 0.634070 0.584219 0.567799
C53   C     C_2   0.166687 0.623156 0.935039 0.600116
C54   C     C_2   0.040722 0.378581 0.407951 0.580718
C55   C     C_2   0.997416 0.370615 0.092721 0.577548
C56   C     C_2   0.680529 0.127898 0.565323 0.596081
C57   C     C_3   0.660063 0.773475 0.535742 -0.102474
C58   C     C_2   0.666655 0.123155 0.935016 0.599531
C59   C     C_2   0.677690 0.871837 0.433801 0.594704
C60   C     C_2   0.497715 0.870654 0.092697 0.578591
C61   C     C_3   0.634158 0.808169 0.983013 -0.135068
C62   C     C_3   0.063119 0.740260 0.433290 0.027239
C63   C     C_3   0.017573 0.724591 0.061023 0.014962
C64   C     C_3   0.033992 0.272417 0.561634 0.022069
C65   C     C_R   0.316791 0.938151 0.862975 0.519009
C66   C     C_3   0.039961 0.268832 0.937623 0.027044
C67   C     C_3   0.516458 0.223756 0.438714 0.011443
C68   C     C_3   0.517565 0.224588 0.061022 0.013440
C69   C     C_3   0.527663 0.771720 0.562063 0.019624
C70   C     C_3   0.539984 0.768824 0.937616 0.027049
C71   C     C_R   0.328468 0.040379 0.437194 -0.045108
C72   C     C_R   0.326354 0.041411 0.062240 -0.027595
C73   C     C_R   0.325224 0.962420 0.562805 -0.042893
C74   C     C_R   0.324648 0.962336 0.937320 -0.030662
C75   C     C_R   0.819421 0.540834 0.438462 -0.019441
C76   C     C_R   0.317604 0.062682 0.362515 0.530614
C77   C     C_R   0.826363 0.541401 0.062246 -0.027198
C78   C     C_R   0.818925 0.459060 0.561971 -0.048179
C79   C     C_R   0.824660 0.462337 0.937320 -0.030747
C80   C     C_R   0.555510 0.038425 0.440520 -0.082755
C81   C     C_R   0.553913 0.037255 0.062637 -0.086553
C82   C     C_R   0.551110 0.958243 0.560164 -0.080372
C83   C     C_R   0.549608 0.954826 0.945195 -0.059405
C84   C     C_R   0.044055 0.548931 0.448985 -0.068147
C85   C     C_R   0.053929 0.537218 0.062667 -0.086122
C86   C     C_R   0.045049 0.455911 0.557291 -0.066747
C87   C     C_R   0.316688 0.063071 0.137353 0.537233
C88   C     C_R   0.049629 0.454835 0.945191 -0.058543
C89   C     C_R   0.662706 0.016331 0.470921 -0.059859
C90   C     C_R   0.660062 0.007650 0.039949 -0.062537
C91   C     C_R   0.660190 0.979061 0.533376 -0.061717
C92   C     C_R   0.658213 0.969392 0.978701 -0.084636
C93   C     C_R   0.153166 0.531095 0.481759 -0.055741
C94   C     C_R   0.160074 0.507606 0.039984 -0.062408
C95   C     C_R   0.153914 0.483979 0.535911 -0.056326
C96   C     C_R   0.158230 0.469386 0.978711 -0.085063
C97   C     C_R   0.438713 0.980183 0.531581 0.018226
C98   C     C_R   0.815097 0.436704 0.637247 0.507850
C99   C     C_R   0.437444 0.979553 0.970189 0.042871
C100  C     C_R   0.440672 0.019109 0.468134 0.023469
C101  C     C_R   0.438933 0.020134 0.032387 0.031003
C102  C     C_R   0.931124 0.478164 0.530447 0.031510
C103  C     C_R   0.937459 0.479547 0.970193 0.042329
C104  C     C_R   0.931145 0.522334 0.471380 0.042475
C105  C     C_R   0.938947 0.520114 0.032402 0.030227
C106  C     C_R   0.216549 0.979843 0.527165 0.016388
C107  C     C_R   0.215070 0.979227 0.971792 0.038594
C108  C     C_R   0.219842 0.029223 0.474235 0.008720
C109  C     C_R   0.816794 0.438154 0.862974 0.517166
C110  C     C_R   0.217032 0.028291 0.025182 0.020315
C111  C     C_R   0.707070 0.475787 0.527341 0.033000
C112  C     C_R   0.715081 0.479223 0.971794 0.038716
C113  C     C_R   0.707326 0.523536 0.471895 0.043676
C114  C     C_R   0.717041 0.528287 0.025184 0.020631
C115  C     C_R   0.102964 0.951099 0.544218 -0.096414
C116  C     C_R   0.102193 0.948328 0.954829 -0.085600
C117  C     C_R   0.111362 0.062811 0.455986 -0.101766
C118  C     C_R   0.106331 0.058473 0.044801 -0.094083
C119  C     C_R   0.593597 0.445842 0.546354 -0.090232
C120  C     C_R   0.815821 0.563166 0.362888 0.522423
C121  C     C_R   0.602208 0.448321 0.954834 -0.084950
C122  C     C_R   0.593145 0.549094 0.447809 -0.085872
C123  C     C_R   0.606336 0.558469 0.044802 -0.093604
C124  C     C_R   0.996362 0.978447 0.517016 -0.082811
C125  C     C_R   0.995926 0.970199 0.986128 -0.120920
C126  C     C_R   0.000313 0.037242 0.476422 -0.080473
C127  C     C_R   0.996673 0.028527 0.027261 -0.098182
C128  C     C_R   0.486498 0.462057 0.510399 -0.120605
C129  C     C_R   0.495939 0.470188 0.986135 -0.119817
C130  C     C_R   0.486300 0.514552 0.461412 -0.109983
C131  C     C_R   0.816690 0.563065 0.137354 0.534721
C132  C     C_R   0.496679 0.528517 0.027266 -0.097158
C133  C     C_R   0.130318 0.758319 0.645290 0.549842
C134  C     C_R   0.135959 0.758944 0.857000 0.540308
C135  C     C_R   0.131649 0.241939 0.354955 0.540563
C136  C     C_R   0.129640 0.242030 0.145784 0.548373
C137  C     C_R   0.636158 0.259239 0.642758 0.544103
C138  C     C_R   0.635959 0.258944 0.857000 0.540627
C139  C     C_R   0.637749 0.740441 0.357314 0.548334
C140  C     C_R   0.629655 0.742027 0.145778 0.548269
C141  C     C_R   0.498985 0.786211 0.637267 0.525746
C142  C     C_3   0.148922 0.697477 0.480917 -0.143237
C143  C     C_R   0.507428 0.783540 0.862861 0.530323
C144  C     C_R   0.494246 0.211717 0.361835 0.534327
C145  C     C_R   0.494844 0.212268 0.137783 0.532054
C146  C     C_R   0.002231 0.285486 0.636948 0.525530
C147  C     C_R   0.007403 0.283549 0.862865 0.528399
C148  C     C_R   0.038354 0.728105 0.357052 0.547544
C149  C     C_R   0.994849 0.712270 0.137783 0.528759
C150  C     C_3   0.101236 0.806447 0.469445 -0.114857
C151  C     C_3   0.993839 0.791624 0.021178 -0.110256
C152  C     C_3   0.061668 0.202388 0.530407 -0.088997
Cr1   Cr    Cr6+3 0.488160 0.884660 0.750000 1.012133
Cr2   Cr    Cr6+3 0.333410 0.272740 0.250000 1.078342
Cr3   Cr    Cr6+3 0.833410 0.227260 0.750000 1.078939
Cr4   Cr    Cr6+3 0.833410 0.772740 0.250000 1.074690
Cr5   Cr    Cr6+3 0.488160 0.115340 0.250000 0.983827
Cr6   Cr    Cr6+3 0.988160 0.384660 0.750000 1.026575
Cr7   Cr    Cr6+3 0.988160 0.615340 0.250000 0.995627
Cr8   Cr    Cr6+3 0.173480 0.883120 0.750000 0.999776
Cr9   Cr    Cr6+3 0.173480 0.116880 0.250000 1.001322
Cr10  Cr    Cr6+3 0.673480 0.383120 0.750000 1.001260
Cr11  Cr    Cr6+3 0.673480 0.616880 0.250000 1.004346
Cr12  Cr    Cr6+3 0.333410 0.727260 0.750000 1.080187
H1    H     H_    0.276931 0.779369 0.538008 0.110103
H2    H     H_    0.915966 0.940680 0.978153 0.092878
H3    H     H_    0.920347 0.062914 0.458087 0.136303
H4    H     H_    0.915337 0.050082 0.048455 0.130013
H5    H     H_    0.405149 0.432829 0.519984 0.100859
H6    H     H_    0.415983 0.440666 0.978159 0.093018
H7    H     H_    0.406397 0.526873 0.430533 0.119318
H8    H     H_    0.415335 0.550070 0.048459 0.130279
H9    H     H_    0.127173 0.853116 0.439728 0.149774
H10   H     H_    0.945699 0.835938 0.044244 0.146890
H11   H     H_    0.066141 0.155325 0.563188 0.171161
H12   H     H_    0.184678 0.835351 0.000650 0.132791
H13   H     H_    0.098317 0.154773 0.936815 0.153377
H14   H     H_    0.434870 0.332355 0.454748 0.154830
H15   H     H_    0.445726 0.335942 0.044257 0.147434
H16   H     H_    0.455470 0.659596 0.544202 0.148979
H17   H     H_    0.598187 0.654744 0.936814 0.153765
H18   H     H_    0.933816 0.835084 0.546588 0.133380
H19   H     H_    0.873938 0.763230 0.918040 0.136174
H20   H     H_    0.913036 0.180635 0.440553 0.129113
H21   H     H_    0.922101 0.169853 0.051852 0.141760
H22   H     H_    0.374670 0.258068 0.582164 0.137102
H23   H     H_    0.255090 0.208789 0.478636 0.102920
H24   H     H_    0.373931 0.263260 0.918049 0.135945
H25   H     H_    0.382251 0.735316 0.419127 0.132036
H26   H     H_    0.422070 0.669891 0.051874 0.141715
H27   H     H_    0.866498 0.717264 0.467721 0.116508
H28   H     H_    0.905954 0.642725 0.990263 0.109291
H29   H     H_    0.860152 0.314390 0.507970 0.099261
H30   H     H_    0.853271 0.293615 0.977921 0.100284
H31   H     H_    0.414150 0.139187 0.510983 0.119042
H32   H     H_    0.405897 0.142748 0.990258 0.109423
H33   H     H_    0.417340 0.855366 0.494149 0.111995
H34   H     H_    0.263784 0.221721 0.030802 0.107857
H35   H     H_    0.353336 0.793713 0.977962 0.100288
H36   H     H_    0.218905 0.662862 0.459961 0.106960
H37   H     H_    0.229806 0.711286 0.069540 0.148036
H38   H     H_    0.212025 0.339827 0.543681 0.114316
H39   H     H_    0.206123 0.341544 0.961784 0.111196
H40   H     H_    0.727147 0.217282 0.428300 0.147126
H41   H     H_    0.729801 0.211258 0.069527 0.149092
H42   H     H_    0.740552 0.784738 0.570140 0.147456
H43   H     H_    0.706209 0.841505 0.961748 0.111023
H44   H     H_    0.746345 0.028645 0.445198 0.121898
H45   H     H_    0.677451 0.337775 0.499284 0.120303
H46   H     H_    0.742463 0.016387 0.069553 0.118361
H47   H     H_    0.740530 0.963375 0.561500 0.109996
H48   H     H_    0.739190 0.951220 0.954587 0.087513
H49   H     H_    0.236014 0.555163 0.466247 0.088448
H50   H     H_    0.242483 0.516334 0.069590 0.120302
H51   H     H_    0.237215 0.470139 0.563151 0.104903
H52   H     H_    0.239215 0.451234 0.954587 0.088510
H53   H     H_    0.568930 0.073568 0.398334 0.166320
H54   H     H_    0.567814 0.074710 0.102344 0.167137
H55   H     H_    0.560956 0.921489 0.600501 0.168235
H56   H     H_    0.684697 0.335341 0.000659 0.133202
H57   H     H_    0.558486 0.920065 0.902956 0.167591
H58   H     H_    0.049120 0.588498 0.411278 0.164640
H59   H     H_    0.067847 0.574673 0.102375 0.168532
H60   H     H_    0.053396 0.415846 0.593936 0.158637
H61   H     H_    0.058531 0.420101 0.902927 0.168157
H62   H     H_    0.112005 0.107233 0.423184 0.149617
H63   H     H_    0.104616 0.102478 0.078265 0.148491
H64   H     H_    0.096152 0.907096 0.578048 0.148616
H65   H     H_    0.094995 0.905068 0.919954 0.150189
H66   H     H_    0.585547 0.592548 0.413139 0.153461
H67   H     H_    0.697808 0.662712 0.494982 0.140919
H68   H     H_    0.604615 0.602476 0.078262 0.148467
H69   H     H_    0.587109 0.405143 0.584482 0.158529
H70   H     H_    0.595014 0.405060 0.919960 0.150219
H71   H     H_    0.853285 0.589718 0.630297 0.365356
H72   H     H_    0.323700 0.573376 0.916903 0.337045
H73   H     H_    0.931772 0.427582 0.337500 0.368253
H74   H     H_    0.043710 0.434042 0.173290 0.354900
H75   H     H_    0.685559 0.062642 0.649065 0.335970
H76   H     H_    0.823670 0.073382 0.916856 0.335636
H77   H     H_    0.670969 0.936676 0.349706 0.333139
H78   H     H_    0.763772 0.721624 0.030780 0.108038
H79   H     H_    0.544301 0.934154 0.173148 0.356080
H80   H     H_    0.913186 0.953661 0.528472 0.142131
O1    O     O_R   0.575450 0.828820 0.667950 -0.543852
O2    O     O_R   0.416860 0.942890 0.825320 -0.486280
O3    O     O_R   0.416860 0.057110 0.325320 -0.504058
O4    O     O_R   0.416860 0.057110 0.174680 -0.517530
O5    O     O_R   0.916860 0.442890 0.674680 -0.487848
O6    O     O_R   0.916860 0.442890 0.825320 -0.484752
O7    O     O_R   0.916860 0.557110 0.325320 -0.506157
O8    O     O_R   0.916860 0.557110 0.174680 -0.519264
O9    O     O_R   0.213790 0.953680 0.668330 -0.490993
O10   O     O_R   0.213790 0.953680 0.831670 -0.497158
O11   O     O_R   0.213790 0.046320 0.331670 -0.484243
O12   O     O_R   0.575450 0.828820 0.832050 -0.545477
O13   O     O_R   0.213790 0.046320 0.168330 -0.475082
O14   O     O_R   0.713790 0.453680 0.668330 -0.499337
O15   O     O_R   0.713790 0.453680 0.831670 -0.497359
O16   O     O_R   0.713790 0.546320 0.331670 -0.493037
O17   O     O_R   0.713790 0.546320 0.168330 -0.474847
O18   O     O_R   0.121360 0.817890 0.672660 -0.550396
O19   O     O_R   0.121360 0.817890 0.827340 -0.547007
O20   O     O_R   0.121360 0.182110 0.327340 -0.552615
O21   O     O_R   0.121360 0.182110 0.172660 -0.555604
O22   O     O_R   0.621360 0.317890 0.672660 -0.549149
O23   O     O_R   0.575450 0.171180 0.332050 -0.541324
O24   O     O_R   0.621360 0.317890 0.827340 -0.545585
O25   O     O_R   0.621360 0.682110 0.327340 -0.551489
O26   O     O_R   0.621360 0.682110 0.172660 -0.556419
O27   O     O_R   0.206850 0.711370 0.665820 -0.470654
O28   O     O_R   0.206850 0.711370 0.834180 -0.466175
O29   O     O_R   0.206850 0.288630 0.334180 -0.474998
O30   O     O_R   0.206850 0.288630 0.165820 -0.465506
O31   O     O_R   0.706850 0.211370 0.665820 -0.466275
O32   O     O_R   0.706850 0.211370 0.834180 -0.469300
O33   O     O_R   0.706850 0.788630 0.334180 -0.462398
O34   O     O_R   0.575450 0.171180 0.167950 -0.540261
O35   O     O_R   0.706850 0.788630 0.165820 -0.467440
O36   O     O_R   0.457710 0.733190 0.672630 -0.479530
O37   O     O_R   0.457710 0.733190 0.827370 -0.472081
O38   O     O_R   0.457710 0.266810 0.327370 -0.470852
O39   O     O_R   0.457710 0.266810 0.172630 -0.471631
O40   O     O_R   0.957710 0.233190 0.672630 -0.470605
O41   O     O_R   0.957710 0.233190 0.827370 -0.474967
O42   O     O_R   0.957710 0.766810 0.327370 -0.474928
O43   O     O_R   0.957710 0.766810 0.172630 -0.480436
O44   O     O_3   0.331690 0.831680 0.750000 -0.348694
O45   O     O_R   0.075450 0.328820 0.667950 -0.543161
O46   O     O_3   0.331690 0.168320 0.250000 -0.357462
O47   O     O_3   0.831690 0.331680 0.750000 -0.348741
O48   O     O_3   0.831690 0.668320 0.250000 -0.340164
O49   O     O_2   0.071091 0.601381 0.620769 -0.475382
O50   O     O_R   0.873474 0.624660 0.592184 -0.727417
O51   O     O_2   0.111221 0.590442 0.889591 -0.485216
O52   O     O_R   0.290195 0.610914 0.948236 -0.736096
O53   O     O_2   0.130847 0.410884 0.390091 -0.506988
O54   O     O_R   0.927177 0.391599 0.376257 -0.692965
O55   O     O_2   0.888987 0.384168 0.098058 -0.521436
O56   O     O_R   0.075450 0.328820 0.832050 -0.545114
O57   O     O_R   0.082773 0.401693 0.138011 -0.667221
O58   O     O_2   0.788382 0.119575 0.551855 -0.574577
O59   O     O_R   0.625689 0.092485 0.621789 -0.655471
O60   O     O_2   0.611179 0.090443 0.889570 -0.490722
O61   O     O_R   0.790172 0.110918 0.948195 -0.736078
O62   O     O_2   0.786295 0.882111 0.444442 -0.570566
O63   O     O_R   0.615598 0.905706 0.378410 -0.662339
O64   O     O_2   0.389314 0.884239 0.098116 -0.522154
O65   O     O_R   0.583220 0.901737 0.137886 -0.671053
O66   O     O_R   0.075450 0.671180 0.332050 -0.551227
O67   O     O_R   0.075450 0.671180 0.167950 -0.543629
O68   O     O_R   0.416860 0.942890 0.674680 -0.494167

loop_
_geom_bond_atom_site_label_1
_geom_bond_atom_site_label_2
_ccdc_geom_bond_type
C46   H41   S    
C6    C32   S    
C21   C137  S    
C110  C118  A    
C139  O25   A    
C64   C152  S    
C50   C59   S    
C133  O27   A    
C72   C101  A    
C9    H12   S    
C76   O11   A    
C5    H15   S    
C44   C53   S    
C113  C122  A    
Cr8   O19   S    
C124  H80   S    
C117  C126  A    
C21   C48   S    
C119  C128  A    
C98   O14   A    
C148  O42   A    
C71   C108  A    
C7    C33   S    
C14   H56   S    
Cr5   O23   S    
C11   C20   S    
C94   H50   S    
C79   C109  S    
Cr11  O26   S    
C25   C140  S    
Cr4   O35   S    
Cr10  O47   S    
C120  O16   A    
C39   H31   S    
C137  O31   A    
C82   C91   A    
C37   H29   S    
Cr8   O9    S    
C109  O15   A    
Cr2   O29   S    
C8    C150  S    
C17   C43   S    
C18   C44   S    
C90   C92   A    
C130  H7    S    
Cr1   O2    S    
Cr11  O17   S    
C111  C113  A    
C94   C96   A    
C22   C49   S    
C81   C90   A    
C26   H18   S    
C41   H33   S    
H77   O63   S    
C17   C133  S    
C118  H63   S    
C107  C110  A    
C36   C44   S    
C144  O23   A    
C37   C45   S    
H73   O54   S    
C41   C69   S    
C21   C30   S    
H74   O57   S    
C16   C25   S    
C9    C151  S    
C62   C150  S    
C64   C146  S    
C50   C57   S    
C139  O33   A    
Cr3   O32   S    
C98   O5    A    
C8    C17   S    
C96   H52   S    
C106  C115  A    
H72   O52   S    
Cr7   O7    S    
C13   C45   S    
C12   C21   S    
C84   C93   A    
Cr5   O4    S    
C27   H19   S    
C20   C47   S    
C3    C11   S    
C86   C95   A    
C83   H57   S    
Cr10  O14   S    
C121  H70   S    
C125  C127  A    
C43   C142  S    
C132  H8    S    
C69   C141  S    
C16   H78   S    
C6    C69   S    
C65   O2    A    
C134  O19   A    
C123  C132  A    
Cr6   O5    S    
C87   O13   A    
C59   O63   S    
C81   C101  A    
C13   H38   S    
C70   C143  S    
C33   C42   S    
C12   H45   S    
C43   C52   S    
C56   O59   S    
C134  O28   A    
C40   C49   S    
C42   C70   S    
C111  C119  A    
C77   C131  S    
C3    C29   S    
Cr7   O48   S    
C74   C107  A    
C119  H69   S    
C82   H55   S    
Cr9   O21   S    
C29   C38   S    
C141  O1    A    
C32   C41   S    
C78   C111  A    
C75   C113  A    
C89   C91   A    
C54   O54   S    
Cr11  O48   S    
C135  O20   A    
C93   C95   A    
C151  H10   S    
C62   C148  S    
Cr8   O18   S    
C79   C103  A    
C62   C142  S    
C117  H62   S    
C143  O37   A    
C7    H17   S    
C129  H6    S    
C91   H47   S    
C80   H53   S    
C57   H42   S    
C65   C74   S    
C135  O29   A    
C46   C68   S    
C137  O22   A    
C35   C67   S    
C6    C15   S    
C103  C105  A    
C20   C136  S    
C12   C35   S    
C19   C28   S    
Cr6   O56   S    
H75   O59   S    
C114  C123  A    
C55   O55   D    
Cr12  O27   S    
C116  C125  A    
C84   C104  A    
C92   H48   S    
Cr3   O41   S    
C16   C61   S    
C86   C102  A    
C72   C87   S    
C146  O40   A    
C2    C63   S    
C124  C126  A    
C6    H16   S    
C36   H28   S    
C108  C117  A    
C1    O68   A    
C75   C120  S    
C4    H14   S    
C19   C45   S    
C14   C22   S    
C28   H20   S    
C11   H34   S    
C112  C121  A    
C84   H58   S    
C106  C108  A    
C28   C37   S    
Cr10  O24   S    
C29   H21   S    
C30   C39   S    
C18   C134  S    
C107  C116  A    
C8    H1    S    
C147  O41   A    
C9    C18   S    
C150  H9    S    
C118  C127  A    
H76   O61   S    
C51   C60   S    
C2    C9    S    
Cr4   O43   S    
C58   O60   D    
C25   C33   S    
C131  O17   A    
C145  O39   A    
C61   C70   S    
C88   C96   A    
C24   H39   S    
C78   C102  A    
C149  O43   A    
C97   C100  A    
C7    C70   S    
C14   C46   S    
C46   C49   S    
C79   C112  A    
Cr11  O25   S    
C47   C55   S    
C42   H35   S    
C58   O61   S    
Cr7   O66   S    
C71   C76   S    
C146  O45   A    
C35   H40   S    
C67   C144  S    
C19   C135  S    
C34   C62   S    
C31   C40   S    
Cr4   O48   S    
C48   C56   S    
Cr8   O10   S    
C80   C89   A    
Cr2   O30   S    
C10   C152  S    
C152  H11   S    
C56   O58   D    
C127  H4    S    
Cr1   O1    S    
C52   O49   D    
C4    C12   S    
C53   O52   S    
C24   C66   S    
C129  C132  A    
C15   H67   S    
C83   C99   A    
Cr2   O39   S    
C2    H37   S    
Cr6   O47   S    
C5    C68   S    
C35   C48   S    
Cr5   O46   S    
C112  C114  A    
C1    O9    A    
C109  O6    A    
Cr12  O44   S    
C93   H49   S    
C26   C150  S    
Cr3   O31   S    
C60   O65   S    
C23   C50   S    
Cr10  O22   S    
C38   H30   S    
C33   H26   S    
C10   C19   S    
C65   O10   A    
C85   H59   S    
C63   C151  S    
C5    C14   S    
C61   H43   S    
C7    C16   S    
Cr10  O15   S    
C126  H3    S    
C144  O38   A    
C75   C104  A    
C82   C97   A    
C76   O3    A    
C77   C114  A    
C41   C50   S    
C37   C64   S    
C27   C151  S    
C115  C124  A    
C142  H36   S    
C136  O30   A    
Cr6   O6    S    
C141  O36   A    
C121  C129  A    
C128  C130  A    
C74   C99   A    
C27   C36   S    
C71   C100  A    
C22   C138  S    
C1    C73   S    
C23   C32   S    
C77   C105  A    
H71   O50   S    
C115  H64   S    
C13   C64   S    
C138  O24   A    
H79   O65   S    
C140  O26   A    
Cr12  O37   S    
C125  H2    S    
C40   C68   S    
C8    C142  S    
Cr6   O45   S    
C68   C145  S    
C39   C48   S    
C116  H65   S    
C95   H51   S    
C145  O34   A    
C51   C61   S    
C120  O7    A    
Cr4   O42   S    
C87   O4    A    
C73   C97   A    
C83   C92   A    
C17   C26   S    
C30   H22   S    
C23   C139  S    
C34   H27   S    
Cr7   O8    S    
C89   H44   S    
C11   C24   S    
Cr3   O40   S    
C63   C149  S    
Cr7   O67   S    
Cr5   O34   S    
C26   C34   S    
C38   C66   S    
C53   O51   D    
C31   H24   S    
C78   C98   S    
C36   C63   S    
Cr1   O68   S    
C42   C51   S    
C15   C23   S    
Cr12  O28   S    
C80   C100  A    
C15   C57   S    
C140  O35   A    
C86   H60   S    
C85   C105  A    
C20   C29   S    
C133  O18   A    
C122  H66   S    
C72   C110  A    
C22   C31   S    
C123  H68   S    
C2    C44   S    
C90   H46   S    
C55   O57   S    
Cr11  O16   S    
Cr2   O46   S    
C49   C58   S    
C138  O32   A    
C136  O21   A    
Cr8   O44   S    
C25   C51   S    
C60   O64   D    
Cr5   O3    S    
C85   C94   A    
C88   H61   S    
Cr1   O44   S    
C10   H23   S    
C66   C147  S    
C102  C104  A    
C54   O53   D    
C38   C47   S    
Cr1   O12   S    
C45   C54   S    
C28   C152  S    
C143  O12   A    
Cr9   O11   S    
C88   C103  A    
C131  O8    A    
C148  O66   A    
C40   H32   S    
Cr9   O13   S    
C149  O67   A    
Cr3   O47   S    
C24   C47   S    
C39   C67   S    
C18   C27   S    
C10   C13   S    
C4    C67   S    
C52   O50   S    
Cr9   O46   S    
C3    H13   S    
Cr4   O33   S    
Cr9   O20   S    
C73   C106  A    
C81   H54   S    
C122  C130  A    
C32   H25   S    
Cr2   O38   S    
C3    C66   S    
C128  H5    S    
C147  O56   A    
Cr12  O36   S    
C57   C69   S    
C34   C43   S    
C99   C101  A    
C59   O62   D    
C4    C30   S    
C5    C31   S    
