data_mof_unit_64518.cif
_audit_creation_date              2012-10-26T19:34:58-0400
_audit_creation_method            fapswitch 2.2
_symmetry_space_group_name_H-M    P1
_symmetry_Int_Tables_number       1
_space_group_crystal_system       triclinic
_cell_length_a                    13.890236
_cell_length_b                    18.263081
_cell_length_c                    19.451206
_cell_angle_alpha                 89.967762
_cell_angle_beta                  90.515152
_cell_angle_gamma                 85.059782
_cell_volume                      4915.81907204

loop_
_atom_site_label
_atom_site_type_symbol
_atom_type_description
_atom_site_fract_x
_atom_site_fract_y
_atom_site_fract_z
_atom_type_partial_charge
C1    C     C_R   0.498938 0.500042 0.632337 0.541524
C2    C     C_R   0.586084 0.476757 0.038151 -0.072877
C3    C     C_R   0.503364 0.482668 0.927921 0.001661
C4    C     C_R   0.497121 0.483142 0.072131 0.002329
C5    C     C_R   0.552397 0.275563 0.549457 0.083919
C6    C     C_R   0.445291 0.725944 0.546055 0.080183
C7    C     C_R   0.552513 0.197736 0.552070 -0.029745
C8    C     C_R   0.448480 0.803304 0.547834 -0.058718
C9    C     C_R   0.507076 0.160158 0.499258 0.027780
C10   C     C_R   0.503471 0.838167 0.498903 -0.060890
C11   C     C_R   0.459966 0.202426 0.447175 -0.022091
C12   C     C_R   0.501032 0.499976 0.367675 0.534188
C13   C     C_R   0.556857 0.793695 0.451606 -0.145794
C14   C     C_R   0.453884 0.279453 0.448949 0.386723
C15   C     C_R   0.556337 0.716271 0.453596 0.403801
C16   C     C_R   0.683011 0.488252 0.500058 0.550952
C17   C     C_R   0.316989 0.511752 0.500021 0.539718
C18   C     C_R   0.418777 0.044647 0.492416 0.252854
C19   C     C_R   0.593946 0.954317 0.502707 0.217825
C20   C     C_R   0.418056 0.967090 0.487537 0.226631
C21   C     C_R   0.594560 0.032041 0.498825 0.263669
C22   C     C_R   0.505349 0.920862 0.496234 -0.039926
C23   C     C_R   0.450572 0.555033 0.252889 -0.060377
C24   C     C_R   0.506952 0.077363 0.497331 0.022766
C25   C     C_1   0.213925 0.518735 0.500148 0.019844
C26   C     C_1   0.786079 0.481282 0.500142 0.023111
C27   C     C_2   0.023566 0.530318 0.500348 -0.102410
C28   C     C_2   0.976441 0.469730 0.500257 -0.103595
C29   C     C_1   0.872864 0.475575 0.500208 -0.015672
C30   C     C_1   0.127142 0.524463 0.500255 -0.017051
C31   C     C_R   0.557334 0.440896 0.257396 0.239795
C32   C     C_R   0.443898 0.447569 0.742714 0.232970
C33   C     C_R   0.550562 0.435506 0.186371 -0.101102
C34   C     C_R   0.548359 0.549160 0.747099 -0.055211
C35   C     C_R   0.450887 0.441301 0.813735 -0.099503
C36   C     C_R   0.497812 0.489724 0.147679 -0.015017
C37   C     C_R   0.502540 0.489318 0.852366 -0.013722
C38   C     C_R   0.450344 0.551322 0.180115 0.240403
C39   C     C_R   0.548683 0.545390 0.819872 0.244038
C40   C     C_1   0.392265 0.613475 0.287213 0.226601
C41   C     C_1   0.605448 0.600820 0.712770 0.223451
C42   C     C_1   0.613145 0.310794 0.597680 0.302069
C43   C     C_1   0.382453 0.691879 0.592868 0.280100
C44   C     C_1   0.597139 0.157182 0.609848 0.264417
C45   C     C_R   0.503946 0.499377 0.291838 -0.029209
C46   C     C_1   0.396870 0.846414 0.600568 0.244772
C47   C     C_R   0.496100 0.499776 0.708193 -0.023518
C48   C     C_R   0.410054 0.485186 0.033395 0.303363
C49   C     C_R   0.590496 0.474419 0.966662 0.302860
C50   C     C_R   0.414424 0.486901 0.961901 -0.071733
Cu1   Cu    Cu3+1 0.500030 0.426640 0.500000 1.013215
Cu2   Cu    Cu3+1 0.499970 0.573360 0.500000 1.066198
H1    H     H_    0.015347 0.415494 0.500155 0.154804
H2    H     H_    0.648555 0.704063 0.378917 0.307138
H3    H     H_    0.277442 0.061091 0.492658 0.394757
H4    H     H_    0.669656 0.865456 0.534512 0.346157
H5    H     H_    0.342356 0.888669 0.454527 0.342716
H6    H     H_    0.735766 0.028384 0.494338 0.392045
H7    H     H_    0.644216 0.410371 0.332666 0.339177
H8    H     H_    0.356893 0.427737 0.667805 0.340625
H9    H     H_    0.383357 0.649530 0.166508 0.345992
H10   H     H_    0.613412 0.635873 0.833412 0.347521
H11   H     H_    0.326881 0.470326 0.111420 0.345054
H12   H     H_    0.984664 0.584555 0.500432 0.155904
H13   H     H_    0.674086 0.449585 0.888671 0.346104
H14   H     H_    0.425297 0.175491 0.405199 0.175724
H15   H     H_    0.599798 0.819281 0.413679 0.134913
H16   H     H_    0.589216 0.389278 0.160812 0.160416
H17   H     H_    0.413185 0.399598 0.839344 0.160757
H18   H     H_    0.347486 0.491828 0.932518 0.159233
H19   H     H_    0.653003 0.473765 0.067530 0.157329
H20   H     H_    0.372129 0.361561 0.414233 0.367543
N1    N     N_R   0.500010 0.316380 0.499980 -0.255903
N2    N     N_R   0.499990 0.683620 0.500020 -0.208869
N3    N     N_1   0.345712 0.660110 0.314637 -0.256891
N4    N     N_1   0.651017 0.642051 0.685346 -0.257530
N5    N     N_1   0.662609 0.338100 0.636491 -0.263524
N6    N     N_1   0.331639 0.665253 0.630568 -0.271377
N7    N     N_1   0.632684 0.124843 0.655994 -0.215216
N8    N     N_1   0.355720 0.880826 0.642667 -0.213451
O1    O     O_R   0.500040 0.438020 0.599820 -0.487711
O2    O     O_3   0.612284 0.672520 0.409013 -0.642612
O3    O     O_3   0.334025 0.090464 0.491619 -0.677787
O4    O     O_3   0.681160 0.913285 0.513664 -0.688317
O5    O     O_3   0.330704 0.938651 0.473979 -0.680986
O6    O     O_3   0.680019 0.065758 0.497354 -0.667576
O7    O     O_3   0.617674 0.388178 0.290919 -0.645006
O8    O     O_3   0.384485 0.402045 0.709264 -0.659472
O9    O     O_3   0.404654 0.605842 0.138828 -0.639578
O10   O     O_3   0.593217 0.594567 0.861110 -0.638304
O11   O     O_3   0.319817 0.485772 0.062748 -0.635297
O12   O     O_R   0.499960 0.561980 0.400180 -0.443687
O13   O     O_3   0.680834 0.464250 0.937315 -0.634758
O14   O     O_R   0.500000 0.561930 0.599810 -0.499148
O15   O     O_R   0.500000 0.438070 0.400190 -0.481604
O16   O     O_R   0.637870 0.429290 0.499990 -0.503934
O17   O     O_R   0.362130 0.570710 0.500010 -0.490225
O18   O     O_R   0.637830 0.553200 0.499980 -0.446075
O19   O     O_R   0.362170 0.446800 0.500020 -0.533995
O20   O     O_3   0.402549 0.315084 0.396300 -0.660644

loop_
_geom_bond_atom_site_label_1
_geom_bond_atom_site_label_2
_ccdc_geom_bond_type
C5    C42   S    
C4    C36   S    
C23   C45   A    
C3    C49   A    
C10   C22   S    
C43   N6    T    
C38   O9    S    
C18   C24   A    
C28   C29   S    
C35   C37   A    
Cu2   N2    S    
H20   O20   S    
C11   C14   A    
C1    O1    A    
C23   C40   S    
C32   O8    S    
Cu2   O17   S    
C33   C36   A    
Cu2   O18   S    
H8    O8    S    
C1    O14   A    
C48   O11   S    
C31   C33   A    
C12   O15   A    
Cu2   O14   S    
Cu1   O1    S    
C39   O10   S    
C11   H14   S    
Cu1   O16   S    
C48   C50   A    
C27   C30   S    
C16   C26   S    
C34   C41   S    
H6    O6    S    
C3    C50   A    
H9    O9    S    
C6    N2    A    
C15   O2    S    
H7    O7    S    
Cu1   O19   S    
C16   O16   A    
C31   O7    S    
C34   C39   A    
C14   N1    A    
C19   C22   A    
C13   H15   S    
C5    C7    A    
C1    C47   S    
C6    C8    A    
Cu1   Cu2   S    
C2    C4    A    
C32   C35   A    
C2    C49   A    
C9    C11   A    
C20   O5    S    
C18   O3    S    
C7    C44   S    
C17   O19   A    
C35   H17   S    
C26   C29   T    
C20   C22   A    
C6    C43   S    
C13   C15   A    
C32   C47   A    
Cu2   O12   S    
H3    O3    S    
C19   O4    S    
H2    O2    S    
C4    C48   A    
C25   C30   T    
C7    C9    A    
C21   O6    S    
C19   C21   A    
C12   O12   A    
C44   N7    T    
Cu1   N1    S    
C12   C45   S    
C10   C13   A    
C28   H1    S    
C9    C24   S    
C14   O20   S    
C23   C38   A    
C40   N3    T    
C17   C25   S    
C36   C38   A    
C50   H18   S    
C37   C39   A    
C41   N4    T    
C46   N8    T    
C16   O18   A    
H10   O10   S    
H13   O13   S    
H5    O5    S    
C18   C20   A    
C5    N1    A    
C8    C46   S    
C27   H12   S    
C15   N2    A    
C3    C37   S    
C42   N5    T    
C8    C10   A    
H4    O4    S    
C31   C45   A    
C21   C24   A    
H11   O11   S    
C27   C28   D    
C34   C47   A    
C49   O13   S    
C17   O17   A    
C2    H19   S    
C33   H16   S    
Cu1   O15   S    
