data_mof_unit_46094.cif
_audit_creation_date              2013-03-05T15:55:16-0500
_audit_creation_method            fapswitch 2.2
_symmetry_space_group_name_H-M    P1
_symmetry_Int_Tables_number       1
_space_group_crystal_system       triclinic
_cell_length_a                    27.615475
_cell_length_b                    10.729118
_cell_length_c                    9.928965
_cell_angle_alpha                 88.408903
_cell_angle_beta                  90.237019
_cell_angle_gamma                 93.328253
_cell_volume                      2935.74623449

loop_
_atom_site_label
_atom_site_type_symbol
_atom_site_description
_atom_site_fract_x
_atom_site_fract_y
_atom_site_fract_z
_atom_type_partial_charge
O1    O     O_R   0.500000 0.316780 0.614690 -0.676125
O2    O     O_R   0.500000 0.316750 0.385360 -0.538506
C1    C     C_R   0.502907 0.260513 0.503577 0.963415
O3    O     O_R   0.428760 0.500030 0.614650 -0.674003
O4    O     O_R   0.428750 0.500010 0.385320 -0.577833
C2    C     C_R   0.406107 0.502976 0.499834 0.848339
Zn1   Zn    Zn3+2 0.500000 0.500020 0.653130 0.973435
Zn2   Zn    Zn3+2 0.500000 0.499980 0.346870 1.041080
O5    O     O_R   0.500000 0.683250 0.614640 -0.588802
O6    O     O_R   0.500000 0.683220 0.385310 -0.590862
O7    O     O_R   0.571250 0.499990 0.614680 -0.590032
O8    O     O_R   0.571240 0.499970 0.385350 -0.591565
C3    C     C_R   0.498661 0.739482 0.497978 0.922996
C4    C     C_R   0.593741 0.502286 0.500040 0.992401
C5    C     C_R   0.174395 0.446888 0.567059 0.500147
O9    O     O_2   0.195644 0.344597 0.615538 -0.565088
N1    N     N_R   0.201921 0.543022 0.507562 -0.355419
C6    C     C_R   0.181416 0.646377 0.454064 0.504445
C7    C     C_R   0.277714 0.533879 0.381148 -0.107137
C8    C     C_R   0.327667 0.523384 0.379104 -0.239505
C9    C     C_R   0.328912 0.514909 0.623728 -0.259252
C10   C     C_R   0.279247 0.527591 0.625593 -0.098490
C11   C     C_R   0.253414 0.535913 0.504488 0.317558
C12   C     C_R   0.102126 0.558667 0.521988 -0.052867
C13   C     C_R   0.124181 0.453827 0.577404 -0.019025
C14   C     C_R   0.095799 0.357828 0.640912 -0.137687
C15   C     C_R   0.131059 0.655436 0.458773 -0.020724
C16   C     C_R   0.353523 0.512583 0.500513 -0.026296
H1    H     H_    0.347942 0.507389 0.718816 0.165046
H2    H     H_    0.260653 0.529852 0.721250 0.146544
H3    H     H_    0.111880 0.275377 0.682500 0.191396
C17   C     C_R   0.646235 0.519700 0.500119 -0.207554
C18   C     C_R   0.972327 0.481673 0.611541 0.041997
C19   C     C_R   0.977752 0.669237 0.461282 0.043333
C20   C     C_R   0.949736 0.576948 0.536765 0.078361
C21   C     C_R   0.943317 0.399418 0.695473 -0.208410
C22   C     C_R   0.893277 0.403839 0.696660 -0.111985
C23   C     C_R   0.870467 0.490374 0.614436 -0.035811
C24   C     C_R   0.898511 0.578441 0.535730 -0.049622
C25   C     C_R   0.875212 0.666441 0.454232 -0.037508
C26   C     C_R   0.824439 0.661004 0.448425 0.593037
N2    N     N_R   0.798154 0.572994 0.523901 -0.331490
C27   C     C_R   0.819940 0.490049 0.607862 0.571931
C28   C     C_R   0.726005 0.460309 0.440494 -0.198848
C29   C     C_R   0.675814 0.436899 0.435775 0.289438
C30   C     C_R   0.666808 0.625786 0.562384 -0.326087
C31   C     C_R   0.717041 0.646895 0.571108 0.373723
C32   C     C_R   0.746646 0.561884 0.510411 0.136448
O10   O     O_2   0.792599 0.406714 0.683583 -0.522489
C33   C     C_R   0.022907 0.471066 0.599469 0.045844
C34   C     C_R   0.051191 0.566299 0.529169 0.072729
C35   C     C_R   0.029063 0.668470 0.465074 0.044353
C36   C     C_R   0.046112 0.366235 0.652261 -0.214304
H4    H     H_    0.749581 0.396319 0.394679 0.197887
H5    H     H_    0.872484 0.337521 0.760969 0.201006
H6    H     H_    0.958314 0.331525 0.763330 0.148460
H7    H     H_    0.026630 0.286680 0.699113 0.147369
O11   O     O_2   0.209722 0.740416 0.397776 -0.563422
C37   C     C_R   0.109288 0.759400 0.403269 -0.133054
H8    H     H_    0.345887 0.522617 0.282861 0.159389
H9    H     H_    0.257841 0.539668 0.287147 0.147945
H10   H     H_    0.130863 0.836207 0.356470 0.191838
C38   C     C_R   0.953259 0.757362 0.381832 -0.206971
C39   C     C_R   0.902941 0.755409 0.378090 -0.114426
O12   O     O_2   0.801476 0.741678 0.367266 -0.514765
C40   C     C_R   0.059231 0.765902 0.405950 -0.212884
H11   H     H_    0.971899 0.826494 0.317086 0.146371
H12   H     H_    0.643404 0.690847 0.607255 0.216779
H13   H     H_    0.885841 0.823565 0.314036 0.197745
H14   H     H_    0.045333 0.850066 0.363179 0.146088
H15   H     H_    0.539925 0.126944 0.317065 0.226351
C41   C     C_R   0.479759 0.100129 0.755728 -0.235765
H16   H     H_    0.497030 0.185479 0.791193 0.202539
C42   C     C_R   0.451829 0.030363 0.850441 -0.153501
H17   H     H_    0.446024 0.068559 0.948586 0.178938
C43   C     C_R   0.430965 0.913279 0.820159 0.554332
C44   C     C_R   0.442210 0.863636 0.694208 -0.270758
H18   H     H_    0.425904 0.774466 0.665135 0.128609
C45   C     C_R   0.474912 0.929397 0.603958 0.019564
C46   C     C_R   0.487663 0.054689 0.625454 0.089417
C47   C     C_R   0.506713 0.127591 0.513629 -0.161243
C48   C     C_R   0.523543 0.071302 0.399539 -0.179747
C49   C     C_R   0.522050 0.943515 0.393457 0.302100
C50   C     C_R   0.496678 0.872247 0.494779 -0.232035
H19   H     H_    0.561211 0.622115 0.124712 0.198455
C51   C     C_R   0.421671 0.358834 0.133329 0.535951
C52   C     C_R   0.381019 0.326353 0.049802 -0.338416
H20   H     H_    0.346330 0.290274 0.088323 0.147165
C53   C     C_R   0.386111 0.320248 0.913126 -0.260562
H21   H     H_    0.357310 0.277615 0.852470 0.186989
C54   C     C_R   0.429204 0.361287 0.855272 -0.145096
H22   H     H_    0.433926 0.337142 0.753308 0.216059
C55   C     C_R   0.464278 0.431352 0.927184 -0.012277
C56   C     C_R   0.462754 0.430765 0.072084 0.057454
N3    N     N_R   0.499540 0.498800 0.142780 -0.134878
C57   C     C_R   0.534156 0.566280 0.070601 -0.189692
C58   C     C_R   0.535409 0.563470 0.926800 0.553613
N4    N     N_R   0.499520 0.498720 0.857170 -0.159900
N5    N     N_R   0.737137 0.752451 0.643384 0.225185
O13   O     O_R   0.712538 0.851508 0.654334 -0.341890
O14   O     O_R   0.778140 0.747035 0.707693 -0.369766
O15   O     O_3   0.401306 0.854032 0.919119 -0.613481
C59   C     C_3   0.387596 0.728154 0.893517 0.106983
H23   H     H_    0.419891 0.673747 0.874479 0.161199
H24   H     H_    0.361949 0.722904 0.806931 0.144444
C60   C     C_3   0.361758 0.669487 0.016599 -0.810411
H25   H     H_    0.330162 0.723646 0.042373 0.268807
H26   H     H_    0.348628 0.572315 0.995298 0.208354
H27   H     H_    0.387122 0.668084 0.103696 0.257443
N6    N     N_R   0.547806 0.888356 0.286977 0.224976
O16   O     O_R   0.583218 0.817267 0.316177 -0.383277
O17   O     O_R   0.542605 0.928518 0.163184 -0.384537
O18   O     O_3   0.424293 0.307538 0.264072 -0.564463
C61   C     C_3   0.382893 0.230588 0.305572 0.084529
H28   H     H_    0.376351 0.151224 0.236532 0.160645
H29   H     H_    0.350473 0.286908 0.310205 0.144999
C62   C     C_3   0.389536 0.173068 0.445385 -0.812515
H30   H     H_    0.403035 0.244223 0.517283 0.238758
H31   H     H_    0.354189 0.131472 0.482817 0.224605
H32   H     H_    0.414666 0.096831 0.439931 0.241444
O19   O     O_3   0.571022 0.632002 0.854147 -0.577866
C63   C     C_3   0.618262 0.608017 0.901470 0.028331
H33   H     H_    0.638762 0.569996 0.817917 0.193629
H34   H     H_    0.619870 0.536794 0.985125 0.137933
C64   C     C_3   0.644337 0.729528 0.944096 -0.652897
H35   H     H_    0.625574 0.767615 0.031243 0.275948
H36   H     H_    0.682279 0.712418 0.973415 0.239097
H37   H     H_    0.644799 0.799265 0.859318 0.286737
N7    N     N_R   0.655948 0.327114 0.370693 0.221654
O20   O     O_R   0.678782 0.281687 0.270444 -0.339382
O21   O     O_R   0.618628 0.263130 0.421549 -0.408910

loop_
_geom_bond_atom_site_label_1
_geom_bond_atom_site_label_2
_geom_bond_distance
_ccdc_geom_bond_type
C52   H20   1.079609 S    
C29   N7    1.438842 S    
C55   C56   1.439333 A    
Zn1   N4    2.025659 S    
C26   N2    1.365931 A    
C20   C24   1.415621 A    
N3    C57   1.359449 A    
C12   C15   1.407811 A    
C47   C48   1.392452 A    
C40   H14   1.077337 S    
C44   H18   1.079646 S    
Zn1   O7    2.005867 S    
C3    C50   1.428150 S    
N1    C11   1.428949 S    
C42   C43   1.391373 A    
C51   O18   1.399093 S    
C21   C22   1.385544 A    
C7    H9    1.082892 S    
N7    O20   1.301442 A    
C62   H31   1.110539 S    
C37   C40   1.388560 A    
C45   C50   1.413329 A    
O7    C4    1.297886 A    
C5    C13   1.397340 A    
C60   H25   1.110599 S    
C5    O9    1.350415 S    
C58   N4    1.372562 A    
C18   C21   1.413401 A    
C31   N5    1.440299 S    
C5    N1    1.367299 A    
C19   C20   1.419629 A    
C17   C29   1.408790 A    
O5    C3    1.292484 A    
N6    O16   1.301577 A    
C58   O19   1.385890 S    
C51   C56   1.459631 A    
C6    O11   1.349851 S    
C2    C16   1.461785 S    
C31   C32   1.408806 A    
C1    C47   1.436757 S    
C64   H37   1.110208 S    
C8    H8    1.082262 S    
C41   H16   1.075095 S    
H15   C48   1.084526 S    
C12   C34   1.415929 A    
C14   H3    1.083551 S    
C9    C10   1.386349 A    
C56   N3    1.412088 A    
Zn2   N3    2.026776 S    
O3    Zn1   2.002539 S    
C33   C34   1.418990 A    
C44   C45   1.419146 A    
C43   O15   1.397086 S    
C23   C24   1.407948 A    
C38   H11   1.077177 S    
C33   C36   1.413728 A    
C42   H17   1.083667 S    
C34   C35   1.419817 A    
C12   C13   1.407610 A    
C41   C42   1.392648 A    
C62   H32   1.105563 S    
C54   H22   1.062368 S    
C36   H7    1.077546 S    
C51   C52   1.425631 A    
C27   O10   1.350458 S    
C26   O12   1.349619 S    
C8    C16   1.403983 A    
C18   C33   1.413860 A    
C9    H1    1.081970 S    
C38   C39   1.388841 A    
O1    C1    1.277251 A    
C7    C11   1.400192 A    
C30   H12   1.084210 S    
C22   C23   1.395311 A    
C21   H6    1.077743 S    
C54   C55   1.397360 A    
N5    O13   1.301420 A    
Zn2   O8    2.002536 S    
C57   C58   1.429552 A    
N1    C6    1.367551 A    
C49   N6    1.436562 S    
C59   H24   1.112165 S    
N2    C32   1.426542 S    
C39   H13   1.083519 S    
C43   C44   1.415430 A    
O19   C63   1.419879 S    
O3    C2    1.298597 A    
C25   C26   1.400950 A    
N5    O14   1.301085 A    
C9    C16   1.403484 A    
O8    C4    1.295154 A    
C52   C53   1.368661 A    
C64   H35   1.110007 S    
C49   C50   1.410176 A    
C53   C54   1.367765 A    
N2    C27   1.365912 A    
C63   H34   1.115448 S    
C53   H21   1.083336 S    
C14   C36   1.385554 A    
C24   C25   1.408542 A    
C35   C40   1.414324 A    
C28   C29   1.395019 A    
O18   C61   1.426166 S    
Zn1   O5    1.992255 S    
C30   C31   1.395258 A    
C37   H10   1.083505 S    
C10   H2    1.083097 S    
O1    Zn1   2.013085 S    
C17   C30   1.400568 A    
O2    Zn2   1.992253 S    
C6    C15   1.400725 A    
C4    C17   1.450834 S    
C46   C47   1.424840 A    
O6    C3    1.287488 A    
O4    Zn2   2.005870 S    
C61   H29   1.110633 S    
C61   H28   1.114054 S    
C19   C35   1.417832 A    
C25   C39   1.396048 A    
C7    C8    1.390824 A    
O2    C1    1.309108 A    
C13   C14   1.395379 A    
C23   C27   1.396373 A    
C41   C46   1.417092 A    
C15   C37   1.396548 A    
C62   H30   1.107442 S    
O4    C2    1.301921 A    
C60   H26   1.109438 S    
H19   C57   1.080899 S    
C63   C64   1.521971 S    
C19   C38   1.414980 A    
C18   C20   1.418944 A    
C59   C60   1.520247 S    
O15   C59   1.410992 S    
N6    O17   1.301313 A    
C61   C62   1.518254 S    
C45   C46   1.391741 A    
C22   H5    1.083550 S    
C28   H4    1.083465 S    
Zn2   O6    2.013085 S    
C48   C49   1.372265 A    
C59   H23   1.113495 S    
C64   H36   1.110464 S    
C10   C11   1.398972 A    
C63   H33   1.106631 S    
C55   N4    1.359739 A    
C28   C32   1.400408 A    
N7    O21   1.300509 A    
C60   H27   1.110936 S    
