data_mof_unit_47181.cif
_audit_creation_date              2012-10-26T18:43:49-0400
_audit_creation_method            fapswitch 2.2
_symmetry_space_group_name_H-M    P1
_symmetry_Int_Tables_number       1
_space_group_crystal_system       triclinic
_cell_length_a                    9.541128
_cell_length_b                    10.837408
_cell_length_c                    17.347743
_cell_angle_alpha                 90.323567
_cell_angle_beta                  86.1719
_cell_angle_gamma                 90.483447
_cell_volume                      1789.68651802

loop_
_atom_site_label
_atom_site_type_symbol
_atom_type_description
_atom_site_fract_x
_atom_site_fract_y
_atom_site_fract_z
_atom_type_partial_charge
C1    C     C_R   0.500371 0.737607 0.501869 0.550089
C2    C     C_R   0.526301 0.498101 0.265557 0.015092
C3    C     C_R   0.374531 0.934752 0.516494 0.023119
C4    C     C_R   0.482038 0.503279 0.649833 0.551168
C5    C     C_R   0.500770 0.870511 0.510293 0.008134
C6    C     C_R   0.627261 0.936668 0.515035 -0.160578
C7    C     C_R   0.626577 0.065380 0.514512 -0.160434
C8    C     C_R   0.499419 0.128903 0.509200 0.007852
C9    C     C_R   0.373652 0.061799 0.515918 0.025004
C10   C     C_3   0.249350 0.064284 0.467999 -0.278038
C11   C     C_3   0.250166 0.924450 0.469099 -0.262198
C12   C     C_R   0.346409 0.498956 0.777307 -0.150533
C13   C     C_R   0.933860 0.470795 0.434471 0.160956
C14   C     C_R   0.918551 0.541735 0.562087 -0.017644
C15   C     C_R   0.067276 0.541546 0.562147 -0.017958
C16   C     C_R   0.499563 0.262161 0.501350 0.550446
C17   C     C_R   0.081303 0.471702 0.434246 0.157766
C18   C     C_3   0.091220 0.353627 0.389997 -0.280973
C19   C     C_3   0.932147 0.352123 0.390821 -0.274544
C20   C     C_R   0.518011 0.499697 0.350057 0.544726
C21   C     C_R   0.474037 0.516043 0.733901 -0.024935
C22   C     C_R   0.594635 0.551296 0.770784 -0.115122
C23   C     C_R   0.408011 0.496971 0.146524 -0.112262
C24   C     C_R   0.590666 0.564079 0.851340 0.297380
C25   C     C_R   0.461906 0.543904 0.894279 0.053882
C26   C     C_R   0.340371 0.513707 0.857076 -0.167553
C27   C     C_3   0.829384 0.544777 0.864829 -0.145302
C28   C     C_R   0.402208 0.499786 0.226543 -0.131594
C29   C     C_R   0.656673 0.493468 0.223157 -0.130485
C30   C     C_R   0.662451 0.490748 0.142757 -0.110524
C31   C     C_R   0.538357 0.494326 0.104106 0.035999
C32   C     C_2   0.452199 0.549517 0.978731 -0.097034
C33   C     C_2   0.547563 0.493634 0.019518 -0.098139
Cu1   Cu    Cu3+1 0.359330 0.500020 0.500000 0.938112
Cu2   Cu    Cu3+1 0.640670 0.499980 0.500000 0.935901
H1    H     H_    0.690901 0.571944 0.736677 0.114234
H2    H     H_    0.116565 0.573804 0.612902 0.116346
H3    H     H_    0.143049 0.365389 0.331250 0.117890
H4    H     H_    0.300191 0.503215 0.257679 0.119674
H5    H     H_    0.133485 0.278627 0.424166 0.144782
H6    H     H_    0.892719 0.363145 0.332487 0.119961
H7    H     H_    0.882697 0.275411 0.425461 0.145340
H8    H     H_    0.753869 0.492328 0.251902 0.117092
H9    H     H_    0.636714 0.447576 0.990049 0.145987
H10   H     H_    0.241330 0.498668 0.890145 0.103970
H11   H     H_    0.310243 0.495191 0.118311 0.097032
H12   H     H_    0.763776 0.487722 0.110657 0.104952
H13   H     H_    0.251642 0.473684 0.749735 0.127617
H14   H     H_    0.361457 0.594551 0.007128 0.106546
H15   H     H_    0.879024 0.585284 0.810932 0.115157
H16   H     H_    0.810829 0.443827 0.857493 0.100155
H17   H     H_    0.905253 0.555961 0.910165 0.137119
H18   H     H_    0.727026 0.889708 0.515002 0.135523
H19   H     H_    0.726057 0.114282 0.514331 0.131229
H20   H     H_    0.155388 0.103506 0.500326 0.133655
H21   H     H_    0.275152 0.102803 0.409432 0.132098
H22   H     H_    0.157389 0.883734 0.502184 0.140111
H23   H     H_    0.275844 0.882321 0.411315 0.143596
H24   H     H_    0.857600 0.574292 0.612748 0.110327
N1    N     N_R   0.852130 0.499070 0.499500 -0.231799
N2    N     N_R   0.148040 0.499110 0.499500 -0.232497
O1    O     O_R   0.381190 0.680360 0.500000 -0.499588
O2    O     O_R   0.618770 0.680320 0.499990 -0.506337
O3    O     O_R   0.367430 0.500040 0.613600 -0.511440
O4    O     O_R   0.605020 0.500000 0.613590 -0.516375
O5    O     O_R   0.381230 0.319680 0.500010 -0.497882
O6    O     O_R   0.618810 0.319640 0.500000 -0.507935
O7    O     O_R   0.394980 0.500000 0.386410 -0.508594
O8    O     O_R   0.632570 0.499960 0.386400 -0.504462
O9    O     O_3   0.705425 0.608769 0.888729 -0.563257

loop_
_geom_bond_atom_site_label_1
_geom_bond_atom_site_label_2
_ccdc_geom_bond_type
C8    C9    A    
C2    C28   A    
C24   C25   A    
C31   C33   S    
C6    C7    A    
C3    C9    A    
Cu2   O6    S    
C11   H23   S    
C14   N1    A    
C9    C10   S    
C4    O3    A    
C22   H1    S    
C26   H10   S    
C19   H7    S    
C13   C17   A    
C12   H13   S    
C17   N2    A    
C32   C33   D    
Cu1   O5    S    
C25   C32   S    
Cu1   O3    S    
C17   C18   S    
C15   N2    A    
C18   H3    S    
C24   O9    S    
C7    C8    A    
C8    C16   S    
C23   H11   S    
C23   C28   A    
C1    O1    A    
C28   H4    S    
C4    C21   S    
C29   C30   A    
C27   O9    S    
C2    C29   A    
C1    C5    S    
C5    C6    A    
C1    O2    A    
C21   C22   A    
C12   C26   A    
C27   H16   S    
Cu1   Cu2   S    
C10   H20   S    
C30   C31   A    
C20   O8    A    
C22   C24   A    
C32   H14   S    
C3    C11   S    
C10   C11   S    
C13   C19   S    
C6    H18   S    
C2    C20   S    
C19   H6    S    
C30   H12   S    
Cu1   O1    S    
C10   H21   S    
C27   H17   S    
Cu2   O8    S    
C27   H15   S    
C18   C19   S    
Cu1   O7    S    
C16   O6    A    
C18   H5    S    
Cu2   O4    S    
C4    O4    A    
C15   H2    S    
C16   O5    A    
Cu2   O2    S    
C7    H19   S    
C14   H24   S    
C25   C26   A    
C11   H22   S    
C33   H9    S    
C12   C21   A    
C20   O7    A    
Cu1   N2    S    
C29   H8    S    
C14   C15   A    
C13   N1    A    
Cu2   N1    S    
C3    C5    A    
C23   C31   A    
