data_mof_unit_45831.cif
_audit_creation_date              2012-12-11T16:04:53-0500
_audit_creation_method            fapswitch 2.2
_symmetry_space_group_name_H-M    P1
_symmetry_Int_Tables_number       1
_space_group_crystal_system       triclinic
_cell_length_a                    10.660748
_cell_length_b                    10.628133
_cell_length_c                    16.88545
_cell_angle_alpha                 98.485669
_cell_angle_beta                  98.66981
_cell_angle_gamma                 61.457564
_cell_volume                      1655.16313843

loop_
_atom_site_label
_atom_site_type_symbol
_atom_type_description
_atom_site_fract_x
_atom_site_fract_y
_atom_site_fract_z
_atom_type_partial_charge
C1    C     C_R   0.351695 0.781189 0.401159 0.558880
C2    C     C_3   0.689321 0.326056 0.236413 -0.139124
C3    C     C_3   0.757848 0.379993 0.310669 0.055715
C4    C     C_3   0.908766 0.269496 0.289668 -0.113524
C5    C     C_3   0.910573 0.382011 0.242629 -0.108631
C6    C     C_3   0.759484 0.492767 0.264796 -0.116395
C7    C     C_3   0.691007 0.439209 0.189044 -0.145996
C8    C     C_3   0.840925 0.329651 0.167926 0.055031
C9    C     C_3   0.462416 0.785350 0.222057 -0.144186
C10   C     C_3   0.396892 0.703948 0.255958 -0.136922
C11   C     C_3   0.337361 0.827406 0.322804 0.082751
C12   C     C_R   0.369238 0.346014 0.359231 0.564180
C13   C     C_3   0.401331 0.906378 0.289032 0.094730
C14   C     C_3   0.260073 0.985946 0.237306 -0.077554
C15   C     C_3   0.195632 0.903318 0.270910 -0.133060
C16   C     C_3   0.254811 0.780194 0.203836 -0.125257
C17   C     C_3   0.320307 0.860809 0.171361 0.040220
C18   C     C_3   0.479963 0.307285 0.799161 0.088595
C19   C     C_3   0.410321 0.449953 0.760350 -0.129655
C20   C     C_3   0.385409 0.368338 0.681423 0.019747
C21   C     C_3   0.460387 0.225042 0.720215 -0.058139
C22   C     C_3   0.313081 0.257053 0.742453 -0.017261
C23   C     C_R   0.710660 0.413428 0.390365 0.556072
C24   C     C_3   0.237483 0.399401 0.702946 -0.100312
C25   C     C_3   0.261440 0.480300 0.783688 -0.148402
C26   C     C_3   0.335278 0.336956 0.822459 0.057177
C27   C     C_1   0.843490 0.329894 0.706138 -0.038982
C28   C     C_1   0.888845 0.296817 0.773481 -0.024969
C29   C     C_1   0.355251 0.770222 0.714020 -0.058281
C30   C     C_1   0.324171 0.815034 0.781697 -0.059033
C31   C     C_R   0.894334 0.309522 0.091420 0.553111
C32   C     C_R   0.318703 0.299128 0.120466 0.539538
C33   C     C_R   0.294482 0.891144 0.088672 0.540836
C34   C     C_R   0.378312 0.718698 0.631869 0.534323
C35   C     C_R   0.940545 0.276772 0.855864 0.564974
C36   C     C_R   0.311100 0.297088 0.894761 0.537489
C37   C     C_R   0.281879 0.880985 0.859722 0.537004
C38   C     C_R   0.410838 0.378658 0.601136 0.549798
C39   C     C_R   0.778129 0.377479 0.628825 0.542950
C40   C     C_1   0.340976 0.335151 0.275560 -0.066632
C41   C     C_1   0.329664 0.325021 0.204254 -0.067890
C42   C     C_3   0.841232 0.215311 0.213706 -0.115607
Cr1   Cr    Cr6+3 0.608340 0.611040 0.520430 1.016123
Cr2   Cr    Cr6+3 0.287650 0.601120 0.489350 1.021215
Cr3   Cr    Cr6+3 0.604040 0.287870 0.490280 1.022767
Cr4   Cr    Cr6+3 0.054020 0.052700 0.970850 1.019017
Cr5   Cr    Cr6+3 0.059230 0.375120 0.993390 1.015243
Cr6   Cr    Cr6+3 0.374950 0.061200 0.992340 1.011769
H1    H     H_    0.599312 0.301973 0.236324 0.120230
H2    H     H_    0.206253 0.101952 0.227405 0.111987
H3    H     H_    0.087787 0.949424 0.292487 0.116892
H4    H     H_    0.196230 0.725986 0.166783 0.131248
H5    H     H_    0.462663 0.519609 0.768815 0.112928
H6    H     H_    0.542909 0.119956 0.695198 0.141418
H7    H     H_    0.137245 0.435729 0.661881 0.145414
H8    H     H_    0.180613 0.584125 0.810874 0.138113
H9    H     H_    0.875261 0.101539 0.190367 0.126537
H10   H     H_    0.995900 0.203641 0.333749 0.124845
H11   H     H_    0.002603 0.404099 0.243301 0.125648
H12   H     H_    0.731189 0.604192 0.290583 0.123589
H13   H     H_    0.604678 0.503724 0.144176 0.111693
H14   H     H_    0.447467 0.588820 0.266732 0.105893
H15   H     H_    0.566340 0.746571 0.197151 0.111400
O1    O     O_R   0.751220 0.499230 0.435170 -0.512375
O2    O     O_R   0.297880 0.469080 0.560050 -0.503735
O3    O     O_R   0.489720 0.254590 0.564810 -0.503101
O4    O     O_R   0.725220 0.304230 0.585080 -0.506514
O5    O     O_3   0.500010 0.500010 0.500020 -0.318706
O6    O     O_R   0.171830 0.913880 0.057510 -0.522050
O7    O     O_R   0.940690 0.186050 0.054730 -0.503289
O8    O     O_R   0.920470 0.405720 0.075010 -0.515818
O9    O     O_R   0.196690 0.370460 0.084120 -0.502467
O10   O     O_R   0.412990 0.180750 0.091610 -0.512615
O11   O     O_R   0.366620 0.943130 0.065760 -0.499370
O12   O     O_R   0.477220 0.727600 0.436870 -0.512859
O13   O     O_R   0.160510 0.906330 0.879210 -0.514547
O14   O     O_R   0.930190 0.179050 0.889450 -0.473996
O15   O     O_R   0.909140 0.398170 0.896710 -0.503635
O16   O     O_R   0.186190 0.363460 0.918830 -0.516318
O17   O     O_R   0.401670 0.173200 0.913310 -0.523284
O18   O     O_R   0.356120 0.936130 0.900470 -0.497789
O19   O     O_3   0.162740 0.163010 0.985530 -0.273601
O20   O     O_R   0.258650 0.745120 0.411470 -0.515365
O21   O     O_R   0.297070 0.467240 0.395960 -0.493945
O22   O     O_R   0.488830 0.252610 0.387790 -0.502721
O23   O     O_R   0.724400 0.302390 0.420980 -0.498244
O24   O     O_R   0.752100 0.501210 0.612190 -0.507974
O25   O     O_R   0.478040 0.729440 0.600970 -0.488225
O26   O     O_R   0.259530 0.747110 0.588490 -0.502587
N1    N     N_3   0.612276 0.258743 0.852301 -0.593116
H16   H     H_    0.639293 0.156520 0.867591 0.248343
H17   H     H_    0.590580 0.327374 0.905202 0.232815
C43   C     C_3   0.264801 0.142013 0.729645 -0.368491
H18   H     H_    0.240057 0.119733 0.664485 0.146992
H19   H     H_    0.353040 0.042937 0.753754 0.157954
H20   H     H_    0.169228 0.177122 0.761783 0.116369
N2    N     N_3   0.480126 0.975139 0.337513 -0.593694
H21   H     H_    0.519924 0.010645 0.297566 0.241331
H22   H     H_    0.569267 0.895410 0.367642 0.235352

loop_
_geom_bond_atom_site_label_1
_geom_bond_atom_site_label_2
_ccdc_geom_bond_type
C43   H18   S    
C18   C21   S    
C3    C23   S    
C2    C7    S    
C1    C11   S    
C25   H8    S    
Cr5   O16   S    
C3    C6    S    
Cr4   O13   S    
N2    H21   S    
C7    C8    S    
C32   O9    A    
C14   H2    S    
C24   H7    S    
C12   O22   A    
Cr1   O25   S    
C8    C42   S    
C5    C6    S    
C15   C16   S    
Cr6   O18   S    
C12   O21   A    
C18   C19   S    
Cr5   O19   S    
C9    C13   S    
C7    H13   S    
Cr4   O6    S    
Cr4   O19   S    
C11   C15   S    
C31   O7    A    
C19   C20   S    
C28   C35   S    
C27   C39   S    
Cr1   O5    S    
C23   O23   A    
C18   C26   S    
Cr3   O4    S    
C32   C41   S    
C15   H3    S    
C9    C10   S    
C33   O6    A    
Cr2   O20   S    
C31   O8    A    
C43   H19   S    
C21   C22   S    
C14   C17   S    
C37   O18   A    
Cr2   O2    S    
C10   H14   S    
C17   C33   S    
C42   H9    S    
N2    H22   S    
Cr1   O1    S    
Cr1   O12   S    
C5    H11   S    
C1    O12   A    
Cr6   O11   S    
C24   C25   S    
C36   O17   A    
C32   O10   A    
C16   C17   S    
C25   C26   S    
C29   C34   S    
C35   O14   A    
C30   C37   S    
C18   N1    S    
C12   C40   S    
Cr3   O22   S    
C29   C30   T    
C2    H1    S    
C6    H12   S    
C5    C8    S    
C20   C38   S    
N1    H17   S    
C38   O2    A    
Cr3   O5    S    
C34   O25   A    
Cr5   O8    S    
C9    C17   S    
C23   O1    A    
C37   O13   A    
C43   H20   S    
C22   C43   S    
C22   C24   S    
Cr2   O5    S    
C3    C4    S    
Cr3   O3    S    
C26   C36   S    
C38   O3    A    
C40   C41   T    
C9    H15   S    
C8    C31   S    
C39   O4    A    
Cr6   O10   S    
C16   H4    S    
C4    C5    S    
Cr2   O21   S    
C36   O16   A    
Cr4   O14   S    
C6    C7    S    
C1    O20   A    
C35   O15   A    
Cr1   O24   S    
Cr6   O17   S    
C2    C3    S    
C34   O26   A    
C10   C16   S    
C11   C13   S    
C19   H5    S    
N1    H16   S    
C21   H6    S    
C4    C42   S    
C2    C42   S    
C39   O24   A    
Cr6   O19   S    
Cr3   O23   S    
C13   N2    S    
C19   C25   S    
Cr5   O9    S    
Cr4   O7    S    
C10   C11   S    
C33   O11   A    
C20   C21   S    
C22   C26   S    
C4    H10   S    
C27   C28   T    
C14   C15   S    
Cr5   O15   S    
C13   C14   S    
C20   C24   S    
Cr2   O26   S    
