data_mof_unit_6647.cif
_audit_creation_date              2013-03-05T16:35:37-0500
_audit_creation_method            fapswitch 2.2
_symmetry_space_group_name_H-M    P1
_symmetry_Int_Tables_number       1
_space_group_crystal_system       triclinic
_cell_length_a                    7.778989
_cell_length_b                    9.097021
_cell_length_c                    17.254856
_cell_angle_alpha                 89.994186
_cell_angle_beta                  86.336077
_cell_angle_gamma                 89.999441
_cell_volume                      1218.55492348

loop_
_atom_site_label
_atom_site_type_symbol
_atom_site_description
_atom_site_fract_x
_atom_site_fract_y
_atom_site_fract_z
_atom_type_partial_charge
O1    O     O_R   0.357240 0.711600 0.500000 -0.576975
O2    O     O_R   0.642760 0.288400 0.500000 -0.576975
O3    O     O_R   0.642760 0.711600 0.500000 -0.574789
O4    O     O_R   0.357240 0.288400 0.500000 -0.574789
C1    C     C_R   0.499998 0.780000 0.500008 0.851797
C2    C     C_R   0.500002 0.220000 0.499992 0.851797
O5    O     O_R   0.340660 0.500000 0.613590 -0.587496
O6    O     O_R   0.659340 0.500000 0.386410 -0.587496
O7    O     O_R   0.626230 0.500000 0.613600 -0.586301
O8    O     O_R   0.373770 0.500000 0.386400 -0.586301
C3    C     C_R   0.478426 0.496552 0.650564 0.802818
C4    C     C_R   0.521574 0.503447 0.349436 0.802817
Cu1   Cu    Cu3+1 0.330920 0.500000 0.500000 1.011521
Cu2   Cu    Cu3+1 0.669080 0.500000 0.500000 1.011521
H1    H     H_    0.272799 0.600129 0.119619 0.154428
H2    H     H_    0.727199 0.399859 0.880381 0.154428
N1    N     N_1   0.923170 0.500000 0.500010 -0.049485
N2    N     N_1   0.076830 0.500000 0.499990 -0.049485
C5    C     C_R   0.468896 0.482193 0.735187 -0.072642
C6    C     C_R   0.531104 0.517805 0.264812 -0.072643
C7    C     C_R   0.617518 0.444105 0.772467 -0.176109
C8    C     C_R   0.382481 0.555889 0.227532 -0.176109
C9    C     C_R   0.610699 0.427866 0.852398 -0.128977
C10   C     C_R   0.389300 0.572124 0.147602 -0.128977
C11   C     C_R   0.456077 0.451432 0.896467 0.176462
C12   C     C_R   0.543922 0.548560 0.103533 0.176462
C13   C     C_R   0.304486 0.487847 0.859941 0.201126
C14   C     C_R   0.695513 0.512146 0.140059 0.201126
C15   C     C_R   0.312288 0.502181 0.778939 -0.169892
C16   C     C_R   0.687712 0.497816 0.221061 -0.169893
C17   C     C_2   0.459892 0.446527 0.981006 0.216754
C18   C     C_2   0.540107 0.553463 0.018993 0.216754
C19   C     C_1   0.499998 0.934639 0.500002 -0.163552
C20   C     C_1   0.500001 0.065361 0.499998 -0.163552
H3    H     H_    0.739413 0.426333 0.739873 0.164454
H4    H     H_    0.260587 0.573660 0.260127 0.164454
H5    H     H_    0.802873 0.469161 0.249867 0.157439
H6    H     H_    0.197128 0.530838 0.750132 0.157439
C21   C     C_3   0.136903 0.515433 0.906357 -0.800286
H7    H     H_    0.032966 0.548408 0.868654 0.235492
H8    H     H_    0.094949 0.413928 0.937792 0.261266
H9    H     H_    0.153803 0.604990 0.948924 0.251313
C22   C     C_3   0.863097 0.484561 0.093642 -0.800285
H10   H     H_    0.967033 0.451586 0.131345 0.235492
H11   H     H_    0.846197 0.395002 0.051076 0.251313
H12   H     H_    0.905051 0.586065 0.062207 0.261267
Cl1   Cl    Cl    0.632502 0.708481 0.970575 -0.598366
Cl2   Cl    Cl    0.367498 0.291509 0.029424 -0.598366

loop_
_geom_bond_atom_site_label_1
_geom_bond_atom_site_label_2
_geom_bond_distance
_ccdc_geom_bond_type
C15   H6    1.083702 S    
C11   C17   1.461591 S    
O7    Cu2   1.967178 S    
C12   C18   1.461591 S    
C7    H3    1.083244 S    
C13   C15   1.401187 A    
C8    H4    1.083244 S    
C14   C22   1.506809 S    
C12   C14   1.411547 A    
C17   C18   1.348241 D    
O6    C4    1.282141 A    
O7    C3    1.279073 A    
C4    C6    1.463129 S    
C14   C16   1.401186 A    
C19   C20   1.189178 T    
C21   H8    1.109341 S    
C6    C16   1.403422 A    
Cu1   Cu2   2.630543 S    
O5    C3    1.282139 A    
C22   H11   1.110385 S    
Cu2   N1    1.976573 S    
C3    C5    1.463133 S    
C22   H12   1.109342 S    
O2    C2    1.272967 A    
O3    Cu2   1.935786 S    
O8    C4    1.279074 A    
Cu1   N2    1.976574 S    
C22   H10   1.110896 S    
O1    C1    1.272967 A    
H1    C10   1.084085 S    
C5    C7    1.401949 A    
C10   C12   1.397867 A    
N1    N2    1.195298 T    
H2    C9    1.084087 S    
C17   Cl2   1.768122 S    
C9    C11   1.397866 A    
C7    C9    1.384701 A    
O2    Cu2   1.935791 S    
C18   Cl1   1.768122 S    
C8    C10   1.384700 A    
C11   C13   1.411549 A    
C21   H7    1.110896 S    
C5    C15   1.403420 A    
O5    Cu1   1.966275 S    
O1    Cu1   1.935790 S    
O4    C2    1.272970 A    
C13   C21   1.506808 S    
O4    Cu1   1.935786 S    
C21   H9    1.110384 S    
O6    Cu2   1.966275 S    
C2    C20   1.406758 S    
C16   H5    1.083698 S    
C6    C8    1.401943 A    
O3    C1    1.272970 A    
O8    Cu1   1.967180 S    
C1    C19   1.406758 S    
