data_mof_unit_39523.cif
_audit_creation_date              2012-12-10T20:51:41-0500
_audit_creation_method            fapswitch 2.2
_symmetry_space_group_name_H-M    P1
_symmetry_Int_Tables_number       1
_space_group_crystal_system       triclinic
_cell_length_a                    8.101294
_cell_length_b                    8.936236
_cell_length_c                    16.936205
_cell_angle_alpha                 89.524699
_cell_angle_beta                  95.680144
_cell_angle_gamma                 90.019987
_cell_volume                      1220.03548835

loop_
_atom_site_label
_atom_site_type_symbol
_atom_type_description
_atom_site_fract_x
_atom_site_fract_y
_atom_site_fract_z
_atom_type_partial_charge
C1    C     C_R   0.499960 0.217969 0.500015 0.938697
C2    C     C_R   0.500040 0.782031 0.499985 0.938684
C3    C     C_R   0.523344 0.498538 0.653619 0.909369
C4    C     C_R   0.476658 0.501494 0.346381 0.909383
C5    C     C_R   0.541618 0.505277 0.739477 -0.133134
C6    C     C_R   0.458405 0.495031 0.260516 -0.133107
C7    C     C_R   0.412308 0.567754 0.777126 -0.326480
C8    C     C_R   0.587739 0.432720 0.222821 -0.326514
C9    C     C_R   0.422093 0.571516 0.858813 -0.161491
C10   C     C_R   0.578042 0.429337 0.141131 -0.161580
C11   C     C_R   0.561016 0.510024 0.904060 0.268871
C12   C     C_R   0.439182 0.491043 0.095929 0.268942
C13   C     C_R   0.693693 0.454298 0.866831 -0.296720
C14   C     C_R   0.306486 0.546625 0.133194 -0.296772
C15   C     C_R   0.686779 0.453165 0.784140 0.508260
C16   C     C_R   0.313309 0.547378 0.215888 0.508281
C17   C     C_1   0.499962 0.065180 0.500005 -0.180467
C18   C     C_1   0.500038 0.934820 0.499995 -0.180454
H1    H     H_    0.697001 0.386974 0.256599 0.177129
H2    H     H_    0.303001 0.613345 0.743316 0.177106
H3    H     H_    0.680496 0.381333 0.113463 0.157774
H4    H     H_    0.319643 0.619608 0.886449 0.157772
H5    H     H_    0.799394 0.405995 0.902245 0.154771
H6    H     H_    0.200831 0.595081 0.097813 0.154737
N1    N     N_1   0.073640 0.500030 0.499990 -0.033170
N2    N     N_1   0.926360 0.499970 0.500010 -0.033190
N3    N     N_2   0.569345 0.498061 0.987125 -0.185261
N4    N     N_2   0.430857 0.503166 0.012868 -0.185228
O1    O     O_R   0.636850 0.285340 0.500000 -0.609945
O2    O     O_R   0.363150 0.714660 0.500000 -0.609938
O3    O     O_R   0.363100 0.285350 0.500000 -0.619982
O4    O     O_R   0.636900 0.714650 0.500000 -0.620016
O5    O     O_R   0.652140 0.498630 0.616140 -0.580137
O6    O     O_R   0.347860 0.501370 0.383860 -0.580028
O7    O     O_R   0.378390 0.498650 0.616130 -0.638112
O8    O     O_R   0.621610 0.501350 0.383870 -0.638089
Zn1   Zn    Zn3+2 0.682780 0.499990 0.500010 1.002183
Zn2   Zn    Zn3+2 0.317220 0.500010 0.499990 1.002241
O9    O     O_3   0.811478 0.384967 0.747090 -0.593037
C19   C     C_3   0.956232 0.473332 0.757471 -0.266792
H7    H     H_    0.012596 0.469504 0.820022 0.150912
H8    H     H_    0.931555 0.591270 0.737936 0.153581
H9    H     H_    0.048554 0.427035 0.720042 0.203172
O10   O     O_3   0.188603 0.615421 0.253004 -0.593012
C20   C     C_3   0.043714 0.527274 0.242369 -0.266883
H10   H     H_    0.068196 0.409111 0.261545 0.153427
H11   H     H_    0.987339 0.531818 0.179831 0.151049
H12   H     H_    0.951479 0.573245 0.279947 0.203200

loop_
_geom_bond_atom_site_label_1
_geom_bond_atom_site_label_2
_ccdc_geom_bond_type
C4    O8    A    
N2    Zn1   S    
C13   C15   A    
C3    O7    A    
N1    Zn2   S    
C2    C18   S    
C11   C13   A    
C16   O10   S    
C1    C17   S    
O3    Zn2   S    
C11   N3    S    
C2    O2    A    
C19   H9    S    
C1    O1    A    
C17   C18   T    
O6    Zn2   S    
C20   H10   S    
C9    C11   A    
C15   O9    S    
C10   C12   A    
C12   N4    S    
C19   H8    S    
C19   H7    S    
C12   C14   A    
C7    H2    S    
C14   C16   A    
C20   H11   S    
C10   H3    S    
C4    O6    A    
C9    H4    S    
C5    C15   A    
C8    H1    S    
O1    Zn1   S    
C3    O5    A    
C6    C16   A    
O9    C19   S    
C7    C9    A    
C1    O3    A    
O7    Zn2   S    
O10   C20   S    
C13   H5    S    
C2    O4    A    
C4    C6    S    
C20   H12   S    
C14   H6    S    
N3    N4    D    
C5    C7    A    
O8    Zn1   S    
C6    C8    A    
O2    Zn2   S    
N1    N2    T    
O4    Zn1   S    
C8    C10   A    
O5    Zn1   S    
C3    C5    S    
