data_mof_unit_46400.cif
_audit_creation_date              2012-12-10T18:58:48-0500
_audit_creation_method            fapswitch 2.2
_symmetry_space_group_name_H-M    P1
_symmetry_Int_Tables_number       1
_space_group_crystal_system       triclinic
_cell_length_a                    12.992733
_cell_length_b                    10.831355
_cell_length_c                    9.566919
_cell_angle_alpha                 89.564547
_cell_angle_beta                  96.880678
_cell_angle_gamma                 91.214856
_cell_volume                      1336.32757983

loop_
_atom_site_label
_atom_site_type_symbol
_atom_type_description
_atom_site_fract_x
_atom_site_fract_y
_atom_site_fract_z
_atom_type_partial_charge
C1    C     C_R   0.501301 0.262568 0.500589 0.783529
C2    C     C_R   0.029001 0.519320 0.563154 0.004892
C3    C     C_R   0.971366 0.476976 0.437083 -0.005924
C4    C     C_R   0.863629 0.470104 0.428044 -0.195250
C5    C     C_R   0.870264 0.539186 0.669485 -0.293730
C6    C     C_R   0.978536 0.551628 0.679371 0.506944
C7    C     C_R   0.497596 0.062968 0.624778 -0.048896
C8    C     C_R   0.509515 0.129818 0.502614 -0.092148
C9    C     C_R   0.532594 0.066562 0.382972 -0.191663
C10   C     C_R   0.530773 0.937961 0.381972 -0.230949
C11   C     C_R   0.506414 0.871274 0.500600 -0.024496
C12   C     C_R   0.300527 0.498810 0.473035 0.852938
C13   C     C_R   0.493911 0.935707 0.623006 -0.062649
C14   C     C_3   0.409048 0.926912 0.716099 0.278110
C15   C     C_3   0.413328 0.067880 0.719672 0.291101
C16   C     C_R   0.583140 0.546880 0.086463 0.061758
C17   C     C_R   0.423894 0.439069 0.062842 0.554808
C18   C     C_R   0.423862 0.440728 0.913250 -0.134843
C19   C     C_R   0.582154 0.548969 0.939094 0.139463
C20   C     C_3   0.619736 0.680131 0.940895 0.280792
C21   C     C_3   0.626883 0.674857 0.101166 0.268625
C22   C     C_R   0.500157 0.737674 0.499611 0.818617
C23   C     C_R   0.699596 0.500048 0.527011 0.825112
C24   C     C_R   0.812824 0.502225 0.542923 -0.147219
C25   C     C_R   0.187554 0.494686 0.457259 -0.143482
C26   C     C_R   0.022486 0.443113 0.321818 0.484712
C27   C     C_R   0.130693 0.451404 0.333221 -0.270713
C28   C     C_R   0.136611 0.528575 0.571190 -0.219409
Cu1   Cu    Cu3+1 0.499990 0.499980 0.640670 0.973481
Cu2   Cu    Cu3+1 0.500010 0.500020 0.359330 0.988047
H1    H     H_    0.818798 0.439686 0.331123 0.220975
H2    H     H_    0.434280 0.880279 0.818156 0.081198
H3    H     H_    0.341896 0.110907 0.666599 0.117622
H4    H     H_    0.360534 0.397372 0.846493 0.172126
H5    H     H_    0.558172 0.741681 0.890991 0.020702
H6    H     H_    0.573174 0.738791 0.144681 0.029764
H7    H     H_    0.831283 0.559110 0.759957 0.218697
H8    H     H_    0.169933 0.421131 0.246368 0.209809
H9    H     H_    0.181430 0.561966 0.666773 0.206791
H10   H     H_    0.548119 0.115829 0.288623 0.147979
H11   H     H_    0.544472 0.891861 0.286789 0.142036
N1    N     N_R   0.500660 0.500930 0.148010 -0.254277
N2    N     N_R   0.500660 0.500890 0.852110 -0.240020
O1    O     O_R   0.500000 0.319640 0.618810 -0.569685
O2    O     O_R   0.500010 0.319680 0.381230 -0.574176
O3    O     O_R   0.348990 0.499960 0.599490 -0.596609
O4    O     O_R   0.349000 0.500000 0.361910 -0.524917
O5    O     O_R   0.499990 0.680320 0.618770 -0.573287
O6    O     O_R   0.500000 0.680360 0.381190 -0.603084
O7    O     O_R   0.651000 0.500000 0.638090 -0.559758
O8    O     O_R   0.651010 0.500040 0.400510 -0.568830
O9    O     O_3   0.440177 0.116633 0.857812 -0.609046
C29   C     C_3   0.546775 0.109910 0.908685 -0.330181
H12   H     H_    0.593658 0.174188 0.849528 0.199876
H13   H     H_    0.575245 0.014168 0.905672 0.131525
H14   H     H_    0.557968 0.139474 0.020201 0.167616
O10   O     O_3   0.340889 0.387834 0.122222 -0.575283
C30   C     C_3   0.332027 0.260221 0.094559 -0.271300
H15   H     H_    0.278185 0.218298 0.164020 0.177733
H16   H     H_    0.407507 0.213534 0.118978 0.180601
H17   H     H_    0.298065 0.242667 0.984235 0.181129
O11   O     O_3   0.717041 0.691774 0.889770 -0.540781
C31   C     C_3   0.733433 0.815708 0.850409 -0.328922
H18   H     H_    0.732536 0.878793 0.941422 0.157724
H19   H     H_    0.675301 0.843610 0.761808 0.157122
H20   H     H_    0.810297 0.825479 0.812295 0.169882
O12   O     O_3   0.730599 0.672283 0.166372 -0.531271
C32   C     C_3   0.750360 0.771499 0.260621 -0.287015
H21   H     H_    0.705126 0.759597 0.351476 0.163548
H22   H     H_    0.733474 0.861647 0.207059 0.137229
H23   H     H_    0.833773 0.772208 0.302458 0.179769
O13   O     O_3   0.967427 0.391509 0.203084 -0.601171
C33   C     C_3   0.959777 0.480593 0.094676 -0.264094
H24   H     H_    0.037426 0.504872 0.063502 0.205348
H25   H     H_    0.920796 0.564938 0.125868 0.195669
H26   H     H_    0.911863 0.441231 0.001179 0.210627
O14   O     O_3   0.037157 0.585444 0.804534 -0.604736
C34   C     C_3   0.008786 0.703117 0.846958 -0.423661
H27   H     H_    0.993662 0.768969 0.757067 0.159270
H28   H     H_    0.073830 0.742516 0.919820 0.195184
H29   H     H_    0.940745 0.694842 0.906299 0.212210
O15   O     O_3   0.316366 0.880104 0.640762 -0.577922
C35   C     C_3   0.245150 0.849111 0.735969 -0.322102
H30   H     H_    0.229752 0.929701 0.801395 0.159490
H31   H     H_    0.272985 0.769958 0.804049 0.172788
H32   H     H_    0.170753 0.820149 0.674808 0.198530

loop_
_geom_bond_atom_site_label_1
_geom_bond_atom_site_label_2
_ccdc_geom_bond_type
C22   O5    A    
Cu2   O8    S    
C31   H19   S    
C16   C21   S    
C5    H7    S    
C1    C8    S    
C26   O13   S    
C33   H24   S    
Cu2   O2    S    
C19   C20   S    
C7    C8    A    
C21   H6    S    
O14   C34   S    
C25   C28   A    
C26   C27   A    
O11   C31   S    
C16   C19   A    
C5    C6    A    
C4    C24   A    
C34   H28   S    
C27   H8    S    
C30   H16   S    
C17   N1    A    
C20   H5    S    
C8    C9    A    
C23   C24   S    
C9    C10   A    
C30   H17   S    
C7    C15   S    
C31   H20   S    
C13   C14   S    
C21   O12   S    
C10   H11   S    
C33   H25   S    
C2    C6    A    
C12   O4    A    
C19   N2    A    
Cu1   O7    S    
C29   H13   S    
Cu1   O5    S    
O12   C32   S    
Cu2   O4    S    
C12   O3    A    
C34   H27   S    
C32   H21   S    
C6    O14   S    
C28   H9    S    
C30   H15   S    
C29   H12   S    
C9    H10   S    
Cu1   Cu2   S    
C1    O1    A    
C23   O8    A    
C35   H30   S    
C17   C18   A    
C15   O9    S    
C18   H4    S    
C22   O6    A    
C35   H31   S    
Cu2   O6    S    
Cu1   O1    S    
C33   H26   S    
C14   O15   S    
C3    C4    A    
C16   N1    A    
O9    C29   S    
C29   H14   S    
C3    C26   A    
C14   H2    S    
O13   C33   S    
C23   O7    A    
C25   C27   A    
C12   C25   S    
C11   C22   S    
Cu1   O3    S    
C2    C3    A    
C18   N2    A    
C11   C13   A    
C34   H29   S    
C1    O2    A    
O10   C30   S    
C5    C24   A    
C32   H23   S    
C20   O11   S    
C4    H1    S    
C10   C11   A    
C31   H18   S    
C7    C13   A    
C35   H32   S    
C20   C21   S    
C32   H22   S    
O15   C35   S    
C14   C15   S    
Cu2   N1    S    
C2    C28   A    
C15   H3    S    
Cu1   N2    S    
C17   O10   S    
