data_mof_unit_22784.cif
_audit_creation_date              2012-12-10T17:16:10-0500
_audit_creation_method            fapswitch 2.2
_symmetry_space_group_name_H-M    P1
_symmetry_Int_Tables_number       1
_space_group_crystal_system       triclinic
_cell_length_a                    19.341249
_cell_length_b                    13.023729
_cell_length_c                    11.651157
_cell_angle_alpha                 100.127718
_cell_angle_beta                  94.054599
_cell_angle_gamma                 90.482065
_cell_volume                      2881.25918525

loop_
_atom_site_label
_atom_site_type_symbol
_atom_type_description
_atom_site_fract_x
_atom_site_fract_y
_atom_site_fract_z
_atom_type_partial_charge
C1    C     C_R   0.501468 0.299136 0.478663 0.947712
C2    C     C_R   0.497520 0.700777 0.521750 0.922245
C3    C     C_R   0.494673 0.814407 0.536125 -0.199575
C4    C     C_R   0.501552 0.185617 0.466567 -0.202376
C5    C     C_R   0.458967 0.019348 0.355271 0.496490
C6    C     C_R   0.530657 0.981772 0.651761 0.500868
C7    C     C_R   0.467426 0.127092 0.366723 -0.360148
C8    C     C_R   0.525435 0.873658 0.638499 -0.277037
C9    C     C_R   0.532745 0.135613 0.554381 0.413786
C10   C     C_R   0.460597 0.864358 0.451188 0.286170
C11   C     C_R   0.514238 0.029976 0.553705 -0.112172
C12   C     C_R   0.477027 0.970863 0.452507 -0.100633
C13   C     C_R   0.456676 0.378079 0.019221 -0.205533
C14   C     C_R   0.544307 0.621312 0.980893 -0.263858
C15   C     C_R   0.457901 0.392832 0.141766 0.187719
C16   C     C_R   0.541398 0.607715 0.858232 0.164330
C17   C     C_R   0.516946 0.555295 0.158552 0.135831
C18   C     C_R   0.485886 0.442705 0.841798 0.191957
C19   C     C_R   0.516057 0.544446 0.035356 0.049590
C20   C     C_R   0.486021 0.454189 0.964935 0.046427
C21   C     C_R   0.366784 0.492883 0.498903 0.937784
C22   C     C_R   0.633085 0.501131 0.499616 1.015389
C23   C     C_R   0.256997 0.465655 0.598074 0.230118
C24   C     C_R   0.744375 0.449317 0.402817 0.278430
C25   C     C_R   0.186710 0.492099 0.611711 0.266889
C26   C     C_R   0.816346 0.468210 0.396204 0.258803
C27   C     C_R   0.147083 0.522814 0.517909 -0.186231
C28   C     C_R   0.855393 0.521070 0.496157 -0.211641
C29   C     C_R   0.177037 0.533828 0.414934 0.280073
C30   C     C_R   0.822868 0.568573 0.594377 0.328716
C31   C     C_R   0.246324 0.505358 0.399797 0.260620
C32   C     C_R   0.750073 0.572289 0.590072 0.286698
C33   C     C_R   0.289265 0.485886 0.497834 -0.351980
C34   C     C_R   0.710022 0.506369 0.498231 -0.388710
C35   C     C_R   0.931375 0.522621 0.502733 0.591719
C36   C     C_R   0.071317 0.524452 0.516579 0.586879
Cu1   Cu    Cu3+1 0.505120 0.507730 0.615930 1.088536
Cu2   Cu    Cu3+1 0.494880 0.492270 0.384070 1.076467
H1    H     H_    0.433253 0.307466 0.967496 0.179592
H2    H     H_    0.567515 0.692117 0.032528 0.156652
H3    H     H_    0.544556 0.835894 0.709869 0.185703
H4    H     H_    0.447727 0.165376 0.296061 0.175531
H5    H     H_    0.462666 0.373473 0.787486 0.192139
H6    H     H_    0.542399 0.622630 0.213277 0.108616
H7    H     H_    0.561727 0.668967 0.817813 0.171696
H8    H     H_    0.436397 0.332454 0.182184 0.147799
N1    N     N_R   0.036632 0.614817 0.519280 -0.120997
N2    N     N_R   0.966141 0.432426 0.499558 -0.166902
N3    N     N_R   0.967618 0.613976 0.513512 -0.117380
N4    N     N_R   0.035033 0.433379 0.506396 -0.175360
N5    N     N_R   0.512830 0.519350 0.790130 -0.210576
N6    N     N_R   0.487170 0.480650 0.209870 -0.183936
O1    O     O_R   0.503640 0.354460 0.582000 -0.544756
O2    O     O_R   0.496360 0.645540 0.418000 -0.587009
O3    O     O_R   0.494980 0.341410 0.386200 -0.615915
O4    O     O_R   0.505020 0.658590 0.613800 -0.596312
O5    O     O_R   0.404470 0.506520 0.597930 -0.541851
O6    O     O_R   0.595530 0.493480 0.402070 -0.553342
O7    O     O_R   0.395820 0.493460 0.402130 -0.509940
O8    O     O_R   0.604180 0.506540 0.597870 -0.524673
S1    S     S_3+6 0.299557 0.386947 0.691298 0.083931
O9    O     O_2   0.334484 0.456956 0.795848 -0.223905
O10   O     O_2   0.248758 0.315883 0.732356 -0.170757
O11   O     O_3   0.359093 0.311781 0.620819 -0.558848
H9    H     H_    0.332832 0.268782 0.552838 0.344789
S2    S     S_3+6 0.699264 0.350751 0.296378 0.105955
O12   O     O_2   0.666267 0.400630 0.199715 -0.246565
O13   O     O_2   0.747833 0.268181 0.245927 -0.168836
O14   O     O_3   0.637338 0.290870 0.355799 -0.510389
H10   H     H_    0.614754 0.240174 0.290193 0.369298
S3    S     S_3+6 0.147751 0.493715 0.746772 0.119370
O15   O     O_2   0.112160 0.390124 0.743773 -0.207908
O16   O     O_2   0.200832 0.514311 0.849092 -0.139736
O17   O     O_3   0.088605 0.588067 0.765548 -0.506292
H11   H     H_    0.063134 0.574768 0.832476 0.399079
S4    S     S_3+6 0.858267 0.433228 0.263210 0.111154
O18   O     O_2   0.888292 0.326638 0.258858 -0.201929
O19   O     O_2   0.808245 0.432816 0.158394 -0.170566
O20   O     O_3   0.922777 0.519204 0.257211 -0.508830
H12   H     H_    0.949367 0.486491 0.191244 0.399274
O21   O     O_3   0.136037 0.568749 0.328330 -0.648482
H13   H     H_    0.166336 0.606086 0.283377 0.399420
O22   O     O_3   0.864061 0.612707 0.692759 -0.630240
H14   H     H_    0.838459 0.608684 0.762584 0.387222
S5    S     S_3+6 0.270790 0.466971 0.253665 0.083476
O23   O     O_2   0.313934 0.552058 0.220382 -0.141410
O24   O     O_2   0.312012 0.368964 0.245069 -0.321052
O25   O     O_3   0.201094 0.442437 0.157288 -0.427946
H15   H     H_    0.178013 0.380278 0.177028 0.375494
S6    S     S_3+6 0.712065 0.668644 0.693219 0.014839
O26   O     O_2   0.648920 0.711461 0.637501 -0.340176
O27   O     O_2   0.692697 0.619815 0.794397 -0.300470
O28   O     O_3   0.768365 0.768467 0.742676 -0.447944
H16   H     H_    0.743850 0.816011 0.801621 0.389906
S7    S     S_3+6 0.386931 0.800543 0.365328 0.118118
O29   O     O_2   0.356130 0.721454 0.427664 -0.282527
O30   O     O_2   0.332267 0.878701 0.347266 -0.172689
O31   O     O_3   0.409800 0.739587 0.234295 -0.419785
H17   H     H_    0.458266 0.762379 0.229289 0.330451
S8    S     S_3+6 0.603810 0.198314 0.648795 0.092099
O32   O     O_2   0.577823 0.248190 0.763582 -0.252559
O33   O     O_2   0.657432 0.119398 0.669753 -0.201333
O34   O     O_3   0.642433 0.290375 0.589792 -0.511457
H18   H     H_    0.679376 0.321424 0.649306 0.382715
O35   O     O_3   0.435771 0.960747 0.248651 -0.672904
H19   H     H_    0.426895 0.007046 0.190351 0.340860
O36   O     O_3   0.548906 0.040761 0.760489 -0.633220
H20   H     H_    0.557356 0.994337 0.818779 0.332166

loop_
_geom_bond_atom_site_label_1
_geom_bond_atom_site_label_2
_ccdc_geom_bond_type
S2    O13   D    
O28   H16   S    
C31   S5    S    
C27   C29   A    
S7    O29   D    
C16   N5    A    
O21   H13   S    
S7    O31   S    
N1    N3    A    
C5    O35   S    
S5    O23   D    
C29   O21   S    
C24   C26   A    
C21   O7    A    
C22   O8    A    
Cu1   N5    S    
S2    O14   S    
C21   C33   S    
C36   N1    A    
C7    H4    S    
C30   O22   S    
S1    O10   D    
C1    O1    A    
Cu2   O6    S    
Cu1   O4    S    
C32   S6    S    
Cu2   O3    S    
C19   C20   A    
C28   C35   S    
C23   C33   A    
C35   N3    A    
C26   S4    S    
C6    O36   S    
S4    O20   S    
C25   S3    S    
C24   S2    S    
Cu1   O1    S    
N2    N4    A    
S2    O12   D    
O14   H10   S    
C4    C7    A    
C35   N2    A    
C17   N6    A    
C18   N5    A    
S5    O24   D    
C22   C34   S    
O17   H11   S    
C8    H3    S    
C5    C12   A    
C3    C8    A    
C2    O2    A    
C6    C11   A    
C5    C7    A    
C6    C8    A    
S8    O34   S    
C24   C34   A    
Cu2   O7    S    
C32   C34   A    
S1    O11   S    
C21   O5    A    
Cu1   Cu2   S    
S6    O27   D    
O22   H14   S    
Cu2   O2    S    
O36   H20   S    
S8    O33   D    
C15   N6    A    
S4    O18   D    
C9    C11   A    
C10   C12   A    
C9    S8    S    
C13   C15   A    
C14   C16   A    
C36   N4    A    
S6    O28   S    
S3    O16   D    
S5    O25   S    
C31   C33   A    
C13   C20   A    
C14   C19   A    
S4    O19   D    
C16   H7    S    
C22   O6    A    
S3    O17   S    
C11   C12   A    
S7    O30   D    
C27   C36   S    
C25   C27   A    
O35   H19   S    
C26   C28   A    
C1    C4    S    
O11   H9    S    
C28   C30   A    
C2    C3    S    
C1    O3    A    
C17   H6    S    
S3    O15   D    
C29   C31   A    
C3    C10   A    
C2    O4    A    
C18   H5    S    
C30   C32   A    
S6    O26   D    
C10   S7    S    
S8    O32   D    
C17   C19   A    
C18   C20   A    
C23   C25   A    
S1    O9    D    
C13   H1    S    
Cu1   O8    S    
C14   H2    S    
O20   H12   S    
C23   S1    S    
Cu2   N6    S    
O25   H15   S    
O31   H17   S    
O34   H18   S    
C15   H8    S    
C4    C9    A    
Cu1   O5    S    
