data_mof_unit_24375.cif
_audit_creation_date              2012-12-10T17:44:37-0500
_audit_creation_method            fapswitch 2.2
_symmetry_space_group_name_H-M    P1
_symmetry_Int_Tables_number       1
_space_group_crystal_system       triclinic
_cell_length_a                    9.916794
_cell_length_b                    10.651939
_cell_length_c                    15.493421
_cell_angle_alpha                 91.38647
_cell_angle_beta                  66.984146
_cell_angle_gamma                 88.212971
_cell_volume                      1504.42675183

loop_
_atom_site_label
_atom_site_type_symbol
_atom_type_description
_atom_site_fract_x
_atom_site_fract_y
_atom_site_fract_z
_atom_type_partial_charge
Br1   Br    Br    0.832586 0.851903 0.390807 -0.479929
Br2   Br    Br    0.266201 0.788039 0.374549 -0.405332
Br3   Br    Br    0.054723 0.572077 0.804297 -0.595575
Br4   Br    Br    0.568669 0.276913 0.742291 -0.553438
C1    C     C_R   0.505031 0.738607 0.487339 0.925672
C2    C     C_R   0.734185 0.400280 0.033150 0.132083
C3    C     C_R   0.592029 0.451900 0.085585 -0.039388
C4    C     C_R   0.407732 0.494633 0.676461 0.921606
C5    C     C_R   0.832501 0.381172 0.077193 -0.199431
C6    C     C_R   0.789205 0.414540 0.172458 -0.283078
C7    C     C_R   0.563336 0.509369 0.174149 0.369715
C8    C     C_R   0.250748 0.902316 0.475849 0.316070
C9    C     C_R   0.114782 0.966559 0.520935 -0.178755
C10   C     C_R   0.101163 0.070781 0.579962 -0.220443
C11   C     C_R   0.226630 0.120715 0.584099 -0.120904
C12   C     C_R   0.416889 0.436903 0.911768 0.041622
C13   C     C_R   0.366353 0.063262 0.531164 0.050060
C14   C     C_R   0.375044 0.942774 0.491480 -0.027568
C15   C     C_R   0.508779 0.871468 0.468469 -0.160005
C16   C     C_R   0.497703 0.260056 0.506677 0.902088
C17   C     C_R   0.640297 0.932903 0.450063 0.261956
C18   C     C_R   0.633957 0.060237 0.468855 -0.226817
C19   C     C_R   0.498254 0.125462 0.509994 -0.126174
C20   C     C_R   0.783823 0.674502 0.617762 -0.107021
C21   C     C_R   0.818542 0.762928 0.672393 -0.191947
C22   C     C_R   0.959084 0.763753 0.670308 -0.140085
C23   C     C_R   0.272010 0.477067 0.972671 0.078414
C24   C     C_R   0.065493 0.675677 0.613916 -0.091214
C25   C     C_R   0.035214 0.586709 0.556374 0.175426
C26   C     C_R   0.890306 0.586343 0.557224 0.205103
C27   C     C_R   0.964705 0.417248 0.445375 -0.097957
C28   C     C_R   0.592748 0.497472 0.323592 0.936829
C29   C     C_R   0.107676 0.417057 0.445594 -0.060994
C30   C     C_R   0.350481 0.476368 0.778592 -0.176994
C31   C     C_R   0.653075 0.477958 0.221371 -0.085304
C32   C     C_R   0.168841 0.512695 0.936771 -0.234571
C33   C     C_R   0.207909 0.517034 0.840824 0.230181
C34   C     C_R   0.525839 0.422422 0.950184 0.094903
C35   C     C_R   0.445225 0.418275 0.815445 0.150697
C36   C     C_R   0.483559 0.445904 0.047996 0.045448
C37   C     C_R   0.333689 0.460238 0.106775 -0.195332
C38   C     C_R   0.229920 0.480028 0.069423 -0.186037
C39   C     C_R   0.676430 0.395074 0.895265 -0.138020
C40   C     C_R   0.775958 0.373159 0.937423 -0.160084
H1    H     H_    0.116868 0.500950 0.116465 0.162333
H2    H     H_    0.985329 0.831173 0.714203 0.182890
H3    H     H_    0.168452 0.675704 0.620484 0.217379
H4    H     H_    0.190762 0.349241 0.401138 0.150470
H5    H     H_    0.861161 0.390564 0.207713 0.175605
H6    H     H_    0.887767 0.341840 0.894273 0.178503
H7    H     H_    0.058780 0.543685 0.983746 0.191164
H8    H     H_    0.295771 0.460434 0.182425 0.200943
H9    H     H_    0.720859 0.391536 0.819888 0.205312
H10   H     H_    0.441985 0.648298 0.162120 0.357632
H11   H     H_    0.940055 0.336674 0.039045 0.163565
H12   H     H_    0.019654 0.936286 0.509538 0.207927
H13   H     H_    0.994952 0.117786 0.617409 0.185267
H14   H     H_    0.214353 0.205933 0.626524 0.173040
H15   H     H_    0.735739 0.108500 0.449009 0.192186
H16   H     H_    0.940476 0.349693 0.400742 0.137359
H17   H     H_    0.672046 0.678111 0.626435 0.198722
H18   H     H_    0.735166 0.830065 0.717655 0.172788
N1    N     N_R   0.856800 0.501200 0.500850 -0.105171
N2    N     N_R   0.142390 0.501280 0.500880 -0.109421
O1    O     O_R   0.385310 0.683220 0.500000 -0.624010
O2    O     O_R   0.614640 0.683250 0.500010 -0.606377
O3    O     O_R   0.319840 0.499980 0.632240 -0.605321
O4    O     O_R   0.549160 0.500000 0.632250 -0.609179
O5    O     O_R   0.385360 0.316750 0.499990 -0.635921
O6    O     O_R   0.614690 0.316780 0.500000 -0.603648
O7    O     O_R   0.450840 0.500000 0.367750 -0.545341
O8    O     O_R   0.680160 0.500020 0.367760 -0.619744
O9    O     O_3   0.455025 0.602605 0.213534 -0.718653
Zn1   Zn    Zn3+2 0.346880 0.499980 0.499990 0.989603
Zn2   Zn    Zn3+2 0.653120 0.500020 0.500010 0.984619

loop_
_geom_bond_atom_site_label_1
_geom_bond_atom_site_label_2
_ccdc_geom_bond_type
C24   H3    S    
Br1   C17   S    
C20   H17   S    
C30   C33   A    
C37   C38   A    
Br2   C8    S    
C2    C5    A    
C28   O8    A    
O4    Zn2   S    
C3    C7    A    
C13   C19   A    
C32   C33   A    
C15   C17   A    
C14   C15   A    
C39   H9    S    
C3    C36   A    
C16   C19   S    
C6    C31   A    
C5    H11   S    
C5    C6    A    
C37   H8    S    
C9    H12   S    
C12   C23   A    
C25   N2    A    
C2    C40   A    
C17   C18   A    
C16   O6    A    
O8    Zn2   S    
C28   O7    A    
C30   C35   A    
C28   C31   S    
C27   N1    A    
C20   C21   A    
C1    O1    A    
C7    O9    S    
C18   H15   S    
C21   C22   A    
O1    Zn1   S    
C38   H1    S    
C27   H16   S    
C39   C40   A    
C25   C26   A    
H10   O9    S    
Br4   C35   S    
C27   C29   A    
C13   C14   A    
O5    Zn1   S    
O3    Zn1   S    
C4    C30   S    
C32   H7    S    
C36   C37   A    
C4    O4    A    
C11   H14   S    
C16   O5    A    
C40   H6    S    
C11   C13   A    
C10   H13   S    
C24   C25   A    
C18   C19   A    
C1    O2    A    
O7    Zn1   S    
C2    C3    A    
C1    C15   S    
C23   C32   A    
C22   C24   A    
C7    C31   A    
C34   C39   A    
C34   C36   A    
C23   C38   A    
N1    Zn2   S    
C29   N2    A    
O2    Zn2   S    
C26   N1    A    
C21   H18   S    
C20   C26   A    
C22   H2    S    
C12   C35   A    
C8    C9    A    
Br3   C33   S    
C4    O3    A    
C8    C14   A    
O6    Zn2   S    
C29   H4    S    
N2    Zn1   S    
C10   C11   A    
C9    C10   A    
C6    H5    S    
C12   C34   A    
