data_mof_unit_27392.cif
_audit_creation_date              2012-10-26T17:12:44-0400
_audit_creation_method            fapswitch 2.2
_symmetry_space_group_name_H-M    P1
_symmetry_Int_Tables_number       1
_space_group_crystal_system       triclinic
_cell_length_a                    27.923031
_cell_length_b                    18.716596
_cell_length_c                    16.807329
_cell_angle_alpha                 89.82824
_cell_angle_beta                  62.493142
_cell_angle_gamma                 89.515761
_cell_volume                      7790.65994741

loop_
_atom_site_label
_atom_site_type_symbol
_atom_type_description
_atom_site_fract_x
_atom_site_fract_y
_atom_site_fract_z
_atom_type_partial_charge
Br1   Br    Br    0.031304 0.788616 0.105894 -0.524388
Br2   Br    Br    0.968697 0.211372 0.894096 -0.524388
Br3   Br    Br    0.837660 0.002816 0.023612 -0.521442
Br4   Br    Br    0.162342 0.997182 0.976378 -0.521450
Br5   Br    Br    0.531306 0.288619 0.105901 -0.524394
Br6   Br    Br    0.468696 0.711377 0.894100 -0.524391
Br7   Br    Br    0.337663 0.502815 0.023604 -0.521439
Br8   Br    Br    0.662347 0.497182 0.976364 -0.521451
C1    C     C_R   0.292129 0.722154 0.331408 0.559285
C2    C     C_R   0.589026 0.000639 0.537467 0.025990
C3    C     C_R   0.694724 0.708128 0.901650 0.012906
C4    C     C_R   0.108808 0.796661 0.042842 0.175362
C5    C     C_R   0.891192 0.203334 0.957153 0.175365
C6    C     C_R   0.831485 0.901826 0.014482 0.162077
C7    C     C_R   0.168519 0.098172 0.985509 0.162073
C8    C     C_R   0.608809 0.296660 0.042844 0.175362
C9    C     C_R   0.391192 0.703338 0.957155 0.175366
C10   C     C_R   0.331490 0.401823 0.014474 0.162080
C11   C     C_R   0.668524 0.598172 0.985500 0.162069
C12   C     C_R   0.136464 0.774080 0.089622 -0.091256
C13   C     C_R   0.910973 0.499361 0.462536 0.025990
C14   C     C_R   0.863538 0.225919 0.910373 -0.091249
C15   C     C_R   0.804556 0.881630 0.966174 -0.103014
C16   C     C_R   0.195445 0.118370 0.033818 -0.103017
C17   C     C_R   0.636465 0.274075 0.089621 -0.091255
C18   C     C_R   0.363538 0.725930 0.910377 -0.091253
C19   C     C_R   0.304566 0.381626 0.966158 -0.103002
C20   C     C_R   0.695458 0.618366 0.033799 -0.103017
C21   C     C_R   0.275263 0.782698 0.764952 -0.103055
C22   C     C_R   0.724739 0.217315 0.235043 -0.103057
C23   C     C_R   0.768177 0.690635 0.197190 -0.105754
C24   C     C_R   0.089026 0.500639 0.537468 0.025990
C25   C     C_R   0.231813 0.309373 0.802813 -0.105753
C26   C     C_R   0.775262 0.282706 0.764952 -0.103051
C27   C     C_R   0.224739 0.717318 0.235044 -0.103057
C28   C     C_R   0.268172 0.190639 0.197197 -0.105754
C29   C     C_R   0.731813 0.809378 0.802815 -0.105750
C30   C     C_R   0.304090 0.766498 0.811270 -0.126458
C31   C     C_R   0.695913 0.233517 0.188724 -0.126467
C32   C     C_R   0.743131 0.667839 0.146979 -0.129880
C33   C     C_R   0.256857 0.332171 0.853024 -0.129873
C34   C     C_R   0.804091 0.266512 0.811269 -0.126454
C35   C     C_R   0.581415 0.872151 0.556104 -0.103609
C36   C     C_R   0.195914 0.733523 0.188726 -0.126469
C37   C     C_R   0.243123 0.167844 0.146991 -0.129877
C38   C     C_R   0.756858 0.832175 0.853025 -0.129872
C39   C     C_R   0.922288 0.909587 0.070227 0.590032
C40   C     C_R   0.077712 0.090412 0.929773 0.590037
C41   C     C_R   0.070710 0.898750 0.936091 0.599789
C42   C     C_R   0.929289 0.101250 0.063910 0.599785
C43   C     C_R   0.422288 0.409587 0.070226 0.590029
C44   C     C_R   0.577712 0.590413 0.929773 0.590040
C45   C     C_R   0.570710 0.398749 0.936091 0.599789
C46   C     C_R   0.418585 0.127849 0.443897 -0.103608
C47   C     C_R   0.429289 0.601249 0.063910 0.599785
C48   C     C_R   0.042146 0.629956 0.520310 0.008462
C49   C     C_R   0.957853 0.370044 0.479695 0.008460
C50   C     C_R   0.960336 0.628938 0.467467 0.014819
C51   C     C_R   0.039663 0.371062 0.532538 0.014819
C52   C     C_R   0.542146 0.129956 0.520310 0.008461
C53   C     C_R   0.457854 0.870044 0.479693 0.008461
C54   C     C_R   0.460336 0.128938 0.467466 0.014819
C55   C     C_R   0.539664 0.871062 0.532536 0.014819
C56   C     C_R   0.021706 0.694480 0.505121 -0.127736
C57   C     C_R   0.416789 0.870204 0.454503 -0.116559
C58   C     C_R   0.978293 0.305520 0.494885 -0.127738
C59   C     C_R   0.982271 0.693879 0.476042 -0.119174
C60   C     C_R   0.017727 0.306121 0.523964 -0.119175
C61   C     C_R   0.521705 0.194480 0.505121 -0.127736
C62   C     C_R   0.478294 0.805520 0.494881 -0.127737
C63   C     C_R   0.482271 0.193879 0.476042 -0.119173
C64   C     C_R   0.517728 0.806121 0.523960 -0.119175
C65   C     C_R   0.979411 0.564449 0.485265 0.026191
C66   C     C_R   0.020587 0.435551 0.514741 0.026191
C67   C     C_R   0.021908 0.564876 0.508442 0.027144
C68   C     C_R   0.583210 0.129796 0.545498 -0.116559
C69   C     C_R   0.978090 0.435124 0.491563 0.027144
C70   C     C_R   0.479412 0.064449 0.485264 0.026191
C71   C     C_R   0.520588 0.935551 0.514738 0.026191
C72   C     C_R   0.521909 0.064876 0.508441 0.027144
C73   C     C_R   0.478091 0.935124 0.491561 0.027144
C74   C     C_R   0.456755 0.999589 0.478134 -0.002565
C75   C     C_R   0.543244 0.000411 0.521868 -0.002565
C76   C     C_R   0.956755 0.499589 0.478135 -0.002565
C77   C     C_R   0.043244 0.500411 0.521870 -0.002565
C78   C     C_R   0.387705 0.933686 0.457590 -0.000110
C79   C     C_R   0.081415 0.372151 0.556106 -0.103609
C80   C     C_R   0.612295 0.066313 0.542412 -0.000110
C81   C     C_R   0.611504 0.935091 0.546745 0.000703
C82   C     C_R   0.388496 0.064909 0.453256 0.000703
C83   C     C_R   0.887705 0.433686 0.457591 -0.000111
C84   C     C_R   0.112295 0.566314 0.542412 -0.000110
C85   C     C_R   0.111503 0.435091 0.546747 0.000702
C86   C     C_R   0.888496 0.564909 0.453257 0.000703
C87   C     C_R   0.336123 0.934224 0.458325 -0.021765
C88   C     C_R   0.663877 0.065776 0.541676 -0.021766
C89   C     C_R   0.663527 0.934806 0.543616 -0.022963
C90   C     C_R   0.918585 0.627849 0.443898 -0.103608
C91   C     C_R   0.336472 0.065194 0.456384 -0.022962
C92   C     C_R   0.836123 0.434224 0.458325 -0.021766
C93   C     C_R   0.163877 0.565776 0.541676 -0.021765
C94   C     C_R   0.163527 0.434806 0.543617 -0.022963
C95   C     C_R   0.836472 0.565194 0.456385 -0.022962
C96   C     C_R   0.311951 0.999912 0.457324 -0.161040
C97   C     C_R   0.688049 0.000087 0.542676 -0.161041
C98   C     C_R   0.811951 0.499912 0.457324 -0.161040
C99   C     C_R   0.188049 0.500087 0.542676 -0.161041
C100  C     C_R   0.916789 0.370204 0.454505 -0.116560
C101  C     C_R   0.707870 0.277845 0.668592 0.559281
C102  C     C_R   0.083210 0.629796 0.545499 -0.116559
C103  C     C_R   0.221380 0.770622 0.952397 0.038585
C104  C     C_R   0.778623 0.229390 0.047598 0.038582
C105  C     C_R   0.777475 0.770804 0.049147 0.031536
C106  C     C_R   0.222521 0.229204 0.950851 0.031533
C107  C     C_R   0.721380 0.270618 0.952395 0.038583
C108  C     C_R   0.278623 0.729393 0.047601 0.038582
C109  C     C_R   0.277474 0.270804 0.049149 0.031531
C110  C     C_R   0.722520 0.729207 0.950853 0.031535
C111  C     C_R   0.278082 0.757707 0.905304 0.026000
C112  C     C_R   0.703405 0.731764 0.671622 0.552386
C113  C     C_R   0.721922 0.242306 0.094691 0.025999
C114  C     C_R   0.746929 0.707091 0.072275 0.022177
C115  C     C_R   0.253068 0.292917 0.927721 0.022178
C116  C     C_R   0.778082 0.257708 0.905302 0.025999
C117  C     C_R   0.221922 0.742311 0.094693 0.025999
C118  C     C_R   0.246924 0.207093 0.072282 0.022180
C119  C     C_R   0.753066 0.792921 0.927724 0.022177
C120  C     C_R   0.306881 0.737048 0.953217 -0.009593
C121  C     C_R   0.693123 0.262961 0.046779 -0.009593
C122  C     C_R   0.720459 0.685404 0.021387 -0.016560
C123  C     C_R   0.296594 0.268238 0.328378 0.552390
C124  C     C_R   0.279544 0.314601 0.978600 -0.016552
C125  C     C_R   0.806881 0.237045 0.953214 -0.009593
C126  C     C_R   0.193123 0.762967 0.046781 -0.009590
C127  C     C_R   0.220454 0.185405 0.021394 -0.016556
C128  C     C_R   0.779541 0.814604 0.978606 -0.016560
C129  C     C_R   0.137310 0.810890 0.950224 0.046209
C130  C     C_R   0.862691 0.189111 0.049774 0.046206
C131  C     C_R   0.838208 0.853209 0.072864 0.017324
C132  C     C_R   0.161792 0.146792 0.927133 0.017324
C133  C     C_R   0.637309 0.310887 0.950225 0.046209
C134  C     C_R   0.792129 0.222155 0.331408 0.559283
C135  C     C_R   0.362690 0.689111 0.049775 0.046208
C136  C     C_R   0.338209 0.353208 0.072863 0.017322
C137  C     C_R   0.661790 0.646797 0.927135 0.017324
C138  C     C_R   0.113063 0.842274 0.899973 0.013022
C139  C     C_R   0.886936 0.157725 0.100026 0.013018
C140  C     C_R   0.873105 0.865130 0.112323 -0.002183
C141  C     C_R   0.126895 0.134870 0.887675 -0.002182
C142  C     C_R   0.613062 0.342272 0.899974 0.013022
C143  C     C_R   0.386935 0.657724 0.100027 0.013019
C144  C     C_R   0.373105 0.365129 0.112323 -0.002185
C145  C     C_R   0.207871 0.777846 0.668591 0.559283
C146  C     C_R   0.626893 0.634874 0.887678 -0.002178
C147  C     C_R   0.136313 0.828839 0.808194 -0.162060
C148  C     C_R   0.863686 0.171159 0.191805 -0.162064
C149  C     C_R   0.861359 0.831877 0.193523 -0.143299
C150  C     C_R   0.138640 0.168122 0.806476 -0.143297
C151  C     C_R   0.636311 0.328837 0.808195 -0.162060
C152  C     C_R   0.363685 0.671156 0.191806 -0.162065
C153  C     C_R   0.361360 0.331877 0.193522 -0.143300
C154  C     C_R   0.638638 0.668127 0.806479 -0.143294
C155  C     C_R   0.187793 0.798940 0.763140 -0.024369
C156  C     C_R   0.203406 0.231763 0.671622 0.552388
C157  C     C_R   0.812207 0.201063 0.236858 -0.024370
C158  C     C_R   0.820131 0.781915 0.230607 -0.024246
C159  C     C_R   0.179867 0.218086 0.769392 -0.024247
C160  C     C_R   0.687792 0.298938 0.763140 -0.024369
C161  C     C_R   0.312207 0.701062 0.236860 -0.024370
C162  C     C_R   0.320131 0.281916 0.230608 -0.024246
C163  C     C_R   0.679865 0.718090 0.769394 -0.024248
C164  C     C_R   0.218918 0.790405 0.809678 0.014572
C165  C     C_R   0.781083 0.209604 0.190319 0.014574
C166  C     C_R   0.797968 0.753990 0.176017 0.014020
C167  C     C_R   0.796594 0.768238 0.328378 0.552388
C168  C     C_R   0.202027 0.246014 0.823983 0.014018
C169  C     C_R   0.718917 0.290405 0.809678 0.014573
C170  C     C_R   0.281083 0.709604 0.190320 0.014573
C171  C     C_R   0.297966 0.253992 0.176019 0.014019
C172  C     C_R   0.702025 0.746020 0.823987 0.014018
C173  C     C_R   0.196613 0.631657 0.527091 0.554539
C174  C     C_R   0.803387 0.368343 0.472909 0.554538
C175  C     C_R   0.803604 0.631727 0.472089 0.552233
C176  C     C_R   0.196396 0.368272 0.527911 0.552230
C177  C     C_R   0.696613 0.131658 0.527091 0.554538
C178  C     C_R   0.410974 0.999361 0.462535 0.025990
C179  C     C_R   0.303387 0.868342 0.472909 0.554539
C180  C     C_R   0.303604 0.131727 0.472089 0.552233
C181  C     C_R   0.696396 0.868273 0.527911 0.552229
C182  C     C_R   0.192569 0.790793 0.904290 0.025603
C183  C     C_R   0.807433 0.209215 0.095706 0.025598
C184  C     C_R   0.805270 0.791882 0.098352 0.012906
C185  C     C_R   0.194727 0.208123 0.901647 0.012906
C186  C     C_R   0.692568 0.290790 0.904290 0.025603
C187  C     C_R   0.307433 0.709217 0.095708 0.025597
C188  C     C_R   0.305269 0.291882 0.098354 0.012905
Cu1   Cu    Cu3+1 0.209920 0.785290 0.495070 0.912730
Cu2   Cu    Cu3+1 0.504760 0.500000 0.075850 1.044394
Cu3   Cu    Cu3+1 0.995240 0.000000 0.924150 1.044399
Cu4   Cu    Cu3+1 0.004760 0.000000 0.075850 1.044392
Cu5   Cu    Cu3+1 0.790080 0.214710 0.504930 0.912735
Cu6   Cu    Cu3+1 0.790080 0.785290 0.504930 0.927732
Cu7   Cu    Cu3+1 0.209920 0.214710 0.495070 0.927725
Cu8   Cu    Cu3+1 0.709920 0.285290 0.495070 0.912731
Cu9   Cu    Cu3+1 0.290080 0.714710 0.504930 0.912732
Cu10  Cu    Cu3+1 0.290080 0.285290 0.504930 0.927732
Cu11  Cu    Cu3+1 0.709920 0.714710 0.495070 0.927729
Cu12  Cu    Cu3+1 0.495240 0.500000 0.924150 1.044399
H1    H     H_    0.532319 0.755778 0.536832 0.113303
H2    H     H_    0.727960 0.999752 0.538424 0.158932
H3    H     H_    0.772040 0.500248 0.461575 0.158932
H4    H     H_    0.227960 0.499752 0.538424 0.158932
H5    H     H_    0.588956 0.823161 0.582352 0.154818
H6    H     H_    0.411043 0.176839 0.417649 0.154819
H7    H     H_    0.409740 0.819916 0.431177 0.153100
H8    H     H_    0.590259 0.180084 0.568824 0.153099
H9    H     H_    0.088956 0.323161 0.582354 0.154819
H10   H     H_    0.911044 0.676838 0.417649 0.154819
H11   H     H_    0.909740 0.319916 0.431179 0.153100
H12   H     H_    0.467680 0.244222 0.463170 0.113303
H13   H     H_    0.090259 0.680084 0.568824 0.153099
H14   H     H_    0.115130 0.844655 0.770728 0.157534
H15   H     H_    0.884867 0.155340 0.229273 0.157535
H16   H     H_    0.883195 0.846991 0.229901 0.175102
H17   H     H_    0.116805 0.153007 0.770097 0.175105
H18   H     H_    0.615128 0.344652 0.770730 0.157533
H19   H     H_    0.384865 0.655336 0.229274 0.157536
H20   H     H_    0.383196 0.346989 0.229900 0.175104
H21   H     H_    0.616803 0.653012 0.770100 0.175104
H22   H     H_    0.111557 0.763521 0.159724 0.137952
H23   H     H_    0.462679 0.754738 0.486811 0.105909
H24   H     H_    0.888447 0.236460 0.840263 0.137952
H25   H     H_    0.799927 0.922261 0.924667 0.142796
H26   H     H_    0.200082 0.077729 0.075315 0.142803
H27   H     H_    0.611559 0.263518 0.159724 0.137953
H28   H     H_    0.388447 0.736484 0.840271 0.137954
H29   H     H_    0.299939 0.422264 0.924644 0.142788
H30   H     H_    0.700103 0.577722 0.075283 0.142807
H31   H     H_    0.298432 0.791734 0.693680 0.150309
H32   H     H_    0.701568 0.208278 0.306314 0.150312
H33   H     H_    0.765125 0.656478 0.251275 0.143051
H34   H     H_    0.537321 0.245262 0.513191 0.105909
H35   H     H_    0.234861 0.343529 0.748730 0.143045
H36   H     H_    0.798430 0.291748 0.693681 0.150304
H37   H     H_    0.201568 0.708280 0.306315 0.150313
H38   H     H_    0.265119 0.156483 0.251283 0.143057
H39   H     H_    0.734863 0.843533 0.748730 0.143044
H40   H     H_    0.346960 0.760614 0.770233 0.107051
H41   H     H_    0.653046 0.239406 0.229756 0.107052
H42   H     H_    0.719621 0.619902 0.170473 0.107557
H43   H     H_    0.280355 0.380117 0.829538 0.107551
H44   H     H_    0.846963 0.260647 0.770232 0.107052
H45   H     H_    0.032318 0.255779 0.536836 0.113303
H46   H     H_    0.153047 0.739414 0.229758 0.107054
H47   H     H_    0.219609 0.119909 0.170493 0.107551
H48   H     H_    0.780362 0.880118 0.829538 0.107550
H49   H     H_    0.967681 0.744221 0.463170 0.113303
H50   H     H_    0.962677 0.254738 0.486815 0.105909
H51   H     H_    0.037321 0.745262 0.513191 0.105908
H52   H     H_    0.272040 0.000248 0.461576 0.158932
O1    O     O_R   0.255040 0.869590 0.478480 -0.502547
O2    O     O_R   0.817950 0.203450 0.375560 -0.510062
O3    O     O_R   0.817950 0.796550 0.375560 -0.505410
O4    O     O_R   0.182050 0.203450 0.624440 -0.505411
O5    O     O_R   0.682050 0.296550 0.624440 -0.510064
O6    O     O_R   0.317950 0.703450 0.375560 -0.510063
O7    O     O_R   0.317950 0.296550 0.375560 -0.505410
O8    O     O_R   0.682050 0.703450 0.624440 -0.505410
O9    O     O_R   0.250530 0.763330 0.367210 -0.513054
O10   O     O_R   0.749470 0.236670 0.632790 -0.513047
O11   O     O_R   0.749470 0.763330 0.632790 -0.510569
O12   O     O_R   0.744960 0.130410 0.521520 -0.502547
O13   O     O_R   0.250530 0.236670 0.367210 -0.510581
O14   O     O_R   0.750530 0.263330 0.367210 -0.513054
O15   O     O_R   0.249470 0.736670 0.632790 -0.513051
O16   O     O_R   0.249470 0.263330 0.632790 -0.510571
O17   O     O_R   0.750530 0.736670 0.367210 -0.510576
O18   O     O_R   0.177260 0.690030 0.513710 -0.531397
O19   O     O_R   0.822740 0.309970 0.486290 -0.531398
O20   O     O_R   0.822740 0.690030 0.486290 -0.516173
O21   O     O_R   0.177260 0.309970 0.513710 -0.516174
O22   O     O_R   0.677260 0.190030 0.513710 -0.531397
O23   O     O_R   0.744960 0.869590 0.521520 -0.510032
O24   O     O_R   0.322740 0.809970 0.486290 -0.531398
O25   O     O_R   0.322740 0.190030 0.486290 -0.516174
O26   O     O_R   0.677260 0.809970 0.513710 -0.516175
O27   O     O_R   0.051640 0.926880 0.885090 -0.531475
O28   O     O_R   0.948360 0.073120 0.114910 -0.531476
O29   O     O_R   0.948360 0.926880 0.114910 -0.493710
O30   O     O_R   0.051640 0.073120 0.885090 -0.493707
O31   O     O_R   0.551640 0.426880 0.885090 -0.531474
O32   O     O_R   0.448360 0.573120 0.114910 -0.531476
O33   O     O_R   0.448360 0.426880 0.114910 -0.493712
O34   O     O_R   0.255040 0.130410 0.478480 -0.510031
O35   O     O_R   0.551640 0.573120 0.885090 -0.493707
O36   O     O_R   0.940620 0.926560 0.986760 -0.483365
O37   O     O_R   0.059380 0.073440 0.013240 -0.483366
O38   O     O_R   0.059380 0.926560 0.013240 -0.432350
O39   O     O_R   0.940620 0.073440 0.986760 -0.432345
O40   O     O_R   0.440620 0.426560 0.986760 -0.483367
O41   O     O_R   0.559380 0.573440 0.013240 -0.483365
O42   O     O_R   0.559380 0.426560 0.013240 -0.432350
O43   O     O_R   0.440620 0.573440 0.986760 -0.432345
O44   O     O_R   0.755040 0.369590 0.478480 -0.502546
O45   O     O_R   0.244960 0.630410 0.521520 -0.502547
O46   O     O_R   0.244960 0.369590 0.521520 -0.510032
O47   O     O_R   0.755040 0.630410 0.478480 -0.510030
O48   O     O_R   0.182050 0.796550 0.624440 -0.510063

loop_
_geom_bond_atom_site_label_1
_geom_bond_atom_site_label_2
_ccdc_geom_bond_type
C42   C139  S    
C93   C99   A    
C1    C161  S    
C26   C34   A    
C35   C55   A    
Cu7   O13   S    
Cu2   O42   S    
C35   C81   A    
C116  C125  A    
C148  H15   S    
C95   C175  S    
C45   O42   A    
C123  O13   A    
C179  O1    A    
C61   H34   S    
C123  O7    A    
C174  O44   A    
C109  C124  A    
C108  C187  A    
C105  C114  A    
C149  H16   S    
Cu4   O29   S    
C83   C92   A    
C177  O22   A    
Cu11  O17   S    
C89   C97   A    
C111  C120  A    
C27   C170  A    
C135  C143  A    
Cu3   Cu4   S    
C40   C141  S    
C65   C67   A    
C28   C171  A    
C72   C75   A    
C88   C177  S    
C43   O40   A    
C23   H33   S    
C150  C159  A    
C36   C117  A    
C158  C166  A    
C142  C151  A    
C129  C138  A    
C119  C128  A    
C131  C184  A    
C99   H4    S    
C82   C178  A    
C164  C182  A    
C165  C183  A    
C97   H2    S    
Cu5   O12   S    
Cu6   O11   S    
Cu12  O31   S    
C70   C74   A    
C4    C12   A    
C176  O46   A    
C155  C164  A    
C37   H47   S    
C30   C111  A    
C43   C144  S    
C90   H10   S    
Cu11  O47   S    
Cu12  O40   S    
Cu1   O9    S    
C39   O29   A    
C18   H28   S    
C8    C17   A    
C46   H6    S    
C29   C172  A    
C44   O41   A    
C22   H32   S    
C47   C143  S    
C32   C114  A    
C92   C98   A    
C29   H39   S    
C152  H19   S    
C104  C183  A    
C24   C84   A    
C156  O4    A    
C41   C138  S    
C20   C122  A    
C51   C79   A    
C154  H21   S    
C16   H26   S    
C78   C87   A    
C53   C57   A    
C50   C59   A    
C26   C169  A    
C12   C126  A    
C102  H13   S    
Cu5   O19   S    
C115  C124  A    
C130  C183  A    
C50   C90   A    
C49   C58   A    
Cu6   O20   S    
Cu11  O26   S    
C2    C80   A    
C15   C128  A    
C145  C155  S    
C46   C82   A    
C70   C72   A    
C51   C66   A    
C103  C111  A    
C62   H23   S    
C45   O31   A    
C177  O12   A    
C167  O3    A    
Cu10  O46   S    
C100  H11   S    
C60   H45   S    
C2    C81   A    
C66   C69   A    
C21   C30   A    
C48   C56   A    
C168  C185  A    
C132  C185  A    
C144  C153  A    
C89   C181  S    
C24   C85   A    
Cu8   O14   S    
C48   C67   A    
C19   C124  A    
Br1   C4    S    
C133  C142  A    
C131  C140  A    
Br8   C11   S    
C154  C163  A    
C14   C125  A    
C38   C119  A    
Cu5   O2    S    
C101  O5    A    
Cu7   O4    S    
C69   C76   A    
C147  C155  A    
C27   C36   A    
C101  C160  S    
C32   H42   S    
C64   H1    S    
C37   C118  A    
C30   H40   S    
C94   C99   A    
C145  O15   A    
Cu9   O6    S    
C11   C20   A    
C137  C146  A    
C7    C16   A    
C107  C186  A    
C108  C117  A    
Cu3   O39   S    
C25   H35   S    
Cu1   O18   S    
C110  C119  A    
C106  C115  A    
C27   H37   S    
C82   C91   A    
C93   C173  S    
C109  C118  A    
C105  C184  A    
C1    O9    A    
C52   C72   A    
C175  O47   A    
C146  C154  A    
Cu12  O43   S    
C58   H50   S    
C103  C126  A    
C136  C188  A    
C162  C171  A    
Cu6   Cu11  S    
C5    C130  A    
C101  O10   A    
C8    C133  A    
C104  C113  A    
C136  C144  A    
C53   C73   A    
C84   C102  A    
C52   C61   A    
C98   H3    S    
C79   C85   A    
C22   C31   A    
C91   C96   A    
C140  C149  A    
C66   C77   A    
C180  O34   A    
C40   O30   A    
C129  C182  A    
C15   H25   S    
C49   C100  A    
C3    C110  A    
C132  C141  A    
C166  C184  A    
C23   C166  A    
C53   C62   A    
C88   C97   A    
C80   C88   A    
C112  O8    A    
Cu10  O25   S    
Cu1   Cu9   S    
Cu6   O3    S    
C145  O48   A    
C87   C179  S    
C57   C78   A    
Cu8   O5    S    
C158  C167  S    
C74   C178  A    
Cu3   O30   S    
C107  C121  A    
C173  O18   A    
C86   C90   A    
C160  C169  A    
C2    C75   A    
C23   C32   A    
C96   H52   S    
C151  H18   S    
Br6   C9    S    
C25   C168  A    
Cu1   O1    S    
C20   H30   S    
C67   C77   A    
C138  C147  A    
C176  O21   A    
Cu2   O32   S    
C47   O32   A    
C152  C161  A    
C92   C174  S    
C56   H51   S    
C153  H20   S    
Cu11  O8    S    
C34   H44   S    
C38   H48   S    
C91   C180  S    
Cu2   O41   S    
C54   C70   A    
Cu6   O23   S    
C171  C188  A    
Cu7   Cu10  S    
C12   H22   S    
C169  C186  A    
C26   H36   S    
C49   C69   A    
C46   C54   A    
C42   O39   A    
C110  C122  A    
C68   H8    S    
C13   C76   A    
C135  C187  A    
C112  C163  S    
C139  C148  A    
C150  H17   S    
C59   H49   S    
Br3   C6    S    
C84   C93   A    
C86   C95   A    
C78   C178  A    
Cu9   O24   S    
C40   O37   A    
C19   H29   S    
C7    C132  A    
C13   C83   A    
C107  C116  A    
C42   O28   A    
C83   C100  A    
C156  O16   A    
C156  C159  S    
C167  O17   A    
C113  C121  A    
C85   C94   A    
C179  O24   A    
C57   H7    S    
C174  O19   A    
C1    O6    A    
Cu9   O15   S    
C31   C113  A    
Cu10  O16   S    
C9    C135  A    
C25   C33   A    
C10   C136  A    
C117  C126  A    
Cu4   O37   S    
C71   C75   A    
C47   O43   A    
C148  C157  A    
C24   C77   A    
C181  O23   A    
Cu8   O22   S    
C52   C68   A    
C5    C14   A    
C44   O35   A    
C41   O38   A    
C63   H12   S    
C55   C64   A    
C103  C182  A    
C3    C172  A    
C134  O2    A    
C29   C38   A    
C44   C146  S    
C58   C60   A    
C123  C162  S    
C106  C185  A    
C28   H38   S    
C104  C125  A    
C17   C121  A    
C73   C74   A    
C34   C116  A    
C175  O20   A    
C55   C71   A    
C11   C137  A    
C112  O11   A    
C9    C18   A    
C13   C86   A    
C157  C165  A    
C151  C160  A    
C61   C63   A    
Br2   C5    S    
Cu7   O21   S    
Br5   C8    S    
C105  C128  A    
C173  O45   A    
C54   C63   A    
C106  C127  A    
C95   C98   A    
C134  O14   A    
C65   C76   A    
Cu5   O10   S    
C181  O26   A    
C33   H43   S    
C48   C102  A    
Cu2   Cu12  S    
C56   C59   A    
Cu8   O44   S    
C71   C73   A    
C3    C137  A    
C81   C89   A    
Cu4   O38   S    
C6    C15   A    
C51   C60   A    
C31   H41   S    
C130  C139  A    
Br7   C10   S    
Cu10  O7    S    
C28   C37   A    
C18   C120  A    
C6    C131  A    
C39   O36   A    
C153  C162  A    
C16   C127  A    
Cu3   O36   S    
Cu1   O48   S    
C45   C142  S    
Cu5   Cu8   S    
C163  C172  A    
C35   H5    S    
C161  C170  A    
C87   C96   A    
C141  C150  A    
C68   C80   A    
C39   C140  S    
C41   O27   A    
Cu12  O35   S    
C10   C19   A    
C149  C158  A    
C118  C127  A    
Cu3   O27   S    
C170  C187  A    
Cu4   O28   S    
C22   C165  A    
C94   C176  S    
C143  C152  A    
C33   C115  A    
Br4   C7    S    
C109  C188  A    
C134  C157  S    
C36   H46   S    
C114  C122  A    
Cu7   O34   S    
C133  C186  A    
C79   H9    S    
C21   C164  A    
C43   O33   A    
C14   H24   S    
C180  O25   A    
C17   H27   S    
C108  C120  A    
Cu2   O33   S    
C4    C129  A    
C147  H14   S    
C62   C64   A    
C21   H31   S    
Cu9   O45   S    
C50   C65   A    
C159  C168  A    
