data_mof_unit_30315.cif
_audit_creation_date              2012-12-10T19:11:33-0500
_audit_creation_method            fapswitch 2.2
_symmetry_space_group_name_H-M    P1
_symmetry_Int_Tables_number       1
_space_group_crystal_system       triclinic
_cell_length_a                    7.797751
_cell_length_b                    9.092729
_cell_length_c                    17.282907
_cell_angle_alpha                 89.999963
_cell_angle_beta                  87.108941
_cell_angle_gamma                 89.98756
_cell_volume                      1223.84745387

loop_
_atom_site_label
_atom_site_type_symbol
_atom_type_description
_atom_site_fract_x
_atom_site_fract_y
_atom_site_fract_z
_atom_type_partial_charge
C1    C     C_R   0.499992 0.779918 0.499974 0.847013
C2    C     C_R   0.500014 0.220080 0.499979 0.841455
C3    C     C_1   0.499990 0.934613 0.499959 -0.159070
C4    C     C_1   0.500020 0.065386 0.499963 -0.159191
C5    C     C_R   0.479563 0.496831 0.650307 0.814583
C6    C     C_R   0.520206 0.500221 0.349952 0.809223
C7    C     C_R   0.472182 0.481482 0.734444 -0.103315
C8    C     C_R   0.524004 0.505587 0.266084 -0.084458
C9    C     C_R   0.612559 0.421248 0.770874 -0.147574
C10   C     C_R   0.416387 0.411581 0.227098 -0.163796
C11   C     C_R   0.604981 0.401529 0.850530 -0.121608
C12   C     C_R   0.400429 0.427238 0.148135 -0.118332
C13   C     C_R   0.459047 0.444827 0.894888 0.028376
C14   C     C_R   0.490179 0.538687 0.106992 0.016515
C15   C     C_R   0.315675 0.503747 0.858816 0.407293
C16   C     C_R   0.596689 0.636255 0.146570 0.357769
C17   C     C_R   0.323735 0.521297 0.778415 -0.272012
C18   C     C_R   0.614914 0.616789 0.226078 -0.221313
C19   C     C_2   0.464442 0.431016 0.978768 -0.150678
C20   C     C_2   0.469961 0.551093 0.023205 -0.060346
Cu1   Cu    Cu3+1 0.330920 0.500000 0.500000 1.021733
Cu2   Cu    Cu3+1 0.669080 0.500000 0.500000 1.022231
H1    H     H_    0.314084 0.354197 0.119479 0.188589
H2    H     H_    0.714748 0.355247 0.877945 0.205032
H3    H     H_    0.727562 0.387768 0.737699 0.176742
H4    H     H_    0.342464 0.327454 0.258172 0.162825
H5    H     H_    0.693062 0.692214 0.257674 0.181818
H6    H     H_    0.215083 0.567030 0.750040 0.196323
H7    H     H_    0.468783 0.659211 0.996568 0.227366
H8    H     H_    0.483426 0.322256 0.002949 0.177569
N1    N     N_1   0.923170 0.500000 0.500010 -0.043014
N2    N     N_1   0.076830 0.500000 0.499990 -0.042849
O1    O     O_R   0.357240 0.711600 0.500000 -0.575332
O2    O     O_R   0.642760 0.288400 0.500000 -0.577740
O3    O     O_R   0.642760 0.711600 0.500000 -0.575820
O4    O     O_R   0.357240 0.288400 0.500000 -0.578513
O5    O     O_R   0.340660 0.500000 0.613590 -0.584253
O6    O     O_R   0.659340 0.500000 0.386410 -0.576569
O7    O     O_R   0.626230 0.500000 0.613600 -0.586089
O8    O     O_R   0.373770 0.500000 0.386400 -0.578374
S1    S     S_3+6 0.125078 0.554260 0.911973 -0.005509
O9    O     O_2   0.978412 0.568951 0.859299 -0.304762
O10   O     O_2   0.080865 0.439414 0.972264 -0.276284
O11   O     O_3   0.155371 0.716220 0.956148 -0.469325
H9    H     H_    0.188120 0.785492 0.913712 0.355767
S2    S     S_3+6 0.704395 0.785100 0.099239 0.042872
O12   O     O_2   0.576107 0.904663 0.086017 -0.247753
O13   O     O_2   0.842938 0.844652 0.147907 -0.246923
O14   O     O_3   0.792289 0.731279 0.013162 -0.438292
H10   H     H_    0.835115 0.630699 0.022477 0.388001

loop_
_geom_bond_atom_site_label_1
_geom_bond_atom_site_label_2
_ccdc_geom_bond_type
C2    C4    S    
C6    O6    A    
C5    O5    A    
C9    C11   A    
S1    O9    D    
S1    O10   D    
C19   C20   D    
S2    O14   S    
C10   H4    S    
C13   C15   A    
C9    H3    S    
Cu1   O4    S    
Cu1   Cu2   S    
Cu2   O3    S    
C11   C13   A    
C12   H1    S    
C2    O2    A    
Cu1   O8    S    
C10   C12   A    
Cu2   O7    S    
C16   C18   A    
S1    O11   S    
C12   C14   A    
C6    O8    A    
C20   H7    S    
C5    O7    A    
Cu2   O2    S    
Cu1   N2    S    
C14   C16   A    
Cu1   O1    S    
Cu2   N1    S    
C13   C19   S    
C16   S2    S    
C3    C4    T    
Cu2   O6    S    
S2    O13   D    
C7    C9    A    
C11   H2    S    
Cu1   O5    S    
O11   H9    S    
C15   S1    S    
C14   C20   S    
C8    C10   A    
O14   H10   S    
C2    O4    A    
C1    C3    S    
C15   C17   A    
C1    O3    A    
C5    C7    S    
C6    C8    S    
C17   H6    S    
S2    O12   D    
C19   H8    S    
N1    N2    T    
C8    C18   A    
C18   H5    S    
C1    O1    A    
C7    C17   A    
