data_mof_unit_41663.cif
_audit_creation_date              2012-10-26T21:00:43-0400
_audit_creation_method            fapswitch 2.2
_symmetry_space_group_name_H-M    P1
_symmetry_Int_Tables_number       1
_space_group_crystal_system       triclinic
_cell_length_a                    10.785746
_cell_length_b                    9.594674
_cell_length_c                    10.857121
_cell_angle_alpha                 89.37241
_cell_angle_beta                  90.310812
_cell_angle_gamma                 90.026705
_cell_volume                      1123.47292348

loop_
_atom_site_label
_atom_site_type_symbol
_atom_type_description
_atom_site_fract_x
_atom_site_fract_y
_atom_site_fract_z
_atom_type_partial_charge
C1    C     C_R   0.262514 0.499964 0.496820 0.579589
C2    C     C_R   0.497757 0.499548 0.738091 0.597897
C3    C     C_R   0.586263 0.748678 0.096664 0.250691
C4    C     C_R   0.427926 0.744552 0.890824 0.269156
C5    C     C_R   0.578382 0.865414 0.017185 0.270087
C6    C     C_R   0.483757 0.870793 0.927561 0.247796
C7    C     C_R   0.475672 0.620026 0.941836 -0.063216
C8    C     C_R   0.524201 0.625840 0.061473 -0.069381
C9    C     C_R   0.530556 0.500648 0.129195 0.012550
C10   C     C_R   0.500812 0.498145 0.873357 -0.013401
C11   C     C_R   0.550257 0.376579 0.063895 0.282335
C12   C     C_R   0.737476 0.499949 0.497204 0.578315
C13   C     C_R   0.554809 0.383091 0.935666 0.272428
C14   C     C_R   0.064210 0.410362 0.411586 0.251768
C15   C     C_R   0.934695 0.409773 0.412180 0.258285
C16   C     C_R   0.871346 0.499941 0.491745 -0.002435
C17   C     C_R   0.128576 0.500116 0.491395 0.000543
C18   C     C_R   0.936376 0.592499 0.566701 -0.148494
C19   C     C_R   0.064526 0.592425 0.566682 -0.148037
C20   C     C_R   0.421874 0.075364 0.424828 0.045778
C21   C     C_R   0.579808 0.073600 0.573318 0.074258
C22   C     C_R   0.421631 0.926185 0.423887 0.333596
C23   C     C_R   0.579593 0.924428 0.574820 0.356429
C24   C     C_R   0.511868 0.500351 0.263004 0.617088
Cl1   Cl    Cl    0.581199 0.216222 0.138338 -0.386276
Cl2   Cl    Cl    0.656603 0.268650 0.859848 -0.422908
Cl3   Cl    Cl    0.708663 0.974431 0.002747 -0.374394
Cl4   Cl    Cl    0.444449 0.030558 0.856665 -0.506682
Cl5   Cl    Cl    0.144196 0.305444 0.305056 -0.489478
Cl6   Cl    Cl    0.853371 0.301817 0.308148 -0.389904
Cu1   Cu    Cu3+1 0.500000 0.640660 0.500000 1.157485
Cu2   Cu    Cu3+1 0.500000 0.359340 0.500000 1.122619
H1    H     H_    0.887825 0.662789 0.627246 0.184899
H2    H     H_    0.113877 0.662617 0.627257 0.182436
H3    H     H_    0.360004 0.132874 0.364447 0.181685
H4    H     H_    0.644124 0.129646 0.631058 0.182874
H5    H     H_    0.692494 0.840069 0.216180 0.377397
H6    H     H_    0.303958 0.832638 0.783404 0.368204
H7    H     H_    0.293912 0.921690 0.297232 0.332540
H8    H     H_    0.708842 0.917089 0.699982 0.341233
N1    N     N_R   0.500000 0.852070 0.500000 -0.173326
N2    N     N_R   0.500000 0.147940 0.500000 -0.270995
O1    O     O_R   0.319640 0.618740 0.499990 -0.461337
O2    O     O_3   0.331671 0.737690 0.806375 -0.659570
O3    O     O_3   0.343437 0.854041 0.346574 -0.640497
O4    O     O_3   0.658878 0.850572 0.651122 -0.652416
O5    O     O_R   0.680360 0.618740 0.500010 -0.464867
O6    O     O_R   0.319620 0.381170 0.499990 -0.483143
O7    O     O_R   0.680380 0.381170 0.500010 -0.476128
O8    O     O_R   0.500000 0.618810 0.319650 -0.438171
O9    O     O_R   0.500000 0.618810 0.680350 -0.439681
O10   O     O_R   0.499970 0.381240 0.319640 -0.458557
O11   O     O_R   0.500030 0.381240 0.680360 -0.465296
O12   O     O_3   0.671168 0.743534 0.192381 -0.631369

loop_
_geom_bond_atom_site_label_1
_geom_bond_atom_site_label_2
_ccdc_geom_bond_type
C24   O10   A    
C7    C10   A    
C20   N2    A    
C10   C13   A    
C9    C24   S    
H6    O2    S    
C9    C11   A    
C1    C17   S    
Cu1   Cu2   S    
C23   N1    A    
H7    O3    S    
C12   O7    A    
C8    C9    A    
C7    C8    A    
C1    O6    A    
C23   O4    S    
Cu1   O5    S    
H8    O4    S    
C11   C13   A    
C14   C17   A    
Cu2   O6    S    
Cu1   O1    S    
C12   O5    A    
H5    O12   S    
C4    C6    A    
C17   C19   A    
C20   C22   A    
C18   C19   A    
C19   H2    S    
C21   C23   A    
C24   O8    A    
C5    C6    A    
C13   Cl2   S    
C3    O12   S    
Cu2   O7    S    
C22   N1    A    
C18   H1    S    
C11   Cl1   S    
Cu1   O8    S    
C21   N2    A    
C2    C10   S    
Cu2   O11   S    
C22   O3    S    
C15   Cl6   S    
C16   C18   A    
C3    C8    A    
C2    O9    A    
C21   H4    S    
Cu2   N2    S    
C14   C15   A    
Cu2   O10   S    
Cu1   N1    S    
C4    C7    A    
C5    Cl3   S    
C20   H3    S    
C1    O1    A    
C15   C16   A    
C6    Cl4   S    
C12   C16   S    
Cu1   O9    S    
C14   Cl5   S    
C3    C5    A    
C2    O11   A    
C4    O2    S    
