data_mof_unit_43015.cif
_audit_creation_date              2012-12-10T16:53:31-0500
_audit_creation_method            fapswitch 2.2
_symmetry_space_group_name_H-M    P1
_symmetry_Int_Tables_number       1
_space_group_crystal_system       triclinic
_cell_length_a                    7.839068
_cell_length_b                    8.633098
_cell_length_c                    13.604184
_cell_angle_alpha                 92.927303
_cell_angle_beta                  78.130381
_cell_angle_gamma                 93.136952
_cell_volume                      898.886502988

loop_
_atom_site_label
_atom_site_type_symbol
_atom_type_description
_atom_site_fract_x
_atom_site_fract_y
_atom_site_fract_z
_atom_type_partial_charge
C1    C     C_R   0.544884 0.793914 0.497622 0.923837
C2    C     C_1   0.568729 0.505842 0.120123 -0.030160
C3    C     C_2   0.567972 0.954254 0.482314 -0.100789
C4    C     C_2   0.432033 0.045747 0.517718 -0.099636
C5    C     C_3   0.096894 0.455009 0.018511 -0.727086
C6    C     C_3   0.779413 0.710013 0.946089 -0.798235
C7    C     C_R   0.455114 0.206087 0.502394 0.924017
C8    C     C_R   0.469378 0.501509 0.687095 0.897106
C9    C     C_R   0.530525 0.498163 0.312892 0.899184
C10   C     C_1   0.554214 0.502217 0.208378 -0.219469
C11   C     C_1   0.444183 0.492518 0.791393 -0.215702
C12   C     C_2   0.570086 0.508471 0.016288 0.165486
C13   C     C_2   0.419404 0.476347 0.984198 0.168465
C14   C     C_1   0.425995 0.483821 0.879578 -0.023597
H1    H     H_    0.249895 0.457729 0.126821 0.229625
H2    H     H_    0.744166 0.947804 0.349877 0.176068
H3    H     H_    0.168052 0.014915 0.547153 0.188419
H4    H     H_    0.255821 0.052210 0.650150 0.174423
H5    H     H_    0.023150 0.377259 0.334723 0.175931
H6    H     H_    0.994463 0.243523 0.422691 0.177714
H7    H     H_    0.976655 0.622453 0.665353 0.176084
H8    H     H_    0.005585 0.756406 0.577511 0.177121
H9    H     H_    0.984382 0.415259 0.076957 0.242256
H10   H     H_    0.092358 0.385602 0.947991 0.250737
H11   H     H_    0.084708 0.579923 0.006727 0.251167
H12   H     H_    0.751594 0.489941 0.879911 0.231635
H13   H     H_    0.909804 0.727797 0.896485 0.235117
H14   H     H_    0.786108 0.759130 0.022381 0.253234
H15   H     H_    0.682568 0.772120 0.915434 0.242211
H16   H     H_    0.831959 0.985069 0.452869 0.188389
N1    N     N_2   0.954190 0.457600 0.473930 -0.001906
N2    N     N_2   0.045810 0.542400 0.526070 -0.001962
N3    N     N_2   0.258215 0.433241 0.051113 -0.319012
N4    N     N_2   0.731938 0.545913 0.949847 -0.309083
N5    N     N_3   0.728500 0.009367 0.419146 -0.446992
N6    N     N_3   0.271503 0.990632 0.580885 -0.448160
N7    N     N_3   0.048057 0.354414 0.404995 -0.320192
N8    N     N_3   0.951913 0.645493 0.595072 -0.320139
O1    O     O_R   0.388300 0.738660 0.506400 -0.597421
O2    O     O_R   0.611700 0.261340 0.493600 -0.598072
O3    O     O_R   0.679920 0.711490 0.489690 -0.625019
O4    O     O_R   0.320080 0.288510 0.510310 -0.625475
O5    O     O_R   0.333200 0.515510 0.649910 -0.620569
O6    O     O_R   0.666800 0.484490 0.350090 -0.619111
O7    O     O_R   0.624820 0.488340 0.633200 -0.602616
O8    O     O_R   0.375180 0.511660 0.366800 -0.603056
Zn1   Zn    Zn3+2 0.305280 0.518140 0.511160 0.962211
Zn2   Zn    Zn3+2 0.694720 0.481860 0.488840 0.963019

loop_
_geom_bond_atom_site_label_1
_geom_bond_atom_site_label_2
_ccdc_geom_bond_type
C7    O2    A    
C4    N6    S    
C13   N3    S    
H3    N6    S    
N2    N8    S    
C9    C10   S    
C6    H13   S    
C5    H9    S    
C8    O5    A    
C3    N5    S    
N1    Zn2   S    
C2    C12   S    
C9    O8    A    
C13   C14   S    
H6    N7    S    
C5    H10   S    
H4    N6    S    
H16   N5    S    
C4    C7    S    
C5    H11   S    
C1    O3    A    
N2    Zn1   S    
O3    Zn2   S    
H12   N4    S    
O4    Zn1   S    
C8    C11   S    
H2    N5    S    
C11   C14   T    
O7    Zn2   S    
C6    N4    S    
C1    O1    A    
C12   N4    S    
C3    C4    D    
C2    C10   T    
O6    Zn2   S    
C6    H15   S    
C12   C13   D    
O1    Zn1   S    
C7    O4    A    
O2    Zn2   S    
C8    O7    A    
C9    O6    A    
H5    N7    S    
O8    Zn1   S    
O5    Zn1   S    
H1    N3    S    
C6    H14   S    
H7    N8    S    
N1    N2    D    
N1    N7    S    
C1    C3    S    
H8    N8    S    
C5    N3    S    
