data_mof_unit_28707.cif
_audit_creation_date              2012-12-11T17:01:28-0500
_audit_creation_method            fapswitch 2.2
_symmetry_space_group_name_H-M    P1
_symmetry_Int_Tables_number       1
_space_group_crystal_system       triclinic
_cell_length_a                    15.056104
_cell_length_b                    14.847801
_cell_length_c                    14.844001
_cell_angle_alpha                 109.170253
_cell_angle_beta                  108.921608
_cell_angle_gamma                 109.687525
_cell_volume                      2574.19953521

loop_
_atom_site_label
_atom_site_type_symbol
_atom_type_description
_atom_site_fract_x
_atom_site_fract_y
_atom_site_fract_z
_atom_type_partial_charge
C1    C     C_R   0.003850 0.804124 0.097203 -0.161988
C2    C     C_R   0.218817 0.747680 0.313544 -0.137776
C3    C     C_R   0.905094 0.409779 0.210522 -0.149036
C4    C     C_R   0.789753 0.199334 0.697230 -0.210035
C5    C     C_R   0.301903 0.593064 0.001073 -0.151671
C6    C     C_R   0.934356 0.501824 0.303227 0.081760
C7    C     C_R   0.306616 0.502616 0.944382 0.016258
C8    C     C_R   0.320616 0.777993 0.324730 0.062002
C9    C     C_R   0.049734 0.224847 0.052543 0.068230
C10   C     C_3   0.480069 0.440776 0.818397 0.110634
C11   C     C_3   0.378607 0.445749 0.819327 -0.437344
C12   C     C_R   0.697373 0.138820 0.696210 0.053686
C13   C     C_3   0.540124 0.448574 0.006796 -0.353771
C14   C     C_3   0.596840 0.621191 0.995503 -0.479742
C15   C     C_3   0.574464 0.500569 0.939913 0.332656
C16   C     C_R   0.025116 0.593595 0.779178 -0.149622
C17   C     C_3   0.402151 0.503633 0.938837 0.365414
C18   C     C_3   0.435144 0.442807 0.998698 -0.396617
C19   C     C_3   0.496651 0.622741 0.996773 -0.415284
C20   C     C_R   0.610230 0.963481 0.528863 0.132048
C21   C     C_R   0.603440 0.043668 0.603190 0.057055
C22   C     C_R   0.504392 0.040030 0.580549 -0.209497
C23   C     C_R   0.952081 0.503476 0.675967 0.068621
C24   C     C_R   0.411192 0.948863 0.492468 -0.198647
C25   C     C_R   0.416703 0.861755 0.424546 0.047849
C26   C     C_R   0.516796 0.872648 0.439162 0.128473
C27   C     C_3   0.559249 0.797091 0.450363 -0.490880
C28   C     C_R   0.687521 0.409411 0.932606 -0.168055
C29   C     C_3   0.662195 0.897297 0.548859 -0.490236
C30   C     C_R   0.944616 0.605732 0.479146 0.155904
C31   C     C_R   0.898494 0.506045 0.384183 0.030211
C32   C     C_R   0.831228 0.409214 0.378348 -0.207776
C33   C     C_R   0.834820 0.410251 0.474148 -0.203382
C34   C     C_R   0.676127 0.501419 0.950520 -0.004633
C35   C     C_R   0.906687 0.507783 0.575264 0.033577
C36   C     C_R   0.949134 0.606669 0.573741 0.164927
C37   C     C_3   0.059232 0.706963 0.643646 -0.521204
C38   C     C_3   0.053834 0.706182 0.540346 -0.520768
C39   C     C_R   0.053668 0.033926 0.160696 0.158675
C40   C     C_R   0.937234 0.409994 0.685533 -0.123222
C41   C     C_R   0.100769 0.985526 0.108211 0.032202
C42   C     C_R   0.169430 0.047393 0.079998 -0.205777
C43   C     C_R   0.166584 0.139920 0.077667 -0.204724
C44   C     C_R   0.094139 0.169052 0.102269 0.034554
C45   C     C_R   0.994472 0.591862 0.298897 -0.157333
C46   C     C_R   0.049832 0.124266 0.157290 0.162012
C47   C     C_3   0.938728 0.083558 0.145345 -0.521217
C48   C     C_3   0.943502 0.985454 0.149890 -0.524739
C49   C     C_R   0.778615 0.592822 0.023962 -0.131914
C50   C     C_R   0.702342 0.196499 0.793197 0.200056
C51   C     C_R   0.093862 0.805467 0.004863 -0.143836
C52   C     C_R   0.064480 0.868715 0.067686 0.083330
C53   C     C_3   0.450921 0.324469 0.735597 -0.335017
C54   C     C_3   0.395054 0.227378 0.751204 -0.919018
C55   C     C_3   0.645744 0.148032 0.846882 -0.401786
C56   C     C_R   0.212535 0.409906 0.908943 -0.155188
C57   C     C_3   0.660911 0.052366 0.850517 -0.892627
C58   C     C_R   0.312931 0.750920 0.222928 -0.128484
C59   C     C_R   0.976111 0.254519 0.068892 -0.152830
C60   C     C_R   0.065481 0.249591 0.974279 -0.123066
H1    H     H_    0.985034 0.831777 0.161849 0.100171
H2    H     H_    0.358992 0.492827 0.778701 0.134213
H3    H     H_    0.816080 0.172201 0.638935 0.109866
H4    H     H_    0.305203 0.363705 0.771663 0.162068
H5    H     H_    0.530546 0.365499 0.980688 0.155767
H6    H     H_    0.371108 0.355036 0.954155 0.154676
H7    H     H_    0.662224 0.668611 0.082273 0.170605
H8    H     H_    0.622619 0.664270 0.952119 0.159853
H9    H     H_    0.474212 0.668085 0.955167 0.156358
H10   H     H_    0.516193 0.667668 0.083330 0.160742
H11   H     H_    0.604371 0.499337 0.094314 0.154172
H12   H     H_    0.185941 0.325862 0.853547 0.085036
H13   H     H_    0.445526 0.479891 0.082535 0.156476
H14   H     H_    0.498897 0.107511 0.630876 0.131475
H15   H     H_    0.051523 0.678766 0.803364 0.111797
H16   H     H_    0.335478 0.948396 0.476341 0.128237
H17   H     H_    0.513345 0.738739 0.471298 0.197375
H18   H     H_    0.570990 0.758750 0.380259 0.186312
H19   H     H_    0.676517 0.897384 0.627263 0.197347
H20   H     H_    0.733337 0.917137 0.535552 0.186400
H21   H     H_    0.786908 0.330889 0.304211 0.125061
H22   H     H_    0.792866 0.332649 0.470101 0.126726
H23   H     H_    0.378313 0.769345 0.204216 0.093712
H24   H     H_    0.058641 0.779080 0.697633 0.191149
H25   H     H_    0.123962 0.691182 0.684570 0.199491
H26   H     H_    0.049504 0.777539 0.534617 0.187605
H27   H     H_    0.625057 0.325281 0.883814 0.109535
H28   H     H_    0.115477 0.690233 0.523658 0.202079
H29   H     H_    0.214411 0.017772 0.046843 0.125008
H30   H     H_    0.209598 0.178226 0.042917 0.124717
H31   H     H_    0.937879 0.137449 0.217326 0.190957
H32   H     H_    0.875142 0.060241 0.064406 0.200357
H33   H     H_    0.946171 0.983332 0.224863 0.187441
H34   H     H_    0.949153 0.252113 0.127288 0.115877
H35   H     H_    0.882658 0.907486 0.071863 0.200112
H36   H     H_    0.885841 0.325593 0.621311 0.092758
H37   H     H_    0.801537 0.678556 0.057435 0.095389
H38   H     H_    0.154487 0.834760 0.982004 0.085404
H39   H     H_    0.013050 0.675184 0.345248 0.099009
H40   H     H_    0.451681 0.224842 0.818210 0.237248
H41   H     H_    0.327178 0.226323 0.765519 0.253617
H42   H     H_    0.361230 0.149667 0.675596 0.239500
H43   H     H_    0.394540 0.305738 0.653216 0.183487
H44   H     H_    0.523291 0.326140 0.730537 0.173291
H45   H     H_    0.118059 0.237914 0.942326 0.090490
H46   H     H_    0.618823 0.981753 0.766764 0.260708
H47   H     H_    0.748217 0.077928 0.890060 0.258569
H48   H     H_    0.626089 0.025248 0.898506 0.244082
H49   H     H_    0.680061 0.211769 0.932555 0.188163
H50   H     H_    0.558195 0.119958 0.803258 0.186379
H51   H     H_    0.197122 0.761333 0.377493 0.098154
H52   H     H_    0.844684 0.326291 0.179264 0.088073
H53   H     H_    0.355235 0.678217 0.029426 0.087754
H54   H     H_    0.508981 0.492717 0.783205 0.065418
N1    N     N_R   0.995640 0.706130 0.053910 -0.036803
N2    N     N_R   0.054010 0.556790 0.847890 -0.040105
N3    N     N_R   0.789940 0.443190 0.997130 -0.040116
N4    N     N_R   0.997630 0.443170 0.791110 -0.038201
N5    N     N_R   0.846320 0.556810 0.053910 -0.034280
N6    N     N_R   0.791080 0.293860 0.847890 -0.064619
N7    N     N_R   0.052880 0.706130 0.997130 -0.038151
N8    N     N_R   0.002370 0.556830 0.208890 -0.036488
N9    N     N_R   0.153680 0.443190 0.946090 -0.032006
N10   N     N_R   0.208920 0.706140 0.152110 -0.040123
N11   N     N_R   0.947120 0.293870 0.002870 -0.037876
N12   N     N_R   0.004360 0.293870 0.946090 -0.038233
N13   N     N_R   0.151690 0.706140 0.208890 -0.039827
N14   N     N_R   0.945990 0.443210 0.152110 -0.037556
N15   N     N_R   0.210060 0.556810 0.002870 -0.032273
N16   N     N_R   0.848310 0.293860 0.791110 -0.047200
Ni1   Ni    Ni4+2 0.999010 0.630300 0.130220 0.203069
Ni2   Ni    Ni4+2 0.000990 0.369700 0.869780 0.210794
Ni3   Ni    Ni4+2 0.130280 0.630280 0.000000 0.208316
Ni4   Ni    Ni4+2 0.869720 0.369720 0.000000 0.204017

loop_
_geom_bond_atom_site_label_1
_geom_bond_atom_site_label_2
_ccdc_geom_bond_type
N11   Ni4   S    
C40   N4    A    
N1    N7    A    
C48   H35   S    
N9    Ni2   S    
C27   C29   S    
C16   H15   S    
C47   H32   S    
C54   H41   S    
C35   C36   A    
C27   H18   S    
C39   C41   A    
C13   H5    S    
C53   C54   S    
C32   H21   S    
C4    H3    S    
C26   C27   S    
C13   C18   S    
C38   H26   S    
C50   N6    A    
C37   H25   S    
C36   C37   S    
C6    C45   A    
C28   N3    A    
N3    N5    A    
C30   C31   A    
C53   H44   S    
C23   C40   A    
C30   C38   S    
C41   C42   A    
C10   C53   S    
C8    C58   A    
C31   C32   A    
C56   H12   S    
N5    Ni1   S    
C14   H7    S    
C37   H24   S    
C59   H34   S    
C4    C12   A    
C33   H22   S    
C15   C34   S    
N6    Ni4   S    
C10   H54   S    
C4    N16   A    
C2    N13   A    
C3    C6    A    
C51   H38   S    
C5    N15   A    
C6    C31   S    
C28   C34   A    
C21   C22   A    
N9    N15   A    
C8    C25   S    
C54   H40   S    
C7    C56   A    
C40   H36   S    
N3    Ni4   S    
C16   N2    A    
C44   C46   A    
C20   C29   S    
C2    H51   S    
C43   H30   S    
C48   H33   S    
C51   C52   A    
C56   N9    A    
C24   C25   A    
C11   H4    S    
C45   H39   S    
C5    C7    A    
C3    N14   A    
C24   H16   S    
N1    Ni1   S    
N2    Ni3   S    
C13   H11   S    
C7    C17   S    
C25   C26   A    
C12   C21   S    
C38   H28   S    
C9    C59   A    
N16   Ni2   S    
C43   C44   A    
C37   C38   S    
N14   Ni4   S    
C47   C48   S    
C29   H19   S    
N12   Ni2   S    
C3    H52   S    
C28   H27   S    
C17   C18   S    
C9    C44   S    
C39   C46   A    
N15   Ni3   S    
N10   Ni3   S    
C57   H47   S    
C16   C23   A    
C23   C35   S    
C55   C57   S    
C55   H50   S    
N11   N12   A    
C51   N7    A    
N6    N16   A    
C19   H9    S    
C18   H6    S    
C42   C43   A    
C22   H14   S    
C17   C19   S    
N8    Ni1   S    
C46   C47   S    
C11   C17   S    
C34   C49   A    
C41   C52   S    
C5    H53   S    
C47   H31   S    
C14   C19   S    
C54   H42   S    
C2    C8    A    
C27   H17   S    
C1    H1    S    
C12   C50   A    
C45   N8    A    
C18   H13   S    
C11   H2    S    
C58   N10   A    
C50   C55   S    
C30   C36   A    
C10   C15   S    
C42   H29   S    
C32   C33   A    
C9    C60   A    
C13   C15   S    
C59   N11   A    
C49   N5    A    
C29   H20   S    
C20   C26   A    
C53   H43   S    
C60   N12   A    
C33   C35   A    
N2    N4    A    
C57   H46   S    
C22   C24   A    
N8    N14   A    
C1    C52   A    
N13   Ni1   S    
N4    Ni2   S    
C10   C11   S    
C49   H37   S    
C57   H48   S    
C20   C21   A    
N10   N13   A    
C14   H8    S    
C14   C15   S    
C19   H10   S    
C1    N1    A    
N7    Ni3   S    
C58   H23   S    
C55   H49   S    
C60   H45   S    
C39   C48   S    
