data_mof_unit_18927.cif
_audit_creation_date              2012-10-26T20:21:44-0400
_audit_creation_method            fapswitch 2.2
_symmetry_space_group_name_H-M    P1
_symmetry_Int_Tables_number       1
_space_group_crystal_system       triclinic
_cell_length_a                    15.22036
_cell_length_b                    15.580068
_cell_length_c                    9.505565
_cell_angle_alpha                 89.958164
_cell_angle_beta                  91.308827
_cell_angle_gamma                 90.47903
_cell_volume                      2253.42779177

loop_
_atom_site_label
_atom_site_type_symbol
_atom_type_description
_atom_site_fract_x
_atom_site_fract_y
_atom_site_fract_z
_atom_type_partial_charge
C1    C     C_R   0.117766 0.379916 0.501480 0.504845
C2    C     C_R   0.007729 0.575054 0.925794 0.012916
C3    C     C_R   0.007531 0.575086 0.074642 0.014036
C4    C     C_R   0.992372 0.424913 0.925345 0.066458
C5    C     C_R   0.492721 0.924923 0.074227 0.079560
C6    C     C_R   0.506756 0.075145 0.925721 0.021300
C7    C     C_R   0.506670 0.075160 0.074587 0.019718
C8    C     C_R   0.493256 0.924859 0.925396 0.069926
C9    C     C_R   0.733463 0.327978 0.427445 -0.011056
C10   C     C_R   0.263448 0.675725 0.584821 -0.005643
C11   C     C_R   0.173540 0.758692 0.415086 0.009448
C12   C     C_R   0.881868 0.619674 0.498224 0.598875
C13   C     C_R   0.832250 0.236193 0.569245 -0.001584
C14   C     C_R   0.245301 0.304564 0.616590 -0.012451
C15   C     C_R   0.753617 0.693334 0.381782 -0.023908
C16   C     C_R   0.813458 0.745829 0.609217 0.025161
C17   C     C_R   0.183698 0.251797 0.390965 0.004418
C18   C     C_R   0.240061 0.821440 0.410673 -0.038901
C19   C     C_R   0.767073 0.171792 0.569512 0.007531
C20   C     C_R   0.666154 0.265826 0.435968 0.005410
C21   C     C_R   0.329307 0.739305 0.582141 0.000669
C22   C     C_R   0.742357 0.801720 0.619593 -0.015411
C23   C     C_R   0.881447 0.381062 0.499023 0.487467
C24   C     C_R   0.251031 0.190862 0.384625 -0.024265
C25   C     C_R   0.316004 0.248098 0.605498 0.020915
C26   C     C_R   0.685268 0.753092 0.388714 0.000418
C27   C     C_R   0.185523 0.686308 0.503051 -0.016814
C28   C     C_R   0.814884 0.313590 0.497251 -0.071638
C29   C     C_R   0.816859 0.688700 0.493931 -0.009170
C30   C     C_R   0.182478 0.310388 0.504499 -0.056308
C31   C     C_R   0.684722 0.186954 0.503069 -0.052437
C32   C     C_R   0.316293 0.812251 0.496540 -0.063097
C33   C     C_R   0.316560 0.188361 0.493575 -0.032386
C34   C     C_R   0.119193 0.618475 0.501063 0.600369
C35   C     C_R   0.681762 0.809675 0.504761 -0.056374
C36   C     C_2   0.719922 0.408279 0.345807 0.344900
C37   C     C_2   0.278275 0.595622 0.665837 0.283445
C38   C     C_2   0.089749 0.771530 0.333713 0.282392
C39   C     C_2   0.919438 0.223242 0.641222 0.302414
C40   C     C_2   0.239844 0.359653 0.743502 0.272507
C41   C     C_2   0.757451 0.636020 0.256702 0.299985
C42   C     C_2   0.887940 0.753631 0.713668 0.284944
C43   C     C_2   0.111655 0.251972 0.281889 0.329213
C44   C     C_2   0.227371 0.901388 0.327876 0.289907
C45   C     C_R   0.617371 0.879529 0.501525 0.512645
C46   C     C_2   0.785010 0.087558 0.636043 0.296635
C47   C     C_2   0.574648 0.284908 0.385189 0.334552
C48   C     C_2   0.412953 0.729727 0.665832 0.308960
C49   C     C_2   0.734239 0.853552 0.749593 0.264382
C50   C     C_2   0.250933 0.129657 0.264176 0.297714
C51   C     C_2   0.393141 0.257883 0.704440 0.284202
C52   C     C_2   0.614335 0.753744 0.277834 0.330201
C53   C     C_R   0.381568 0.119371 0.498138 0.560948
C54   C     C_R   0.382116 0.880435 0.498989 0.497624
C55   C     C_R   0.618423 0.119149 0.501020 0.542773
C56   C     C_R   0.991972 0.424978 0.074201 0.071378
Cu1   Cu    Cu3+1 1.000000 0.500000 0.640660 0.995206
Cu2   Cu    Cu3+1 0.000000 0.500000 0.359340 0.994027
Cu3   Cu    Cu3+1 0.500000 0.000000 0.640660 0.991110
Cu4   Cu    Cu3+1 0.500000 0.000000 0.359340 0.974400
H1    H     H_    0.984985 0.364986 0.130075 0.142235
H2    H     H_    0.232357 0.576180 0.745465 0.118680
H3    H     H_    0.090416 0.791478 0.224562 0.156044
H4    H     H_    0.978403 0.251016 0.597311 0.098139
H5    H     H_    0.235194 0.428365 0.732994 0.149088
H6    H     H_    0.815880 0.634297 0.193677 0.141124
H7    H     H_    0.875904 0.760292 0.825020 0.142131
H8    H     H_    0.043712 0.255371 0.313717 0.091599
H9    H     H_    0.242637 0.962579 0.377036 0.146391
H10   H     H_    0.741920 0.063811 0.716425 0.110614
H11   H     H_    0.532143 0.234782 0.342821 0.114978
H12   H     H_    0.014175 0.635121 0.869967 0.152816
H13   H     H_    0.474462 0.752917 0.623778 0.103267
H14   H     H_    0.733850 0.922637 0.744252 0.138656
H15   H     H_    0.308325 0.123159 0.199786 0.144486
H16   H     H_    0.384295 0.269326 0.815538 0.156078
H17   H     H_    0.546020 0.755531 0.308121 0.094986
H18   H     H_    0.013261 0.635253 0.130853 0.127104
H19   H     H_    0.986494 0.364743 0.869098 0.157398
H20   H     H_    0.486223 0.864888 0.130096 0.144845
H21   H     H_    0.512321 0.135293 0.869794 0.152801
H22   H     H_    0.511790 0.135381 0.130738 0.113174
H23   H     H_    0.488191 0.864659 0.869211 0.161067
H24   H     H_    0.746411 0.468488 0.385837 0.125905
N1    N     N_R   1.000000 0.500000 0.852070 -0.246250
N2    N     N_R   0.000000 0.500000 0.147930 -0.240012
N3    N     N_R   0.500000 0.000000 0.852070 -0.247230
N4    N     N_R   0.500000 0.000000 0.147930 -0.238347
O1    O     O_R   0.090170 0.409820 0.618740 -0.523632
O2    O     O_R   0.409830 0.090180 0.381260 -0.548222
O3    O     O_R   0.409830 0.090180 0.618740 -0.467207
O4    O     O_R   0.590170 0.909820 0.381260 -0.491475
O5    O     O_R   0.409830 0.909820 0.381260 -0.513716
O6    O     O_R   0.590170 0.090180 0.618740 -0.500494
O7    O     O_R   0.590170 0.090180 0.381260 -0.510480
O8    O     O_R   0.409830 0.909820 0.618740 -0.505445
O9    O     O_2   0.682223 0.407002 0.231022 -0.409243
O10   O     O_2   0.342184 0.551137 0.643730 -0.453942
O11   O     O_2   0.018887 0.760956 0.388921 -0.454891
O12   O     O_R   0.909830 0.590180 0.381260 -0.521179
O13   O     O_2   0.925886 0.184238 0.752387 -0.444062
O14   O     O_2   0.237316 0.327740 0.860706 -0.472439
O15   O     O_2   0.693999 0.592271 0.220542 -0.420840
O16   O     O_2   0.963852 0.755754 0.674967 -0.448425
O17   O     O_2   0.127859 0.251808 0.156629 -0.427325
O18   O     O_2   0.204723 0.899294 0.203913 -0.466615
O19   O     O_2   0.847537 0.044610 0.600825 -0.452538
O20   O     O_2   0.544104 0.356749 0.396360 -0.408653
O21   O     O_2   0.413562 0.698715 0.783864 -0.446411
O22   O     O_2   0.725708 0.818516 0.863449 -0.466829
O23   O     O_R   0.909830 0.590180 0.618740 -0.475400
O24   O     O_2   0.185060 0.088008 0.232877 -0.432658
O25   O     O_2   0.467963 0.256147 0.661039 -0.488882
O26   O     O_2   0.631731 0.755807 0.153072 -0.421355
O27   O     O_R   0.090170 0.409820 0.381260 -0.496312
O28   O     O_R   0.909830 0.409820 0.381260 -0.526004
O29   O     O_R   0.090170 0.590180 0.618740 -0.509726
O30   O     O_R   0.090170 0.590180 0.381260 -0.484960
O31   O     O_R   0.909830 0.409820 0.618740 -0.504569
O32   O     O_R   0.590170 0.909820 0.618740 -0.522302

loop_
_geom_bond_atom_site_label_1
_geom_bond_atom_site_label_2
_ccdc_geom_bond_type
C10   C27   A    
C34   O30   A    
C11   C18   A    
Cu3   O32   S    
C12   C29   S    
C8    H23   S    
C19   C31   A    
C25   C51   S    
C37   H2    S    
Cu4   N4    S    
C19   C46   S    
Cu1   O23   S    
C22   C35   A    
C51   O25   D    
Cu1   O1    S    
C10   C37   S    
C26   C52   S    
C23   O31   A    
Cu2   O30   S    
C2    N1    A    
C43   O17   D    
C45   O4    A    
C54   O5    A    
C23   O28   A    
C5    N4    A    
C43   H8    S    
C53   O3    A    
C9    C36   S    
C16   C22   A    
C13   C28   A    
C15   C29   A    
C36   O9    D    
Cu3   O6    S    
C54   O8    A    
Cu1   O31   S    
C21   C48   S    
Cu4   O5    S    
C34   O29   A    
C48   O21   D    
Cu3   Cu4   S    
C10   C21   A    
C6    H21   S    
C4    C56   A    
C3    N2    A    
Cu2   O28   S    
C17   C30   A    
C44   O18   D    
C14   C30   A    
C55   O6    A    
C2    H12   S    
Cu2   N2    S    
C32   C54   S    
C37   O10   D    
C39   O13   D    
Cu4   O4    S    
C27   C34   S    
C33   C53   S    
C21   C32   A    
C17   C24   A    
C13   C39   S    
C13   C19   A    
Cu2   O12   S    
C51   H16   S    
C15   C41   S    
C4    H19   S    
C55   O7    A    
C15   C26   A    
C4    N1    A    
C16   C29   A    
C40   O14   D    
C6    N3    A    
C41   O15   D    
C12   O12   A    
C11   C38   S    
C17   C43   S    
C39   H4    S    
C18   C44   S    
C9    C20   A    
C56   N2    A    
C7    N4    A    
C11   C27   A    
C46   O19   D    
C50   O24   D    
C44   H9    S    
Cu3   O3    S    
C23   C28   S    
C5    H20   S    
C24   C50   S    
C47   H11   S    
C41   H6    S    
C22   C49   S    
C45   O32   A    
C52   O26   D    
C40   H5    S    
C42   H7    S    
C18   C32   A    
Cu3   O8    S    
C52   H17   S    
C35   C45   S    
C16   C42   S    
Cu1   O29   S    
C38   H3    S    
C1    O1    A    
C49   H14   S    
C48   H13   S    
C38   O11   D    
C42   O16   D    
C5    C8    A    
C6    C7    A    
Cu4   O2    S    
C24   C33   A    
C8    N3    A    
C2    C3    A    
C50   H15   S    
Cu1   Cu2   S    
Cu2   O27   S    
C36   H24   S    
C1    C30   S    
Cu1   N1    S    
C14   C25   A    
Cu3   N3    S    
C46   H10   S    
C20   C47   S    
C14   C40   S    
Cu4   O7    S    
C26   C35   A    
C7    H22   S    
C47   O20   D    
C53   O2    A    
C56   H1    S    
C1    O27   A    
C31   C55   S    
C3    H18   S    
C12   O23   A    
C9    C28   A    
C25   C33   A    
C49   O22   D    
C20   C31   A    
