data_mof_unit_56194.cif
_audit_creation_date              2012-12-10T20:49:46-0500
_audit_creation_method            fapswitch 2.2
_symmetry_space_group_name_H-M    P1
_symmetry_Int_Tables_number       1
_space_group_crystal_system       triclinic
_cell_length_a                    8.147578
_cell_length_b                    8.925309
_cell_length_c                    16.478128
_cell_angle_alpha                 90.000155
_cell_angle_beta                  83.30574
_cell_angle_gamma                 90.000175
_cell_volume                      1190.11422187

loop_
_atom_site_label
_atom_site_type_symbol
_atom_type_description
_atom_site_fract_x
_atom_site_fract_y
_atom_site_fract_z
_atom_type_partial_charge
C1    C     C_R   0.500000 0.781842 0.500000 0.913753
C2    C     C_R   0.500000 0.218138 0.500000 0.950379
C3    C     C_1   0.500000 0.934720 0.500000 -0.192339
C4    C     C_1   0.500000 0.065201 0.500000 -0.194666
C5    C     C_R   0.475055 0.507538 0.654622 0.902003
C6    C     C_R   0.524946 0.507534 0.345378 0.902002
C7    C     C_R   0.456847 0.554658 0.740664 -0.164794
C8    C     C_R   0.543166 0.554648 0.259335 -0.164801
C9    C     C_R   0.587831 0.538881 0.788326 0.513827
C10   C     C_R   0.412193 0.538865 0.211667 0.513822
C11   C     C_R   0.567660 0.590232 0.868770 -0.352350
C12   C     C_R   0.432380 0.590212 0.131222 -0.352337
C13   C     C_R   0.439485 0.690460 0.896203 0.088186
C14   C     C_R   0.560552 0.690447 0.103795 0.088196
C15   C     C_R   0.315977 0.718527 0.845039 0.151092
C16   C     C_R   0.684049 0.718518 0.154965 0.151083
C17   C     C_R   0.321103 0.643761 0.770060 -0.361640
C18   C     C_R   0.678913 0.643753 0.229943 -0.361636
C19   C     C_2   0.431654 0.756424 0.979876 0.079627
C20   C     C_2   0.568389 0.756417 0.020124 0.079621
H1    H     H_    0.341026 0.556867 0.092396 0.156614
H2    H     H_    0.659022 0.556889 0.907591 0.156617
H3    H     H_    0.773696 0.666513 0.268559 0.172347
H4    H     H_    0.226309 0.666519 0.731450 0.172352
N1    N     N_1   0.926360 0.500000 0.499990 -0.046759
N2    N     N_1   0.073640 0.500000 0.500010 -0.046754
O1    O     O_R   0.363150 0.714660 0.500000 -0.631267
O2    O     O_R   0.636850 0.285340 0.500000 -0.603523
O3    O     O_R   0.636850 0.714660 0.500000 -0.631271
O4    O     O_R   0.363150 0.285340 0.500000 -0.603523
O5    O     O_R   0.346950 0.500000 0.615800 -0.626278
O6    O     O_R   0.653050 0.500000 0.384200 -0.626273
O7    O     O_R   0.620700 0.500000 0.615800 -0.579898
O8    O     O_R   0.379300 0.500000 0.384200 -0.579888
Zn1   Zn    Zn3+2 0.317220 0.500000 0.500010 0.975015
Zn2   Zn    Zn3+2 0.682780 0.500000 0.499990 0.975017
N3    N     N_3   0.189145 0.826897 0.867199 -0.427918
H5    H     H_    0.074963 0.773030 0.870142 0.170822
H6    H     H_    0.194929 0.908052 0.821219 0.193921
N4    N     N_3   0.810879 0.826893 0.132809 -0.427917
H7    H     H_    0.925063 0.773028 0.129864 0.170835
H8    H     H_    0.805095 0.908041 0.178793 0.193932
O9    O     O_3   0.739165 0.483278 0.753936 -0.626987
C21   C     C_3   0.860746 0.598622 0.749285 0.092257
H9    H     H_    0.980406 0.546531 0.725824 0.171653
H10   H     H_    0.875993 0.642860 0.810909 0.114358
C22   C     C_3   0.826716 0.727634 0.690508 -0.348915
H11   H     H_    0.844357 0.686771 0.626626 0.254821
H12   H     H_    0.698114 0.769251 0.703956 0.214218
C23   C     C_3   0.940472 0.861692 0.696730 -0.962560
H13   H     H_    0.931507 0.902576 0.760692 0.262399
H14   H     H_    0.902290 0.954033 0.657819 0.283430
H15   H     H_    0.069897 0.832250 0.674386 0.263007
O10   O     O_3   0.260854 0.483266 0.246053 -0.626989
C24   C     C_3   0.139279 0.598613 0.250693 0.092251
H16   H     H_    0.019610 0.546525 0.274142 0.171631
H17   H     H_    0.124057 0.642853 0.189067 0.114366
C25   C     C_3   0.173290 0.727620 0.309478 -0.348845
H18   H     H_    0.155548 0.686768 0.373362 0.254766
H19   H     H_    0.301919 0.769187 0.296071 0.214238
C26   C     C_3   0.059630 0.861726 0.303208 -0.962595
H20   H     H_    0.068721 0.902609 0.239241 0.262416
H21   H     H_    0.097788 0.954048 0.342136 0.283435
H22   H     H_    0.930166 0.832338 0.325500 0.262983
N5    N     N_3   0.726569 0.803224 0.979068 -0.426682
H23   H     H_    0.716138 0.844322 0.920441 0.189613
H24   H     H_    0.807545 0.712020 0.974314 0.171784
N6    N     N_3   0.273478 0.803230 0.020935 -0.426680
H25   H     H_    0.283912 0.844322 0.079563 0.189608
H26   H     H_    0.192500 0.712027 0.025688 0.171785

loop_
_geom_bond_atom_site_label_1
_geom_bond_atom_site_label_2
_ccdc_geom_bond_type
C5    O5    A    
C26   H22   S    
C2    C4    S    
C24   H16   S    
C8    C10   A    
C15   C17   A    
N3    H5    S    
N4    H8    S    
C11   C13   A    
N2    Zn1   S    
C11   H2    S    
C23   H14   S    
C19   C20   D    
C21   C22   S    
C2    O4    A    
O9    C21   S    
C1    O1    A    
O1    Zn1   S    
C25   C26   S    
C1    O3    A    
C23   H13   S    
N1    N2    T    
C19   N6    S    
C22   H12   S    
C16   C18   A    
C9    C11   A    
O3    Zn2   S    
C6    O8    A    
C10   C12   A    
O4    Zn1   S    
C16   N4    S    
O6    Zn2   S    
N6    H26   S    
N4    H7    S    
C12   C14   A    
N5    H23   S    
C22   C23   S    
C14   C16   A    
C24   H17   S    
C13   C15   A    
C26   H20   S    
C10   O10   S    
O5    Zn1   S    
C9    O9    S    
C23   H15   S    
C2    O2    A    
C13   C19   S    
N1    Zn2   S    
C25   H19   S    
C18   H3    S    
C17   H4    S    
C14   C20   S    
C20   N5    S    
N3    H6    S    
O7    Zn2   S    
C21   H9    S    
O2    Zn2   S    
C7    C9    A    
O8    Zn1   S    
C24   C25   S    
C5    C7    S    
O10   C24   S    
C15   N3    S    
C6    O6    A    
C6    C8    S    
N5    H24   S    
C25   H18   S    
C12   H1    S    
C26   H21   S    
C8    C18   A    
C3    C4    T    
C22   H11   S    
C21   H10   S    
N6    H25   S    
C1    C3    S    
C7    C17   A    
C5    O7    A    
