data_mof_unit_48491.cif
_audit_creation_date              2012-12-10T20:42:40-0500
_audit_creation_method            fapswitch 2.2
_symmetry_space_group_name_H-M    P1
_symmetry_Int_Tables_number       1
_space_group_crystal_system       triclinic
_cell_length_a                    8.904995
_cell_length_b                    10.671745
_cell_length_c                    9.88759
_cell_angle_alpha                 89.761864
_cell_angle_beta                  90.002353
_cell_angle_gamma                 89.941363
_cell_volume                      939.627221115

loop_
_atom_site_label
_atom_site_type_symbol
_atom_type_description
_atom_site_fract_x
_atom_site_fract_y
_atom_site_fract_z
_atom_type_partial_charge
C1    C     C_R   0.504704 0.259988 0.500400 0.873001
C2    C     C_R   0.566486 0.935626 0.382255 -0.198185
C3    C     C_R   0.527798 0.871322 0.501060 -0.097542
C4    C     C_R   0.518520 0.935320 0.623042 0.092198
C5    C     C_3   0.403639 0.927063 0.732787 -0.486922
C6    C     C_3   0.406278 0.069255 0.735358 -0.002962
C7    C     C_R   0.369266 0.485068 0.070891 0.167276
C8    C     C_R   0.630919 0.502788 0.071787 -0.072410
C9    C     C_R   0.630905 0.503121 0.928184 -0.073980
C10   C     C_R   0.369432 0.483662 0.928663 0.258118
C11   C     C_3   0.233060 0.564545 0.919907 -0.567376
C12   C     C_R   0.218788 0.500210 0.499978 0.946255
C13   C     C_3   0.233031 0.567624 0.074079 -0.300471
C14   C     C_R   0.504439 0.739947 0.499844 0.893929
C15   C     C_R   0.781237 0.500119 0.500016 0.930555
C16   C     C_1   0.065444 0.500314 0.499977 -0.180560
C17   C     C_1   0.934605 0.500276 0.499996 -0.187699
C18   C     C_R   0.520317 0.063042 0.624178 0.124995
C19   C     C_R   0.528644 0.128510 0.502155 -0.138933
C20   C     C_R   0.566198 0.065297 0.382589 -0.190068
H1    H     H_    0.585594 0.114970 0.288420 0.197710
H2    H     H_    0.135560 0.512811 0.877665 0.203073
H3    H     H_    0.134415 0.519041 0.119294 0.158435
H4    H     H_    0.587328 0.886813 0.288315 0.191327
H5    H     H_    0.295007 0.888025 0.696879 0.185577
H6    H     H_    0.449316 0.881772 0.825462 0.258572
H7    H     H_    0.298716 0.112931 0.702604 0.144545
H8    H     H_    0.736572 0.508492 0.125195 0.149716
H9    H     H_    0.736544 0.509153 0.874753 0.148019
H10   H     H_    0.256068 0.655838 0.869194 0.230126
N1    N     N_R   0.499010 0.499140 0.142800 -0.108763
N2    N     N_R   0.499010 0.499180 0.857150 -0.097944
O1    O     O_R   0.500020 0.316790 0.614690 -0.597996
O2    O     O_R   0.500000 0.316760 0.385350 -0.617278
O3    O     O_R   0.285350 0.500020 0.614650 -0.624655
O4    O     O_R   0.285340 0.499980 0.385310 -0.612721
O5    O     O_R   0.500000 0.683240 0.614650 -0.617108
O6    O     O_R   0.499980 0.683210 0.385310 -0.604708
O7    O     O_R   0.714660 0.500020 0.614690 -0.626206
O8    O     O_R   0.714650 0.499980 0.385350 -0.626131
Zn1   Zn    Zn3+2 0.500010 0.500020 0.653130 0.968826
Zn2   Zn    Zn3+2 0.499990 0.499980 0.346870 0.980365
C21   C     C_2   0.261051 0.696305 0.131225 1.027368
O9    O     O_2   0.178743 0.736659 0.219908 -0.633035
O10   O     O_R   0.379443 0.769586 0.082182 -0.815635
H11   H     H_    0.382897 0.855428 0.125518 0.344162
I1    I     I_    0.499901 0.141988 0.918689 -0.394861

loop_
_geom_bond_atom_site_label_1
_geom_bond_atom_site_label_2
_ccdc_geom_bond_type
C7    C10   A    
N2    Zn1   S    
N1    Zn2   S    
C12   O4    A    
C11   C13   S    
C19   C20   A    
C11   H2    S    
O4    Zn2   S    
C6    H7    S    
O2    Zn2   S    
C9    H9    S    
C21   O9    D    
O1    Zn1   S    
C13   C21   S    
O8    Zn2   S    
C2    C3    A    
C1    O1    A    
O7    Zn1   S    
O10   H11   S    
C12   O3    A    
C2    H4    S    
C21   O10   S    
C15   O7    A    
C16   C17   T    
C3    C14   S    
O3    Zn1   S    
C1    O2    A    
O6    Zn2   S    
O5    Zn1   S    
C5    C6    S    
C8    H8    S    
C6    C18   S    
C5    H5    S    
C15   O8    A    
C1    C19   S    
C14   O6    A    
C10   C11   S    
C2    C20   A    
C5    H6    S    
C10   N2    A    
C7    C13   S    
C7    N1    A    
C20   H1    S    
C13   H3    S    
C18   C19   A    
C6    I1    S    
C15   C17   S    
C8    C9    A    
C9    N2    A    
C8    N1    A    
C4    C18   A    
C3    C4    A    
C12   C16   S    
C11   H10   S    
C4    C5    S    
C14   O5    A    
