data_mof_unit_25238.cif
_audit_creation_date              2013-03-05T15:50:33-0500
_audit_creation_method            fapswitch 2.2
_symmetry_space_group_name_H-M    P1
_symmetry_Int_Tables_number       1
_space_group_crystal_system       triclinic
_cell_length_a                    9.573058
_cell_length_b                    10.862755
_cell_length_c                    13.447933
_cell_angle_alpha                 92.897502
_cell_angle_beta                  72.738556
_cell_angle_gamma                 90.085546
_cell_volume                      1333.62147646

loop_
_atom_site_label
_atom_site_type_symbol
_atom_site_description
_atom_site_fract_x
_atom_site_fract_y
_atom_site_fract_z
_atom_type_partial_charge
O1    O     O_R   0.381190 0.680360 0.500010 -0.592101
O2    O     O_R   0.618760 0.680340 0.500000 -0.574369
C1    C     C_R   0.502219 0.737142 0.492552 0.802898
O3    O     O_R   0.323240 0.499990 0.650990 -0.581677
O4    O     O_R   0.560820 0.499960 0.650980 -0.581956
C2    C     C_R   0.421686 0.499472 0.699892 0.798015
Cu1   Cu    Cu3+1 0.359340 0.500010 0.500010 0.936954
Cu2   Cu    Cu3+1 0.640660 0.499990 0.499990 0.942048
O5    O     O_R   0.381240 0.319660 0.500000 -0.619162
O6    O     O_R   0.618810 0.319640 0.499990 -0.609652
O7    O     O_R   0.439180 0.500040 0.349020 -0.575883
O8    O     O_R   0.676760 0.500010 0.349010 -0.582742
C3    C     C_R   0.496089 0.262745 0.506954 0.770709
C4    C     C_R   0.578146 0.498471 0.300102 0.784167
C5    C     C_R   0.755618 0.357553 0.033021 -0.194579
H1    H     H_    0.813053 0.367699 0.175168 0.159466
H2    H     H_    0.757646 0.277284 0.843647 0.140089
H3    H     H_    0.846815 0.296117 0.994383 0.141352
C6    C     C_R   0.620943 0.478584 0.186693 -0.068677
C7    C     C_R   0.248874 0.580912 0.863521 -0.268391
C8    C     C_R   0.206309 0.604408 0.970310 -0.188866
C9    C     C_R   0.290675 0.562446 0.030835 0.339532
C10   C     C_R   0.426893 0.498909 0.981735 -0.036989
C11   C     C_R   0.459454 0.462480 0.873937 0.044318
C12   C     C_R   0.532377 0.469507 0.033843 0.087940
C13   C     C_R   0.652626 0.389492 0.982739 0.158997
C14   C     C_R   0.669129 0.341400 0.882058 -0.234174
C15   C     C_R   0.574548 0.377396 0.828332 -0.177370
C16   C     C_R   0.526397 0.520022 0.133435 -0.177929
C17   C     C_R   0.738482 0.400250 0.135214 -0.182284
C18   C     C_R   0.374233 0.509983 0.814352 -0.097315
H4    H     H_    0.448911 0.591532 0.172450 0.184138
H5    H     H_    0.182623 0.618293 0.819073 0.170389
H6    H     H_    0.103763 0.653072 0.006852 0.182775
H7    H     H_    0.591557 0.335511 0.750954 0.161037
H8    H     H_    0.723100 0.889172 0.494015 0.163590
C19   C     C_R   0.258180 0.881625 0.450746 -0.147085
H9    H     H_    0.271258 0.794142 0.406932 0.185522
C20   C     C_R   0.123136 0.941476 0.471566 -0.144576
H10   H     H_    0.034776 0.897220 0.449191 0.148890
C21   C     C_R   0.100823 0.056415 0.524117 -0.160942
H11   H     H_    0.993877 0.100460 0.545497 0.133451
C22   C     C_R   0.217749 0.116770 0.545926 -0.167667
H12   H     H_    0.193415 0.204127 0.589769 0.163726
C23   C     C_R   0.359970 0.062574 0.514651 0.100289
C24   C     C_R   0.373593 0.936611 0.482656 0.086363
C25   C     C_R   0.501266 0.871269 0.485046 -0.119340
C26   C     C_R   0.623353 0.936481 0.494434 -0.200224
H13   H     H_    0.718617 0.111455 0.504278 0.162501
C27   C     C_R   0.619365 0.063776 0.503632 -0.221384
C28   C     C_R   0.489225 0.128469 0.513177 -0.111734
H14   H     H_    0.824160 0.647124 0.612105 0.137957
C29   C     C_R   0.910480 0.329311 0.366824 -0.140286
H15   H     H_    0.805485 0.327855 0.355426 0.191421
C30   C     C_R   0.007043 0.240093 0.306783 -0.202860
H16   H     H_    0.971184 0.174344 0.256532 0.150081
C31   C     C_R   0.150296 0.237779 0.308459 -0.126789
H17   H     H_    0.226664 0.170454 0.259241 0.151470
C32   C     C_R   0.198013 0.325749 0.369159 -0.063370
H18   H     H_    0.312599 0.322518 0.357398 0.191277
C33   C     C_R   0.101334 0.414346 0.435808 0.221869
C34   C     C_R   0.951896 0.415242 0.435180 0.227751
N1    N     N_R   0.852480 0.498790 0.499000 -0.199849
C35   C     C_R   0.900483 0.580893 0.561623 -0.052013
H19   H     H_    0.083323 0.647463 0.611656 0.138629
C36   C     C_R   0.048648 0.581056 0.561412 -0.068107
N2    N     N_R   0.148360 0.498710 0.498970 -0.205002
N3    N     N_R   0.223888 0.568813 0.141304 0.090480
O9    O     O_R   0.209290 0.468274 0.191350 -0.382074
O10   O     O_R   0.152491 0.667725 0.187941 -0.392673

loop_
_geom_bond_atom_site_label_1
_geom_bond_atom_site_label_2
_geom_bond_distance
_ccdc_geom_bond_type
C5    H3    1.083983 S    
C10   C11   1.424605 A    
C24   C25   1.423688 A    
C19   H9    1.079761 S    
O4    Cu2   1.945806 S    
C21   C22   1.393536 A    
C21   H11   1.082873 S    
C33   N2    1.382382 A    
C25   C26   1.399919 A    
C19   C24   1.419548 A    
Cu2   O8    1.955879 S    
C22   H12   1.079338 S    
C30   H16   1.082942 S    
C10   C12   1.433967 A    
O2    C1    1.307694 A    
C13   C14   1.390271 A    
C11   C18   1.415956 A    
Cu1   Cu2   2.693013 S    
C19   C20   1.393440 A    
C30   C31   1.378514 A    
C3    C28   1.465492 S    
C29   H15   1.060728 S    
Cu1   O7    1.945807 S    
C22   C23   1.419393 A    
C9    N3    1.430583 S    
C31   H17   1.082996 S    
C34   N1    1.380251 A    
O1    Cu1   1.969923 S    
O3    Cu1   1.955879 S    
O4    C2    1.298901 A    
C7    H5    1.083840 S    
C26   C27   1.381621 A    
C15   H7    1.080794 S    
O8    C4    1.300542 A    
H8    C26   1.083476 S    
C16   H4    1.076325 S    
C29   C30   1.387914 A    
C12   C16   1.406568 A    
C33   C34   1.433161 A    
O7    C4    1.297069 A    
C32   C33   1.417493 A    
O3    C2    1.299573 A    
C31   C32   1.388994 A    
H19   C36   1.081769 S    
C23   C28   1.424100 A    
Cu2   N1    2.023911 S    
H1    C17   1.082093 S    
N1    C35   1.366862 A    
C6    C16   1.397591 A    
C23   C24   1.407878 A    
C32   H18   1.061179 S    
C36   N2    1.366506 A    
C7    C8    1.381842 A    
C20   C21   1.387787 A    
C5    C17   1.390202 A    
Cu2   O6    1.969922 S    
H13   C27   1.083536 S    
H14   C35   1.081737 S    
C1    C25   1.465781 S    
C14   C15   1.382946 A    
Cu1   O5    1.970584 S    
N3    O10   1.301775 A    
O5    C3    1.291778 A    
C20   H10   1.082755 S    
C5    C13   1.403596 A    
C2    C18   1.468359 S    
C8    H6    1.083333 S    
C27   C28   1.400365 A    
C12   C13   1.423389 A    
C8    C9    1.396892 A    
C6    C17   1.396584 A    
Cu1   N2    2.023942 S    
C4    C6    1.461723 S    
O6    C3    1.307403 A    
C9    C10   1.434723 A    
O2    Cu2   1.970585 S    
C11   C15   1.410336 A    
C29   C34   1.414918 A    
C35   C36   1.417556 A    
N3    O9    1.297412 A    
O1    C1    1.291538 A    
C7    C18   1.396914 A    
H2    C14   1.084246 S    
