data_mof_unit_30180.cif
_audit_creation_date              2012-12-10T16:39:27-0500
_audit_creation_method            fapswitch 2.2
_symmetry_space_group_name_H-M    P1
_symmetry_Int_Tables_number       1
_space_group_crystal_system       triclinic
_cell_length_a                    16.889533
_cell_length_b                    17.082533
_cell_length_c                    16.907003
_cell_angle_alpha                 66.336675
_cell_angle_beta                  66.215241
_cell_angle_gamma                 66.019968
_cell_volume                      3910.43697253

loop_
_atom_site_label
_atom_site_type_symbol
_atom_type_description
_atom_site_fract_x
_atom_site_fract_y
_atom_site_fract_z
_atom_type_partial_charge
C1    C     C_R   0.315439 0.998958 0.438109 -0.057904
C2    C     C_R   0.323329 0.452970 0.958997 -0.073487
C3    C     C_R   0.540100 0.409709 0.998856 -0.036607
C4    C     C_R   0.019368 0.452395 0.587474 -0.047266
C5    C     C_R   0.990767 0.540191 0.417437 -0.034583
C6    C     C_3   0.208894 0.050776 0.838825 -0.807750
C7    C     C_3   0.790664 0.962529 0.147776 -0.705427
C8    C     C_3   0.044633 0.836574 0.269191 -0.759213
C9    C     C_3   0.965505 0.153112 0.794082 -0.711223
C10   C     C_3   0.847236 0.195538 0.031300 -0.819618
C11   C     C_3   0.129547 0.747896 0.969940 -0.671227
C12   C     C_3   0.212358 0.881689 0.725461 -0.745483
C13   C     C_R   0.001073 0.685743 0.563003 -0.055793
C14   C     C_3   0.865298 0.048925 0.251090 -0.678050
C15   C     C_3   0.724944 0.213414 0.868442 -0.736793
C16   C     C_3   0.215751 0.858395 0.022642 -0.791856
C17   C     C_3   0.863162 0.726313 0.212701 -0.749568
C18   C     C_3   0.035062 0.270179 0.865075 -0.648022
C19   C     C_R   0.961612 0.321490 0.457713 -0.050660
C20   C     C_R   0.454270 0.006049 0.444812 0.005044
C21   C     C_R   0.544758 0.031970 0.535915 0.009099
C22   C     C_R   0.989836 0.451013 0.458428 0.004958
C23   C     C_R   0.010684 0.544491 0.549856 0.007520
C24   C     C_R   0.450951 0.451401 0.993548 -0.001725
C25   C     C_R   0.545154 0.545793 0.007659 0.009743
C26   C     C_R   0.966722 0.178726 0.436553 0.863228
C27   C     C_R   0.671983 0.064393 0.537826 -0.040339
C28   C     C_R   0.020398 0.823850 0.568944 0.905866
C29   C     C_R   0.178635 0.436432 0.965869 0.873890
C30   C     C_R   0.823731 0.568243 0.020738 0.905069
C31   C     C_R   0.437232 0.965780 0.178790 0.876384
C32   C     C_R   0.567639 0.025186 0.822158 0.900104
C33   C     C_R   0.566180 0.822792 0.025458 0.901226
C34   C     C_R   0.431865 0.176425 0.977533 0.900565
C35   C     C_R   0.035112 0.563105 0.821187 0.875839
C36   C     C_R   0.976668 0.432404 0.177195 0.895221
C37   C     C_R   0.821045 0.038796 0.561467 0.882042
C38   C     C_R   0.989974 0.441443 0.318120 -0.062022
C39   C     C_R   0.177164 0.977685 0.431835 0.899506
C40   C     C_R   0.409173 0.989639 0.401035 -0.021018
C41   C     C_R   0.590753 0.041309 0.583458 -0.017646
C42   C     C_R   0.979388 0.404781 0.411631 -0.019730
C43   C     C_R   0.021532 0.591613 0.594951 -0.022637
C44   C     C_R   0.405443 0.405916 0.981192 -0.019831
C45   C     C_R   0.592720 0.595394 0.011151 -0.044797
C46   C     C_R   0.271573 0.977507 0.395592 -0.120256
C47   C     C_R   0.722644 0.059981 0.591019 -0.132137
C48   C     C_R   0.974733 0.396659 0.272076 -0.124197
C49   C     C_R   0.050426 0.544881 0.673287 -0.046122
C50   C     C_R   0.049541 0.595537 0.723679 -0.129504
C51   C     C_R   0.396093 0.269429 0.976195 -0.120969
C52   C     C_R   0.599574 0.730407 0.023972 -0.098693
C53   C     C_R   0.602890 0.033790 0.725808 -0.129619
C54   C     C_R   0.407192 0.955231 0.275110 -0.120991
C55   C     C_R   0.731005 0.605064 0.016234 -0.117021
C56   C     C_R   0.275640 0.403913 0.953226 -0.126714
C57   C     C_R   0.020666 0.730549 0.605867 -0.124100
C58   C     C_R   0.955548 0.274886 0.406257 -0.122755
C59   C     C_R   0.486131 0.982301 0.721555 0.405219
C60   C     C_R   0.441312 0.313298 0.993595 -0.057216
C61   C     C_R   0.552261 0.959252 0.285830 0.422999
C62   C     C_R   0.962400 0.730430 0.489358 0.412017
C63   C     C_R   0.954676 0.287900 0.552299 0.420633
C64   C     C_R   0.731899 0.481038 0.969304 0.400289
C65   C     C_R   0.289813 0.546601 0.948822 0.468710
C66   C     C_R   0.270656 0.027694 0.517734 0.408745
C67   C     C_R   0.700977 0.087051 0.441610 0.426184
C68   C     C_R   0.522223 0.269842 0.021064 0.413066
C69   C     C_R   0.459284 0.723472 0.004542 0.417110
C70   C     C_R   0.014545 0.522566 0.275451 0.408761
C71   C     C_R   0.549028 0.684765 0.014793 0.025293
C72   C     C_R   0.077142 0.449562 0.699365 0.446451
C73   C     C_R   0.318900 0.953869 0.316895 -0.281433
C74   C     C_R   0.682832 0.055448 0.681033 -0.272572
C75   C     C_R   0.955953 0.316013 0.317449 -0.271962
C76   C     C_R   0.043561 0.684832 0.685276 -0.273773
C77   C     C_R   0.315744 0.315601 0.954811 -0.268927
C78   C     C_R   0.685927 0.687353 0.030712 -0.317626
C79   C     C_R   0.664785 0.060708 0.396187 -0.049412
C80   C     C_R   0.321403 0.011672 0.573780 -0.041014
C81   C     C_R   0.049096 0.404472 0.665182 -0.041066
C82   C     C_R   0.558607 0.020595 0.677988 -0.053985
C83   C     C_R   0.991781 0.579418 0.327190 -0.038912
C84   C     C_R   0.407506 0.668608 0.022510 -0.149585
C85   C     C_R   0.579610 0.319993 0.001384 -0.038570
C86   C     C_R   0.588034 0.000289 0.316531 -0.046557
C87   C     C_R   0.425465 0.999683 0.675198 -0.059542
C88   C     C_R   0.321150 0.583029 0.987382 -0.020102
C89   C     C_R   0.683360 0.422356 0.986798 -0.068221
C90   C     C_R   0.992273 0.321653 0.588839 -0.046564
C91   C     C_R   0.974461 0.682610 0.431836 -0.041492
C92   C     C_R   0.704409 0.059890 0.304266 0.166723
C93   C     C_R   0.457272 0.966240 0.319933 -0.052271
C94   C     C_R   0.284518 0.997343 0.667935 0.185894
C95   C     C_R   0.052153 0.312670 0.703823 0.173085
C96   C     C_R   0.975204 0.672726 0.290474 0.170477
C97   C     C_R   0.312980 0.703311 0.035011 0.105815
C98   C     C_R   0.673918 0.282454 0.986830 0.187465
C99   C     C_R   0.669127 0.024911 0.266430 0.201243
C100  C     C_R   0.335972 0.992350 0.719332 0.203732
C101  C     C_R   0.269690 0.661978 0.013864 0.222446
C102  C     C_R   0.726197 0.331667 0.984120 0.211879
C103  C     C_R   0.019283 0.272953 0.668687 0.201080
C104  C     C_R   0.686517 0.559390 0.999946 -0.045768
C105  C     C_R   0.965943 0.724502 0.342642 0.193400
C106  C     C_R   0.542154 0.014664 0.401387 -0.043845
C107  C     C_R   0.459796 0.016011 0.581325 -0.033634
C108  C     C_R   0.000351 0.408205 0.545185 -0.042512
C109  C     C_R   0.991911 0.589334 0.466358 -0.044937
C110  C     C_R   0.407670 0.538614 0.999566 -0.060194
C111  C     C_R   0.589553 0.458598 0.999251 -0.036792
C112  C     C_R   0.584275 0.035844 0.444250 -0.044873
C113  C     C_R   0.411475 0.012160 0.533181 -0.037251
C114  C     C_R   0.452688 0.583067 0.013153 0.002692
H1    H     H_    0.284342 0.940355 0.283984 0.187761
H2    H     H_    0.184110 0.096373 0.779801 0.273346
H3    H     H_    0.661024 0.043451 0.139813 0.278569
H4    H     H_    0.780559 0.922149 0.116973 0.243928
H5    H     H_    0.816091 0.916917 0.206686 0.255065
H6    H     H_    0.842283 0.995892 0.096887 0.224912
H7    H     H_    0.904685 0.860064 0.329924 0.272568
H8    H     H_    0.037344 0.906765 0.226770 0.216975
H9    H     H_    0.098701 0.792447 0.228068 0.246802
H10   H     H_    0.065033 0.827359 0.327811 0.262944
H11   H     H_    0.038421 0.146343 0.662244 0.278747
H12   H     H_    0.718874 0.060233 0.718676 0.193444
H13   H     H_    0.923171 0.120432 0.789579 0.239004
H14   H     H_    0.920294 0.211048 0.820878 0.269558
H15   H     H_    0.004973 0.104183 0.841658 0.225019
H16   H     H_    0.847785 0.325090 0.995707 0.269558
H17   H     H_    0.788934 0.173450 0.083254 0.282494
H18   H     H_    0.879776 0.154862 0.983275 0.259557
H19   H     H_    0.897312 0.182874 0.065249 0.223537
H20   H     H_    0.142420 0.701812 0.099715 0.243295
H21   H     H_    0.086585 0.716806 0.964101 0.261315
H22   H     H_    0.179568 0.764798 0.903734 0.254965
H23   H     H_    0.947028 0.281680 0.281203 0.195734
H24   H     H_    0.085317 0.810705 0.988269 0.192664
H25   H     H_    0.148562 0.017066 0.689788 0.270288
H26   H     H_    0.146883 0.867089 0.766338 0.228831
H27   H     H_    0.264682 0.835692 0.760556 0.247934
H28   H     H_    0.232026 0.870081 0.659044 0.243334
H29   H     H_    0.757543 0.167216 0.242195 0.269878
H30   H     H_    0.908848 0.093766 0.221922 0.217185
H31   H     H_    0.893915 0.001363 0.210736 0.220427
H32   H     H_    0.867010 0.012185 0.321706 0.278040
H33   H     H_    0.695487 0.148668 0.004866 0.268445
H34   H     H_    0.051557 0.720626 0.720693 0.194904
H35   H     H_    0.763423 0.148891 0.852107 0.230931
H36   H     H_    0.760470 0.264168 0.820606 0.262036
H37   H     H_    0.656585 0.234528 0.860128 0.238951
H38   H     H_    0.289703 0.780910 0.116143 0.241671
H39   H     H_    0.142269 0.875892 0.057938 0.239710
H40   H     H_    0.226043 0.855249 0.954732 0.266920
H41   H     H_    0.241990 0.912133 0.014203 0.246078
H42   H     H_    0.000564 0.692013 0.154236 0.276308
H43   H     H_    0.850701 0.764446 0.145988 0.233875
H44   H     H_    0.813107 0.762400 0.262970 0.258883
H45   H     H_    0.280795 0.280627 0.945028 0.194677
H46   H     H_    0.853755 0.659567 0.232482 0.241389
H47   H     H_    0.157663 0.247930 0.762581 0.262808
H48   H     H_    0.022426 0.206057 0.911567 0.211711
H49   H     H_    0.969632 0.322707 0.862055 0.267568
H50   H     H_    0.071610 0.289579 0.892724 0.257457
H51   H     H_    0.553153 0.882413 0.800142 0.345989
H52   H     H_    0.585707 0.855757 0.245511 0.330223
H53   H     H_    0.872220 0.823731 0.543054 0.333455
H54   H     H_    0.853214 0.244136 0.584729 0.328399
H55   H     H_    0.825138 0.532163 0.874020 0.338926
H56   H     H_    0.720561 0.720650 0.043269 0.196168
H57   H     H_    0.249655 0.574647 0.845386 0.321829
H58   H     H_    0.174727 0.122086 0.470340 0.335437
H59   H     H_    0.755622 0.173544 0.429270 0.321670
H60   H     H_    0.474640 0.177711 0.120116 0.335487
H61   H     H_    0.394438 0.814092 0.917821 0.361976
H62   H     H_    0.116993 0.476090 0.183103 0.337730
H63   H     H_    0.171273 0.438706 0.744927 0.320464
H64   H     H_    0.336032 0.971438 0.851656 0.288126
H65   H     H_    0.215537 0.091736 0.871624 0.228958
H66   H     H_    0.157592 0.015957 0.886965 0.251519
N1    N     N_2   0.295022 0.985513 0.813517 -0.296100
N2    N     N_2   0.261472 0.774352 0.076042 -0.308902
N3    N     N_2   0.954302 0.717155 0.206622 -0.299476
N4    N     N_2   0.089460 0.257956 0.777005 -0.290019
N5    N     N_2   0.706661 0.029691 0.173043 -0.285519
N6    N     N_2   0.960017 0.816340 0.299112 -0.290857
N7    N     N_2   0.027134 0.179951 0.706297 -0.284996
N8    N     N_2   0.819496 0.289563 0.983354 -0.285996
N9    N     N_2   0.173396 0.686672 0.039081 -0.256571
N10   N     N_2   0.202405 0.973443 0.713856 -0.287736
N11   N     N_2   0.774178 0.100814 0.246422 -0.285199
N12   N     N_2   0.718399 0.202220 0.960158 -0.298849
O1    O     O_R   0.982940 0.138950 0.510160 -0.592572
O2    O     O_R   0.982940 0.510160 0.138950 -0.590818
O3    O     O_R   0.861050 0.017060 0.489840 -0.584593
O4    O     O_R   0.138950 0.982940 0.510160 -0.594608
O5    O     O_R   0.867700 0.025880 0.612340 -0.630584
O6    O     O_R   0.132300 0.974120 0.387660 -0.633604
O7    O     O_R   0.025880 0.612340 0.867700 -0.631756
O8    O     O_R   0.974120 0.387660 0.132300 -0.631460
O9    O     O_R   0.612340 0.867700 0.025880 -0.638139
O10   O     O_R   0.387660 0.132300 0.974120 -0.635792
O11   O     O_R   0.387660 0.974120 0.132300 -0.636231
O12   O     O_R   0.017060 0.861050 0.489840 -0.598606
O13   O     O_R   0.612340 0.025880 0.867700 -0.637005
O14   O     O_R   0.132300 0.387660 0.974120 -0.631758
O15   O     O_R   0.867700 0.612340 0.025880 -0.632896
O16   O     O_R   0.974120 0.132300 0.387660 -0.621510
O17   O     O_R   0.025880 0.867700 0.612340 -0.632567
O18   O     O_3   0.490752 0.907549 0.794428 -0.741884
O19   O     O_3   0.613666 0.901214 0.235622 -0.759401
O20   O     O_3   0.899325 0.813653 0.482583 -0.767375
O21   O     O_3   0.898661 0.235731 0.612786 -0.758208
O22   O     O_3   0.814509 0.472623 0.903683 -0.767603
O23   O     O_R   0.138950 0.510160 0.982940 -0.577819
O24   O     O_3   0.241321 0.605320 0.888320 -0.759200
O25   O     O_3   0.186760 0.090500 0.529858 -0.781280
O26   O     O_3   0.758437 0.139851 0.391737 -0.772245
O27   O     O_3   0.534496 0.188655 0.086385 -0.784237
O28   O     O_3   0.433605 0.809489 0.951135 -0.696487
O29   O     O_3   0.081497 0.535125 0.194536 -0.760435
O30   O     O_3   0.137634 0.400260 0.749816 -0.778439
O31   O     O_R   0.861050 0.489840 0.017060 -0.605186
O32   O     O_R   0.510160 0.982940 0.138950 -0.592487
O33   O     O_R   0.489840 0.017060 0.861050 -0.589077
O34   O     O_R   0.489840 0.861050 0.017060 -0.554944
O35   O     O_R   0.510160 0.138950 0.982940 -0.598627
O36   O     O_R   0.017060 0.489840 0.861050 -0.584998
Zn1   Zn    Zn3+2 0.004880 0.004880 0.583590 0.981866
Zn2   Zn    Zn3+2 0.995120 0.995120 0.416410 0.972204
Zn3   Zn    Zn3+2 0.004880 0.583590 0.004880 0.982531
Zn4   Zn    Zn3+2 0.995120 0.416410 0.995120 0.960187
Zn5   Zn    Zn3+2 0.583590 0.004880 0.004880 0.978710
Zn6   Zn    Zn3+2 0.416410 0.995120 0.995120 0.988043

loop_
_geom_bond_atom_site_label_1
_geom_bond_atom_site_label_2
_ccdc_geom_bond_type
C105  N6    S    
C96   C105  A    
C38   C70   A    
C6    H65   S    
C3    C85   A    
C69   O28   S    
H61   O28   S    
C91   C105  A    
C94   C100  A    
C53   C74   A    
C7    H4    S    
C10   H19   S    
C13   C43   A    
C40   C93   A    
C15   N12   S    
C2    C65   A    
O15   Zn3   S    
C15   H37   S    
C88   C101  A    
C35   O7    A    
C97   N2    S    
C22   C108  A    
C106  C112  A    
C28   C57   S    
C33   C52   S    
H55   O22   S    
C4    C108  A    
C14   H31   S    
C34   C51   S    
C9    H13   S    
C79   C112  A    
O23   Zn3   S    
O33   Zn6   S    
C37   O3    A    
H20   N9    S    
C64   O22   S    
C11   H24   S    
C44   C60   A    
H53   O20   S    
C38   C42   A    
C66   O25   S    
C50   C76   A    
H3    N5    S    
C20   C113  A    
C81   C95   A    
H16   N8    S    
C95   N4    S    
C29   O23   A    
C13   C57   A    
C30   O15   A    
C23   C109  A    
C78   H56   S    
C70   O29   S    
C23   C43   A    
C12   H27   S    
O36   Zn4   S    
C64   C104  A    
C61   O19   S    
C26   O1    A    
C69   C71   A    
C17   H46   S    
O7    Zn3   S    
C10   H17   S    
C107  C113  A    
C54   C93   A    
C85   C98   A    
C1    C40   A    
H7    N6    S    
C18   H50   S    
C4    C81   A    
C19   C63   A    
C49   C72   A    
C10   N8    S    
C12   H26   S    
C100  N1    S    
C37   O5    A    
H63   O30   S    
C37   C47   S    
C17   H43   S    
C110  C114  A    
C31   O11   A    
C72   C81   A    
C59   O18   S    
C88   C110  A    
H25   N10   S    
C59   C82   A    
C68   C85   A    
C48   C75   A    
C3    C24   A    
C86   C106  A    
C64   C89   A    
C16   H41   S    
C52   C78   A    
O2    Zn3   S    
H42   N3    S    
C95   C103  A    
C58   C75   A    
C20   C106  A    
C19   C58   A    
O35   Zn5   S    
C14   H30   S    
C32   O33   A    
C9    H14   S    
H62   O29   S    
C5    C22   A    
C6    N1    S    
O14   Zn4   S    
C35   O36   A    
C28   O12   A    
C7    H5    S    
O1    Zn1   S    
C68   O27   S    
C24   C110  A    
C65   O24   S    
C98   N12   S    
C33   O34   A    
C75   H23   S    
C2    C44   A    
C86   C99   A    
C55   C78   A    
C25   C111  A    
C43   C49   A    
C8    N6    S    
C28   O17   A    
C98   C102  A    
C26   O16   A    
C55   C104  A    
C2    C56   A    
C102  N8    S    
C29   O14   A    
O3    Zn2   S    
C53   C82   A    
C11   N9    S    
H54   O21   S    
O32   Zn5   S    
C51   C77   A    
C70   C83   A    
C45   C104  A    
C11   H21   S    
H52   O19   S    
O10   Zn6   S    
C54   C73   A    
C18   H49   S    
C27   C41   A    
O9    Zn5   S    
C89   C102  A    
C20   C40   A    
C18   N4    S    
H33   N12   S    
C72   O30   S    
C62   C91   A    
C35   C50   S    
O6    Zn2   S    
C1    C66   A    
C67   C79   A    
O17   Zn1   S    
C63   O21   S    
H59   O26   S    
C26   C58   S    
C6    H2    S    
C79   C92   A    
C21   C107  A    
O11   Zn6   S    
C39   C46   S    
C21   C41   A    
H57   O24   S    
C13   C62   A    
C39   O6    A    
C77   H45   S    
C74   H12   S    
C9    H15   S    
C16   H40   S    
C24   C44   A    
C103  N7    S    
C84   C97   A    
C96   N3    S    
C80   C94   A    
O4    Zn1   S    
C25   C45   A    
C32   C53   S    
C15   H35   S    
C21   C112  A    
C12   N10   S    
O31   Zn4   S    
C57   C76   A    
C65   C88   A    
C87   C100  A    
C94   N10   S    
C27   C47   A    
C4    C23   A    
C89   C111  A    
C84   C114  A    
C6    H66   S    
C41   C82   A    
C38   C48   A    
C7    H6    S    
C7    N5    S    
C67   O26   S    
C8    H10   S    
C36   O8    A    
C47   C74   A    
C9    N7    S    
O34   Zn6   S    
C92   N11   S    
C8    H9    S    
C30   O31   A    
H60   O27   S    
C29   C56   S    
O5    Zn1   S    
C66   C80   A    
C30   C55   S    
C14   H32   S    
C39   O4    A    
C101  N9    S    
C73   H1    S    
C17   N3    S    
H11   N7    S    
C60   C68   A    
C91   C109  A    
H47   N4    S    
O13   Zn5   S    
C34   O35   A    
C90   C108  A    
C69   C84   A    
C17   H44   S    
C25   C114  A    
C18   H48   S    
C19   C42   A    
C8    H8    S    
C22   C42   A    
C5    C109  A    
C34   O10   A    
C36   O2    A    
C5    C83   A    
C83   C96   A    
C63   C90   A    
C33   O9    A    
C99   N5    S    
C12   H28   S    
C36   C48   S    
C16   N2    S    
C15   H36   S    
C31   C54   S    
O12   Zn2   S    
C1    C46   A    
C10   H18   S    
C90   C103  A    
H64   N1    S    
C27   C67   A    
C61   C86   A    
C56   C77   A    
C3    C111  A    
C31   O32   A    
C87   C107  A    
C80   C113  A    
C76   H34   S    
C49   C50   A    
C59   C87   A    
C16   H39   S    
C52   C71   A    
C62   O20   S    
C14   N11   S    
C45   C71   A    
C51   C60   A    
O8    Zn4   S    
H29   N11   S    
H51   O18   S    
C32   O13   A    
C11   H22   S    
C61   C93   A    
H38   N2    S    
C46   C73   A    
C97   C101  A    
H58   O25   S    
C92   C99   A    
O16   Zn2   S    
