data_mof_unit_16608.cif
_audit_creation_date              2012-12-10T17:35:33-0500
_audit_creation_method            fapswitch 2.2
_symmetry_space_group_name_H-M    P1
_symmetry_Int_Tables_number       1
_space_group_crystal_system       triclinic
_cell_length_a                    10.71291
_cell_length_b                    12.323802
_cell_length_c                    13.193891
_cell_angle_alpha                 116.682531
_cell_angle_beta                  77.448868
_cell_angle_gamma                 101.359567
_cell_volume                      1509.31887345

loop_
_atom_site_label
_atom_site_type_symbol
_atom_type_description
_atom_site_fract_x
_atom_site_fract_y
_atom_site_fract_z
_atom_type_partial_charge
C1    C     C_R   0.511412 0.854876 0.286585 0.814618
C2    C     C_3   0.121792 0.999443 0.499983 0.156174
C3    C     C_3   0.074688 0.121932 0.592586 -0.381525
C4    C     C_3   0.040194 0.893382 0.526432 -0.361631
C5    C     C_R   0.324253 0.276383 0.020607 -0.192047
C6    C     C_R   0.453321 0.228074 0.834492 -0.053651
C7    C     C_R   0.597302 0.815176 0.085358 -0.260598
C8    C     C_R   0.622760 0.736281 0.970328 0.656786
C9    C     C_R   0.576379 0.613052 0.932524 -0.282505
C10   C     C_R   0.498613 0.566697 0.009261 -0.005816
C11   C     C_R   0.460162 0.650470 0.123612 0.079299
C12   C     C_R   0.739878 0.999416 0.499740 0.761924
C13   C     C_R   0.456491 0.440170 0.975943 0.110806
C14   C     C_R   0.366826 0.401013 0.052777 0.165092
C15   C     C_R   0.318347 0.486778 0.159755 -0.243495
C16   C     C_R   0.362883 0.609766 0.194183 -0.173619
C17   C     C_R   0.501811 0.350947 0.868696 -0.252449
C18   C     C_R   0.366586 0.190223 0.911473 -0.187408
C19   C     C_R   0.519048 0.773108 0.163534 -0.209071
C20   C     C_R   0.705738 0.347518 0.328989 -0.364065
C21   C     C_R   0.325178 0.759258 0.645162 0.083569
C22   C     C_R   0.287355 0.662661 0.676810 -0.245618
C23   C     C_R   0.480774 0.145116 0.713404 0.790999
C24   C     C_R   0.353079 0.559385 0.622213 -0.188530
C25   C     C_R   0.458197 0.551449 0.534681 0.028839
C26   C     C_R   0.493568 0.653089 0.505329 0.292734
C27   C     C_R   0.529567 0.447174 0.475385 -0.024648
C28   C     C_R   0.634085 0.447294 0.388582 0.091106
C29   C     C_R   0.666949 0.546973 0.361537 -0.251430
C30   C     C_R   0.598507 0.647390 0.418608 -0.183415
C31   C     C_R   0.502494 0.341976 0.497885 -0.098581
C32   C     C_R   0.674332 0.247347 0.355174 0.792838
C33   C     C_R   0.260033 0.000078 0.500060 0.738511
C34   C     C_3   0.955666 0.981628 0.380959 -0.356962
C35   C     C_3   0.099793 0.981856 0.380981 -0.388728
C36   C     C_3   0.930486 0.121390 0.592745 -0.373749
C37   C     C_3   0.897344 0.892758 0.526012 -0.361380
C38   C     C_3   0.877754 0.998725 0.499876 0.130506
Cu1   Cu    Cu3+1 0.529690 0.098270 0.475420 0.978563
Cu2   Cu    Cu3+1 0.470310 0.901730 0.524580 0.924722
H1    H     H_    0.943870 0.056507 0.359756 0.213293
H2    H     H_    0.053579 0.903696 0.611827 0.175479
H3    H     H_    0.875882 0.134957 0.678822 0.158713
H4    H     H_    0.090007 0.136098 0.678678 0.155169
H5    H     H_    0.327655 0.095179 0.885816 0.152964
H6    H     H_    0.245704 0.458704 0.217327 0.144869
H7    H     H_    0.255467 0.246030 0.078745 0.141780
H8    H     H_    0.574316 0.374398 0.808888 0.150145
H9    H     H_    0.641536 0.908971 0.113655 0.216734
H10   H     H_    0.600551 0.557250 0.842193 0.160320
H11   H     H_    0.919125 0.893871 0.313186 0.154068
H12   H     H_    0.317149 0.672379 0.275691 0.165233
H13   H     H_    0.747017 0.547647 0.295352 0.148796
H14   H     H_    0.785679 0.347110 0.262447 0.163837
H15   H     H_    0.424766 0.333962 0.562244 0.148109
H16   H     H_    0.273645 0.839037 0.688082 0.123819
H17   H     H_    0.319699 0.487427 0.650189 0.133520
H18   H     H_    0.206799 0.667868 0.743942 0.152491
H19   H     H_    0.632023 0.718825 0.391661 0.201094
H20   H     H_    0.133027 0.894071 0.313422 0.152127
H21   H     H_    0.156715 0.056673 0.359593 0.179963
H22   H     H_    0.917818 0.199304 0.576282 0.179440
H23   H     H_    0.130837 0.199778 0.575613 0.169581
H24   H     H_    0.842318 0.902272 0.610991 0.197125
H25   H     H_    0.861094 0.803259 0.460154 0.166686
H26   H     H_    0.071887 0.803874 0.461184 0.168597
N1    N     N_R   0.574690 0.246280 0.438200 -0.227090
N2    N     N_R   0.426100 0.754320 0.561190 -0.208615
O1    O     O_R   0.537340 0.972510 0.318130 -0.529285
O2    O     O_R   0.487200 0.806530 0.359650 -0.609286
O3    O     O_R   0.707380 0.082980 0.479220 -0.536013
O4    O     O_R   0.657240 0.917000 0.520740 -0.606901
O5    O     O_R   0.512800 0.193470 0.640350 -0.590769
O6    O     O_R   0.462660 0.027490 0.681870 -0.580266
O7    O     O_R   0.342760 0.083000 0.479260 -0.591739
O8    O     O_R   0.292620 0.917020 0.520780 -0.604292
F1    F     F_    0.697113 0.778587 0.895423 -0.666838
F2    F     F_    0.743421 0.150625 0.297254 -0.679025

loop_
_geom_bond_atom_site_label_1
_geom_bond_atom_site_label_2
_ccdc_geom_bond_type
C2    C35   S    
C17   H8    S    
C7    C8    A    
C31   N1    A    
C5    H7    S    
C11   C19   A    
C34   H11   S    
C29   C30   A    
Cu2   O2    S    
C28   C29   A    
C15   C16   A    
C34   C35   S    
C33   O7    A    
C8    C9    A    
C37   H25   S    
Cu1   O7    S    
C9    C10   A    
C12   O4    A    
C21   C22   A    
C34   H1    S    
C23   O5    A    
C36   H22   S    
C6    C18   A    
C3    H4    S    
C1    C19   S    
C27   C31   A    
C24   C25   A    
C7    H9    S    
C20   H14   S    
Cu1   Cu2   S    
C24   H17   S    
C5    C18   A    
C20   C28   A    
C25   C26   A    
C1    O1    A    
Cu2   O8    S    
C35   H20   S    
C29   H13   S    
C2    C4    S    
C37   C38   S    
C11   C16   A    
C33   O8    A    
C30   H19   S    
Cu1   O1    S    
C35   H21   S    
C5    C14   A    
C32   N1    A    
C2    C33   S    
C12   O3    A    
C26   C30   A    
C7    C19   A    
C21   N2    A    
C8    F1    S    
C22   C24   A    
C23   O6    A    
C18   H5    S    
C37   H24   S    
C20   C32   A    
C6    C17   A    
Cu2   O4    S    
C34   C38   S    
Cu1   N1    S    
C9    H10   S    
C16   H12   S    
C10   C13   A    
C22   H18   S    
C21   H16   S    
C3    H23   S    
C25   C27   A    
C1    O2    A    
C13   C17   A    
C26   N2    A    
C36   C38   S    
C2    C3    S    
C4    H26   S    
C4    H2    S    
C3    C36   S    
C6    C23   S    
Cu2   O6    S    
Cu1   O5    S    
C12   C38   S    
C10   C11   A    
C32   F2    S    
C4    C37   S    
Cu2   N2    S    
C27   C28   A    
Cu1   O3    S    
C14   C15   A    
C36   H3    S    
C15   H6    S    
C31   H15   S    
C13   C14   A    
