data_mof_unit_33768.cif
_audit_creation_date              2012-12-11T17:17:01-0500
_audit_creation_method            fapswitch 2.2
_symmetry_space_group_name_H-M    P1
_symmetry_Int_Tables_number       1
_space_group_crystal_system       triclinic
_cell_length_a                    6.941509
_cell_length_b                    13.37308
_cell_length_c                    14.677191
_cell_angle_alpha                 98.86915
_cell_angle_beta                  89.847948
_cell_angle_gamma                 90.233343
_cell_volume                      1346.16911139

loop_
_atom_site_label
_atom_site_type_symbol
_atom_type_description
_atom_site_fract_x
_atom_site_fract_y
_atom_site_fract_z
_atom_type_partial_charge
O1    O     O_R   0.354890 0.151580 0.148210 -0.532881
O2    O     O_R   0.645110 0.848420 0.851790 -0.532882
O3    O     O_R   0.682370 0.152980 0.336770 -0.543634
O4    O     O_R   0.317630 0.847020 0.663230 -0.543633
O5    O     O_R   0.854980 0.348430 0.351800 -0.536863
O6    O     O_R   0.145020 0.651570 0.648200 -0.536862
C1    C     C_R   0.513390 0.131271 0.366430 0.676965
C2    C     C_R   0.486610 0.868729 0.633570 0.676965
O7    O     O_R   0.684450 0.139580 0.148000 -0.537852
O8    O     O_R   0.315550 0.860420 0.852000 -0.537852
O9    O     O_R   0.857080 0.334940 0.161680 -0.539601
O10   O     O_R   0.142920 0.665060 0.838320 -0.539601
C3    C     C_R   0.515525 0.112705 0.113998 0.750409
C4    C     C_R   0.484475 0.887295 0.886002 0.750409
O11   O     O_R   0.352790 0.165070 0.338330 -0.541797
O12   O     O_R   0.647210 0.834930 0.661670 -0.541797
O13   O     O_3   0.522170 0.314120 0.254710 -0.370100
O14   O     O_3   0.477830 0.685880 0.745290 -0.370100
V1    V     V_3+5 0.796120 0.238110 0.249130 1.432260
V2    V     V_3+5 0.203880 0.761890 0.750870 1.432260
O15   O     O_R   0.186930 0.347040 0.163240 -0.540431
O16   O     O_R   0.813070 0.652960 0.836760 -0.540431
C5    C     C_R   0.018270 0.368647 0.133670 0.696931
C6    C     C_R   0.981729 0.631352 0.866330 0.696930
O17   O     O_R   0.184850 0.360440 0.352010 -0.539558
O18   O     O_R   0.815150 0.639560 0.647990 -0.539558
C7    C     C_R   0.015834 0.387331 0.385983 0.727733
C8    C     C_R   0.984166 0.612668 0.614016 0.727733
V3    V     V_3+5 0.296410 0.261900 0.250880 1.435880
V4    V     V_3+5 0.703590 0.738100 0.749120 1.435880
O19   O     O_3   0.020490 0.185890 0.245290 -0.369396
O20   O     O_3   0.979510 0.814110 0.754710 -0.369396
C9    C     C_1   0.005151 0.466910 0.466342 -0.190769
C10   C     C_1   0.994849 0.533090 0.533658 -0.190770
C11   C     C_3   0.178993 0.532840 0.983709 -0.148071
C12   C     C_3   0.821007 0.467160 0.016291 -0.148071
C13   C     C_3   0.074976 0.550302 0.078887 -0.181314
C14   C     C_3   0.925024 0.449698 0.921113 -0.181315
H1    H     H_    0.135184 0.591734 0.144024 0.119314
H2    H     H_    0.864816 0.408266 0.855976 0.119314
H3    H     H_    0.326742 0.558998 0.969828 0.128565
H4    H     H_    0.673258 0.441002 0.030172 0.128565
C15   C     C_3   0.008332 0.438623 0.063025 -0.059883
C16   C     C_3   0.991668 0.561377 0.936975 -0.059884
C17   C     C_3   0.110469 0.421634 0.969125 0.009003
C18   C     C_3   0.889531 0.578366 0.030875 0.009003
C19   C     C_3   0.319332 0.026252 0.481468 -0.118144
C20   C     C_3   0.680668 0.973748 0.518532 -0.118144
C21   C     C_3   0.398047 0.916694 0.467623 -0.138556
C22   C     C_3   0.601953 0.083305 0.532377 -0.138556
H5    H     H_    0.313932 0.847503 0.441375 0.104434
H6    H     H_    0.686068 0.152497 0.558624 0.104434
H7    H     H_    0.170161 0.048014 0.465940 0.111182
H8    H     H_    0.829838 0.951986 0.534060 0.111182
C23   C     C_3   0.495696 0.938760 0.562717 -0.008086
C24   C     C_3   0.504304 0.061240 0.437282 -0.008086
C25   C     C_3   0.416958 0.047497 0.577364 -0.138962
C26   C     C_3   0.583042 0.952503 0.422636 -0.138962
H9    H     H_    0.348708 0.086269 0.641651 0.116028
H10   H     H_    0.651292 0.913731 0.358349 0.116028
C27   C     C_1   0.504927 0.033110 0.033652 -0.154809
C28   C     C_1   0.495072 0.966890 0.966348 -0.154809
C29   C     C_1   0.234002 0.335052 0.935162 0.262446
N1    N     N_1   0.331591 0.266782 0.908517 -0.380440
C30   C     C_1   0.765998 0.664948 0.064838 0.262446
N2    N     N_1   0.668409 0.733218 0.091483 -0.380440

loop_
_geom_bond_atom_site_label_1
_geom_bond_atom_site_label_2
_ccdc_geom_bond_type
C20   C23   S    
V4    O20   S    
O13   V3    S    
C12   H4    S    
O4    C2    A    
V1    O19   S    
C19   C21   S    
C7    C9    S    
C20   H8    S    
O9    V1    S    
C11   C13   S    
O3    C1    A    
C25   H9    S    
C26   H10   S    
C4    C28   S    
C5    C15   S    
O7    C3    A    
C14   C17   S    
O5    C7    A    
O7    V1    S    
O6    C8    A    
O8    V2    S    
C21   H5    S    
C22   H6    S    
O3    V1    S    
O14   V4    S    
C19   H7    S    
C20   C22   S    
C8    C10   S    
C2    O12   A    
C1    C24   S    
C11   H3    S    
C2    C23   S    
C16   C18   S    
O11   V3    S    
O17   V3    S    
C18   C30   S    
O8    C4    A    
C1    O11   A    
C21   C23   S    
O15   V3    S    
C17   C29   S    
C22   C24   S    
C21   C26   S    
C13   C15   S    
C14   C16   S    
C19   C25   S    
O10   V2    S    
O1    V3    S    
C9    C10   T    
C12   C18   S    
C11   C16   S    
C15   C17   S    
O18   V4    S    
C23   C25   S    
C6    C16   S    
O16   C6    A    
O1    C3    A    
C12   C14   S    
C11   C17   S    
V2    O20   S    
O16   V4    S    
C22   C25   S    
C20   C26   S    
O5    V1    S    
O17   C7    A    
O6    V2    S    
O10   C6    A    
O18   C8    A    
O2    V4    S    
O15   C5    A    
V3    O19   S    
C14   H2    S    
O9    C5    A    
O13   V1    S    
C24   C26   S    
O14   V2    S    
C27   C28   T    
O2    C4    A    
C29   N1    T    
O4    V2    S    
C3    C27   S    
C13   H1    S    
C30   N2    T    
C12   C15   S    
C13   C18   S    
O12   V4    S    
C19   C24   S    
