data_mof_unit_34079.cif
_audit_creation_date              2012-12-10T18:22:28-0500
_audit_creation_method            fapswitch 2.2
_symmetry_space_group_name_H-M    P1
_symmetry_Int_Tables_number       1
_space_group_crystal_system       triclinic
_cell_length_a                    23.48881
_cell_length_b                    10.644921
_cell_length_c                    9.427825
_cell_angle_alpha                 89.768621
_cell_angle_beta                  90.039783
_cell_angle_gamma                 88.448579
_cell_volume                      2356.41652567

loop_
_atom_site_label
_atom_site_type_symbol
_atom_type_description
_atom_site_fract_x
_atom_site_fract_y
_atom_site_fract_z
_atom_type_partial_charge
C1    C     C_R   0.500806 0.259527 0.500342 0.834753
C2    C     C_R   0.499282 0.740367 0.500000 0.806135
C3    C     C_R   0.234749 0.543064 0.397006 0.312347
C4    C     C_R   0.765175 0.491337 0.395168 0.313801
C5    C     C_R   0.294773 0.551270 0.390784 0.350426
C6    C     C_R   0.705883 0.479104 0.387014 0.355994
C7    C     C_R   0.328025 0.499278 0.502431 -0.232859
C8    C     C_R   0.671330 0.516572 0.502408 -0.235364
C9    C     C_R   0.301179 0.448242 0.621777 -0.446911
C10   C     C_R   0.696654 0.567115 0.623661 -0.442909
C11   C     C_R   0.241529 0.444690 0.630794 0.451758
C12   C     C_R   0.755932 0.580966 0.632242 0.462485
C13   C     C_R   0.208601 0.495992 0.519610 0.144057
C14   C     C_R   0.790194 0.536388 0.520162 0.131344
C15   C     C_3   0.494047 0.041360 0.635680 -0.220995
C16   C     C_3   0.505079 0.958952 0.366088 -0.269993
C17   C     C_3   0.543054 0.953248 0.582148 -0.338679
C18   C     C_3   0.455992 0.047202 0.420897 -0.342990
C19   C     C_3   0.498953 0.876895 0.500688 -0.108484
C20   C     C_3   0.500419 0.122860 0.501322 -0.095930
C21   C     C_3   0.450763 0.963541 0.553932 0.597519
C22   C     C_3   0.548484 0.035853 0.448350 0.589602
C23   C     C_R   0.390902 0.500954 0.500131 0.859065
C24   C     C_R   0.608953 0.503396 0.500108 0.862507
C25   C     C_3   0.528452 0.591362 0.048262 0.482674
C26   C     C_3   0.471100 0.408371 0.950865 0.429045
C27   C     C_3   0.477257 0.602265 0.949754 0.476654
C28   C     C_3   0.522362 0.397003 0.049794 0.525464
C29   C     C_3   0.551915 0.488574 0.949520 -0.320502
C30   C     C_3   0.447793 0.511127 0.051393 -0.416685
C31   C     C_R   0.880564 0.641089 0.535432 0.571996
C32   C     C_R   0.118006 0.392219 0.528373 0.574094
C33   C     C_R   0.878760 0.416712 0.540721 0.617483
C34   C     C_R   0.120054 0.616307 0.540529 0.617790
C35   C     C_R   0.938397 0.408280 0.542015 -0.041160
C36   C     C_R   0.060377 0.624839 0.543274 -0.040532
C37   C     C_R   0.969317 0.519714 0.542263 -0.016967
C38   C     C_R   0.029405 0.513478 0.541179 -0.016438
C39   C     C_R   0.940300 0.637333 0.541704 -0.031217
C40   C     C_R   0.058357 0.395912 0.536128 -0.030457
C41   C     C_R   0.967695 0.291436 0.540788 -0.162279
C42   C     C_R   0.031058 0.741653 0.546440 -0.163391
C43   C     C_R   0.027066 0.285328 0.536805 -0.171488
C44   C     C_R   0.971630 0.747856 0.544649 -0.169558
Cu1   Cu    Cu3+1 0.500010 0.499990 0.643150 0.997352
Cu2   Cu    Cu3+1 0.499990 0.500010 0.356850 1.039955
H1    H     H_    0.944864 0.204383 0.540646 0.185096
H2    H     H_    0.053906 0.828665 0.548211 0.184560
H3    H     H_    0.595185 0.479218 0.902867 0.169356
H4    H     H_    0.405086 0.518338 0.101066 0.202472
H5    H     H_    0.048308 0.193780 0.533884 0.182727
H6    H     H_    0.950370 0.839429 0.545056 0.182746
H7    H     H_    0.326874 0.412187 0.708958 0.202886
H8    H     H_    0.670129 0.594867 0.712548 0.179292
H9    H     H_    0.577962 0.912261 0.648643 0.140564
H10   H     H_    0.420856 0.088893 0.355742 0.146706
H11   H     H_    0.488791 0.077052 0.745329 0.184053
H12   H     H_    0.510327 0.923572 0.256129 0.177604
N1    N     N_R   0.851144 0.531721 0.534373 -0.419492
N2    N     N_R   0.147550 0.501399 0.530911 -0.416751
N3    N     N_3   0.500040 0.499970 0.858290 -0.230288
N4    N     N_3   0.499960 0.500030 0.141710 -0.228926
O1    O     O_R   0.500030 0.316850 0.620870 -0.561444
O2    O     O_R   0.499970 0.683150 0.379130 -0.560812
O3    O     O_R   0.500000 0.316860 0.379090 -0.544807
O4    O     O_R   0.500000 0.683140 0.620910 -0.532914
O5    O     O_R   0.417890 0.499960 0.620920 -0.552856
O6    O     O_R   0.582110 0.500040 0.379080 -0.489561
O7    O     O_R   0.417870 0.499970 0.379140 -0.561577
O8    O     O_R   0.582130 0.500030 0.620860 -0.615874
O9    O     O_2   0.852163 0.752795 0.527888 -0.559188
O10   O     O_2   0.146249 0.280698 0.516319 -0.561790
O11   O     O_2   0.848476 0.310778 0.544567 -0.531553
O12   O     O_2   0.150450 0.721944 0.546746 -0.537876
O13   O     O_3   0.457361 0.714947 0.884737 -0.570099
C45   C     C_3   0.404660 0.755515 0.942127 0.062626
H13   H     H_    0.399700 0.857614 0.921285 0.182637
H14   H     H_    0.403141 0.744163 0.059209 0.132094
C46   C     C_3   0.355154 0.691207 0.869363 -0.709496
H15   H     H_    0.359240 0.699681 0.752693 0.272591
H16   H     H_    0.354327 0.590091 0.897345 0.225125
H17   H     H_    0.314215 0.736496 0.902595 0.191105
O14   O     O_3   0.550646 0.293370 0.115856 -0.548205
C47   C     C_3   0.551227 0.184779 0.030127 0.050170
H18   H     H_    0.508269 0.160039 0.993511 0.161733
H19   H     H_    0.565811 0.105002 0.097972 0.193216
C48   C     C_3   0.592731 0.193011 0.905819 -0.859403
H20   H     H_    0.575827 0.258576 0.823530 0.269873
H21   H     H_    0.634743 0.225078 0.942882 0.255594
H22   H     H_    0.598489 0.098947 0.856580 0.209643
O15   O     O_3   0.559851 0.688774 0.108899 -0.547433
C49   C     C_3   0.582293 0.764853 0.000389 0.061575
H23   H     H_    0.548381 0.829106 0.957186 0.174202
H24   H     H_    0.601383 0.708684 0.912140 0.130342
C50   C     C_3   0.629068 0.844142 0.061613 -0.854310
H25   H     H_    0.662993 0.782684 0.109313 0.259269
H26   H     H_    0.647958 0.902199 0.976562 0.199010
H27   H     H_    0.611014 0.907167 0.144091 0.262252
O16   O     O_3   0.441138 0.310672 0.886495 -0.560804
C51   C     C_3   0.399036 0.267400 0.979839 0.001574
H28   H     H_    0.363083 0.337284 0.985658 0.146609
H29   H     H_    0.416341 0.249585 0.088524 0.151174
C52   C     C_3   0.376651 0.144617 0.923657 -0.807786
H30   H     H_    0.411610 0.072604 0.922769 0.238221
H31   H     H_    0.341796 0.111582 0.992784 0.195379
H32   H     H_    0.360233 0.157807 0.813935 0.265611
O17   O     O_3   0.200851 0.591352 0.288836 -0.557827
C53   C     C_3   0.194592 0.498414 0.184270 0.045157
H33   H     H_    0.173954 0.414067 0.229259 0.152767
H34   H     H_    0.236566 0.470176 0.137534 0.165831
C54   C     C_3   0.156786 0.552035 0.066391 -0.724345
H35   H     H_    0.177187 0.634138 0.016562 0.249861
H36   H     H_    0.149980 0.479993 0.983965 0.235027
H37   H     H_    0.114767 0.582290 0.110337 0.245128
O18   O     O_3   0.799355 0.444696 0.287243 -0.549250
C55   C     C_3   0.808812 0.541593 0.188377 0.061069
H38   H     H_    0.829736 0.622449 0.239635 0.143176
H39   H     H_    0.768028 0.574597 0.138507 0.173668
C56   C     C_3   0.848053 0.490778 0.072429 -0.705388
H40   H     H_    0.827475 0.412594 0.016054 0.262333
H41   H     H_    0.857399 0.565936 0.994707 0.223123
H42   H     H_    0.888809 0.455599 0.119715 0.239649
O19   O     O_3   0.321862 0.606229 0.276018 -0.590772
C57   C     C_3   0.299807 0.729035 0.248442 -0.267198
H43   H     H_    0.271640 0.727771 0.153975 0.207949
H44   H     H_    0.335544 0.791049 0.223602 0.133637
H45   H     H_    0.276495 0.773022 0.339335 0.175984
O20   O     O_3   0.682118 0.428581 0.266569 -0.552455
C58   C     C_3   0.684455 0.296673 0.280220 -0.150413
H46   H     H_    0.664602 0.265712 0.381112 0.177069
H47   H     H_    0.729017 0.259273 0.273512 0.176519
H48   H     H_    0.660379 0.255472 0.191679 0.213893
O21   O     O_3   0.213689 0.400474 0.750478 -0.570262
C59   C     C_3   0.237456 0.283884 0.796871 0.085642
H49   H     H_    0.273431 0.300584 0.870039 0.134952
H50   H     H_    0.252329 0.223537 0.706922 0.166878
C60   C     C_3   0.192754 0.211932 0.877973 -0.755903
H51   H     H_    0.154703 0.198846 0.810174 0.274904
H52   H     H_    0.210574 0.118237 0.909569 0.200795
H53   H     H_    0.179927 0.263736 0.975202 0.225235
O22   O     O_3   0.782118 0.627868 0.752672 -0.559264
C61   C     C_3   0.754044 0.739380 0.800143 0.084534
H54   H     H_    0.717952 0.715469 0.870503 0.137788
H55   H     H_    0.738072 0.799325 0.710346 0.148421
C62   C     C_3   0.795302 0.816871 0.885407 -0.755358
H56   H     H_    0.833437 0.837312 0.820583 0.276736
H57   H     H_    0.774144 0.907031 0.917009 0.199289
H58   H     H_    0.808723 0.765408 0.982823 0.223810
O23   O     O_3   0.400355 0.925168 0.620665 -0.578777
C63   C     C_3   0.363382 0.875973 0.518900 -0.349136
H59   H     H_    0.383174 0.793263 0.464663 0.165897
H60   H     H_    0.349493 0.948940 0.440683 0.157783
H61   H     H_    0.324516 0.844085 0.573480 0.195879
O24   O     O_3   0.598633 0.081482 0.387021 -0.600339
C64   C     C_3   0.644470 0.996185 0.412919 -0.406916
H62   H     H_    0.633238 0.897014 0.391483 0.181976
H63   H     H_    0.659773 0.005640 0.523837 0.181113
H64   H     H_    0.680124 0.019424 0.341242 0.195180

loop_
_geom_bond_atom_site_label_1
_geom_bond_atom_site_label_2
_ccdc_geom_bond_type
C48   H20   S    
C64   H63   S    
C18   C21   S    
C15   H11   S    
C53   H33   S    
C23   O7    A    
C4    O18   S    
C36   C42   A    
C50   H25   S    
C45   C46   S    
O20   C58   S    
C59   C60   S    
C62   H56   S    
C50   H27   S    
C24   O8    A    
O19   C57   S    
C32   O10   S    
C13   N2    S    
C29   H3    S    
Cu1   Cu2   S    
C12   O22   S    
C14   N1    S    
C60   H52   S    
C42   H2    S    
Cu2   N4    S    
C45   H14   S    
C57   H44   S    
C28   C29   S    
C35   C37   A    
C26   N3    S    
C47   H19   S    
C11   O21   S    
C30   N4    S    
C31   N1    A    
O18   C55   S    
C55   H38   S    
C15   C17   S    
C23   O5    A    
C49   H23   S    
Cu2   O7    S    
C27   N3    S    
C33   C35   A    
C52   H31   S    
C40   C43   A    
O16   C51   S    
C28   O14   S    
C53   H34   S    
C63   H61   S    
Cu1   O5    S    
C1    O3    A    
O17   C53   S    
C47   C48   S    
C21   O23   S    
C52   H32   S    
C17   H9    S    
C18   C20   S    
C3    C13   A    
C18   H10   S    
C26   O16   S    
C58   H48   S    
C44   H6    S    
C31   O9    S    
C30   H4    S    
C33   N1    A    
C64   H64   S    
C34   N2    A    
C41   C43   A    
C61   C62   S    
C42   C44   A    
C27   O13   S    
C1    O1    A    
C51   H29   S    
C62   H57   S    
C2    O2    A    
C56   H41   S    
C25   C29   S    
C15   C20   S    
C60   H53   S    
C29   N3    S    
C25   O15   S    
C55   C56   S    
C47   H18   S    
Cu2   O3    S    
C4    C6    A    
O15   C49   S    
C5    C7    A    
C17   C19   S    
C6    C8    A    
C3    O17   S    
C2    C19   S    
Cu1   O1    S    
C49   C50   S    
Cu2   O2    S    
Cu1   O4    S    
O13   C45   S    
Cu2   O6    S    
C37   C38   A    
O14   C47   S    
C49   H24   S    
C41   H1    S    
C54   H36   S    
C16   C18   S    
C16   H12   S    
C45   H13   S    
C9    C11   A    
O24   C64   S    
C59   H49   S    
C35   C41   A    
C10   C12   A    
C34   O12   S    
C57   H45   S    
C33   O11   S    
C20   C22   S    
C26   C30   S    
C32   C40   A    
C48   H21   S    
O21   C59   S    
C63   H60   S    
C9    H7    S    
C32   N2    A    
C52   H30   S    
C62   H58   S    
C46   H16   S    
C58   H46   S    
C22   O24   S    
C56   H42   S    
C7    C9    A    
C1    C20   S    
C16   C22   S    
C54   H35   S    
C19   C21   S    
Cu1   O8    S    
C61   H54   S    
C12   C14   A    
C3    C5    A    
C46   H17   S    
C59   H50   S    
C56   H40   S    
C50   H26   S    
C2    O4    A    
C39   C44   A    
C25   C27   S    
C60   H51   S    
C5    O19   S    
C26   C28   S    
C17   C22   S    
C53   C54   S    
C36   C38   A    
C6    O20   S    
C37   C39   A    
O22   C61   S    
C38   C40   A    
C11   C13   A    
C43   H5    S    
C16   C19   S    
C7    C23   S    
Cu1   N3    S    
C51   H28   S    
C8    C24   S    
C55   H39   S    
C54   H37   S    
C34   C36   A    
C25   N4    S    
C51   C52   S    
C4    C14   A    
C10   H8    S    
C24   O6    A    
C46   H15   S    
C15   C21   S    
C8    C10   A    
C48   H22   S    
C64   H62   S    
C31   C39   A    
C63   H59   S    
C58   H47   S    
O23   C63   S    
C61   H55   S    
C57   H43   S    
C27   C30   S    
C28   N4    S    
