data_mof_unit_5725.cif
_audit_creation_date              2012-12-11T17:29:54-0500
_audit_creation_method            fapswitch 2.2
_symmetry_space_group_name_H-M    P1
_symmetry_Int_Tables_number       1
_space_group_crystal_system       triclinic
_cell_length_a                    18.879892
_cell_length_b                    19.279998
_cell_length_c                    20.381933
_cell_angle_alpha                 107.242766
_cell_angle_beta                  105.993279
_cell_angle_gamma                 112.070361
_cell_volume                      5905.8238653

loop_
_atom_site_label
_atom_site_type_symbol
_atom_type_description
_atom_site_fract_x
_atom_site_fract_y
_atom_site_fract_z
_atom_type_partial_charge
C1    C     C_R   0.081469 0.088261 0.352225 -0.146497
C2    C     C_R   0.243581 0.071214 0.549416 -0.091213
C3    C     C_R   0.154068 0.222032 0.710583 -0.226476
C4    C     C_R   0.755247 0.926705 0.493506 -0.158813
C5    C     C_R   0.006128 0.768456 0.438034 -0.162983
C6    C     C_R   0.230714 0.272257 0.712530 -0.045153
C7    C     C_R   0.963196 0.722259 0.467728 0.205575
C8    C     C_R   0.252340 0.001727 0.543136 0.042384
C9    C     C_R   0.020201 0.980118 0.726114 0.059043
C10   C     C_R   0.033452 0.659120 0.526637 0.104618
C11   C     C_R   0.963610 0.649501 0.468991 -0.149303
C12   C     C_R   0.747551 0.995759 0.528088 0.096758
C13   C     C_R   0.894614 0.571791 0.412510 0.389183
C14   C     C_R   0.894419 0.499454 0.411789 -0.013839
C15   C     C_R   0.964278 0.506905 0.468149 -0.065047
C16   C     C_R   0.838488 0.816296 0.280865 -0.090276
C17   C     C_R   0.033693 0.586387 0.525965 0.091133
C18   C     C_R   0.826258 0.419788 0.355923 -0.095717
C19   C     C_R   0.826923 0.347981 0.355312 -0.235798
C20   C     C_R   0.895681 0.354697 0.410141 0.144711
C21   C     C_R   0.964726 0.434330 0.466738 0.085712
C22   C     C_R   0.034245 0.441056 0.522169 0.132278
C23   C     C_R   0.756143 0.792487 0.273464 0.034026
C24   C     C_R   0.101864 0.518606 0.578923 -0.208497
C25   C     C_R   0.101576 0.590675 0.581229 -0.184952
C26   C     C_R   0.896734 0.283100 0.409920 -0.268300
C27   C     C_R   0.966380 0.291963 0.464982 0.102741
C28   C     C_R   0.950707 0.196164 0.522031 -0.127682
C29   C     C_R   0.034753 0.369598 0.520545 -0.256912
C30   C     C_R   0.333797 0.929676 0.571896 -0.250199
C31   C     C_R   0.331204 0.004082 0.584130 0.115620
C32   C     C_R   0.407297 0.080605 0.621734 -0.249166
C33   C     C_R   0.481304 0.081236 0.623790 0.157293
C34   C     C_R   0.969179 0.221356 0.469329 0.045073
C35   C     C_R   0.481424 0.004922 0.598293 0.013342
C36   C     C_R   0.409996 0.929263 0.579803 0.062734
C37   C     C_R   0.551345 0.155758 0.641140 -0.180401
C38   C     C_R   0.615306 0.152924 0.621581 -0.211080
C39   C     C_R   0.611210 0.075733 0.587059 0.066334
C40   C     C_R   0.760415 0.809325 0.345945 -0.085680
C41   C     C_R   0.549304 0.003401 0.583988 0.011675
C42   C     C_R   0.551233 0.928217 0.560346 0.110306
C43   C     C_R   0.486556 0.855619 0.553088 -0.263948
C44   C     C_R   0.414701 0.854640 0.561250 0.210384
C45   C     C_R   0.229625 0.229174 0.644285 0.400720
C46   C     C_R   0.665198 0.068012 0.553274 0.126879
C47   C     C_R   0.675279 0.996503 0.540882 0.071210
C48   C     C_R   0.617895 0.927063 0.544151 -0.281996
C49   C     C_R   0.293017 0.360095 0.767602 0.149478
C50   C     C_R   0.268939 0.412339 0.808077 -0.190770
C51   C     C_R   0.329935 0.494119 0.862638 -0.201807
C52   C     C_R   0.029177 0.202328 0.456952 -0.090972
C53   C     C_R   0.416152 0.524950 0.877282 0.154217
C54   C     C_R   0.439557 0.474312 0.832908 0.196516
C55   C     C_R   0.378050 0.391716 0.780019 -0.167477
C56   C     C_R   0.929230 0.762615 0.504224 -0.095037
C57   C     C_R   0.615084 0.729412 0.070426 -0.167495
C58   C     C_R   0.687353 0.767543 0.138832 -0.182066
C59   C     C_R   0.533904 0.683600 0.065827 0.226123
C60   C     C_R   0.679829 0.761084 0.203662 0.142005
C61   C     C_R   0.598493 0.723042 0.200740 -0.161477
C62   C     C_R   0.526234 0.685294 0.132382 -0.170260
C63   C     C_R   0.089398 0.032623 0.227968 -0.000030
C64   C     C_R   0.826587 0.065669 0.560287 -0.131720
C65   C     C_R   0.129591 0.986905 0.208256 -0.314433
C66   C     C_R   0.164231 0.994363 0.156840 0.482884
C67   C     C_R   0.176361 0.932019 0.485216 -0.126788
C68   C     C_R   0.159828 0.049280 0.125383 0.089625
C69   C     C_R   0.124520 0.098441 0.148394 -0.296602
C70   C     C_R   0.086379 0.089146 0.197418 0.228912
C71   C     C_R   0.166568 0.043693 0.927040 -0.198987
C72   C     C_R   0.134504 0.045546 0.857916 -0.191962
C73   C     C_R   0.126151 0.970681 0.935234 0.175520
C74   C     C_R   0.062155 0.974666 0.795515 0.107487
C75   C     C_R   0.029034 0.898985 0.800612 -0.231148
C76   C     C_R   0.012825 0.949290 0.287395 -0.145358
C77   C     C_R   0.061374 0.895923 0.869723 0.199428
C78   C     C_R   0.033581 0.053048 0.718649 -0.127116
C79   C     C_R   0.055202 0.023192 0.283145 0.083438
C80   C     C_3   0.106069 0.746420 0.588555 -0.345146
C81   C     C_3   0.095312 0.769138 0.662251 -0.881535
C82   C     C_3   0.699610 0.128108 0.520130 -0.382532
C83   C     C_3   0.674325 0.082241 0.434854 -0.836186
C84   C     C_3   0.344761 0.773292 0.548864 -0.382661
C85   C     C_3   0.280618 0.720115 0.464934 -0.871213
C86   C     C_3   0.530687 0.504307 0.844538 -0.410909
C87   C     C_3   0.541043 0.514428 0.775686 -0.828721
C88   C     C_3   0.038802 0.136234 0.210798 -0.380246
C89   C     C_R   0.964217 0.913192 0.654309 -0.131256
C90   C     C_3   0.958445 0.101135 0.138583 -0.873342
C91   C     C_3   0.019816 0.813932 0.873551 -0.376802
C92   C     C_3   0.035561 0.748824 0.825607 -0.859135
Cl1   Cl    Cl    0.809492 0.566869 0.342651 -0.677780
Cl2   Cl    Cl    0.212456 0.934511 0.132956 -0.647086
Cl3   Cl    Cl    0.284915 0.276244 0.598607 -0.725276
H1    H     H_    0.129074 0.152867 0.373585 0.125832
H2    H     H_    0.709751 0.861830 0.473520 0.097359
H3    H     H_    0.773768 0.287228 0.311882 0.140592
H4    H     H_    0.844216 0.221234 0.367858 0.135689
H5    H     H_    0.087703 0.373794 0.563243 0.149761
H6    H     H_    0.154980 0.523556 0.621886 0.139198
H7    H     H_    0.155336 0.648920 0.627087 0.143658
H8    H     H_    0.275109 0.871777 0.548606 0.129577
H9    H     H_    0.407694 0.139452 0.637654 0.125242
H10   H     H_    0.553063 0.215181 0.663397 0.134723
H11   H     H_    0.667107 0.211259 0.632839 0.127637
H12   H     H_    0.884031 0.737824 0.525610 0.104850
H13   H     H_    0.858857 0.811997 0.236014 0.093158
H14   H     H_    0.623522 0.871271 0.532162 0.134279
H15   H     H_    0.489773 0.798373 0.537031 0.141205
H16   H     H_    0.748902 0.799381 0.139884 0.117252
H17   H     H_    0.623038 0.731095 0.020184 0.126029
H18   H     H_    0.397577 0.351137 0.750336 0.158445
H19   H     H_    0.590060 0.717880 0.249768 0.118605
H20   H     H_    0.310230 0.532322 0.895155 0.144503
H21   H     H_    0.464331 0.650598 0.129785 0.127040
H22   H     H_    0.912245 0.208621 0.549221 0.106531
H23   H     H_    0.161866 0.867784 0.464776 0.095496
H24   H     H_    0.203370 0.389808 0.798466 0.126484
H25   H     H_    0.164347 0.103777 0.854729 0.126832
H26   H     H_    0.218698 0.101423 0.975506 0.146890
H27   H     H_    0.120801 0.139696 0.122859 0.158070
H28   H     H_    0.974616 0.842916 0.752354 0.126275
H29   H     H_    0.133901 0.945071 0.232826 0.180077
H30   H     H_    0.708673 0.799283 0.361494 0.089499
H31   H     H_    0.062670 0.220407 0.424337 0.108150
H32   H     H_    0.848873 0.126627 0.604710 0.088551
H33   H     H_    0.997054 0.887614 0.248943 0.106452
H34   H     H_    0.074274 0.116618 0.763070 0.099886
H35   H     H_    0.034847 0.770161 0.651560 0.251954
H36   H     H_    0.094747 0.723410 0.685008 0.258214
H37   H     H_    0.148675 0.832313 0.706035 0.257459
H38   H     H_    0.168873 0.750914 0.599423 0.171526
H39   H     H_    0.110580 0.796504 0.571128 0.192787
H40   H     H_    0.708328 0.047290 0.424423 0.256778
H41   H     H_    0.604710 0.038152 0.403246 0.264704
H42   H     H_    0.691102 0.128530 0.411848 0.243405
H43   H     H_    0.672849 0.170589 0.523857 0.200957
H44   H     H_    0.769114 0.169875 0.552148 0.174397
H45   H     H_    0.941746 0.847922 0.639318 0.089534
H46   H     H_    0.251318 0.754483 0.444411 0.253300
H47   H     H_    0.312339 0.703170 0.429453 0.263479
H48   H     H_    0.229527 0.661659 0.457956 0.252316
H49   H     H_    0.372526 0.736797 0.567305 0.193923
H50   H     H_    0.311930 0.785297 0.584835 0.178652
H51   H     H_    0.501115 0.453495 0.723399 0.278326
H52   H     H_    0.522599 0.560331 0.766438 0.258992
H53   H     H_    0.608488 0.537705 0.786103 0.242376
H54   H     H_    0.575903 0.565221 0.896012 0.202104
H55   H     H_    0.549439 0.458340 0.853185 0.193310
H56   H     H_    0.289396 0.135204 0.589625 0.137413
H57   H     H_    0.974395 0.108817 0.091746 0.255411
H58   H     H_    0.916054 0.033614 0.119802 0.259652
H59   H     H_    0.923858 0.135216 0.150594 0.251900
H60   H     H_    0.019001 0.133179 0.256536 0.192745
H61   H     H_    0.080948 0.203597 0.228708 0.193300
H62   H     H_    0.004993 0.732585 0.764178 0.250605
H63   H     H_    0.104872 0.773119 0.844579 0.268993
H64   H     H_    0.008020 0.690896 0.832444 0.253752
H65   H     H_    0.044257 0.821811 0.932950 0.224529
H66   H     H_    0.950286 0.789756 0.852373 0.185950
H67   H     H_    0.127545 0.241308 0.748498 0.120882
H68   H     H_    0.032268 0.749742 0.399509 0.115706
H69   H     H_    0.771867 0.411934 0.312260 0.189622
N1    N     N_R   0.052570 0.055840 0.395080 -0.037565
N2    N     N_2   0.462348 0.622230 0.995406 -0.097670
N3    N     N_2   0.175317 0.046873 0.061136 -0.064801
N4    N     N_R   0.834730 0.954500 0.499860 -0.043386
N5    N     N_2   0.134241 0.974512 0.007791 -0.058024
N6    N     N_R   0.890190 0.849120 0.355200 -0.038977
N7    N     N_R   0.997110 0.161210 0.539740 -0.045606
N8    N     N_R   0.841940 0.845190 0.395070 -0.039171
N9    N     N_R   0.045360 0.165140 0.499870 -0.032768
N10   N     N_R   0.877490 0.041590 0.539730 -0.042570
N11   N     N_R   0.009810 0.968740 0.355210 -0.047003
N12   N     N_R   0.954640 0.834860 0.500130 -0.051819
N13   N     N_R   0.158060 0.154810 0.604930 -0.077598
N14   N     N_R   0.122510 0.958410 0.460270 -0.044799
N15   N     N_R   0.990190 0.031260 0.644790 -0.040267
N16   N     N_R   0.947430 0.944160 0.604920 -0.042340
N17   N     N_R   0.165270 0.045500 0.500140 -0.033617
N18   N     N_R   0.109810 0.150880 0.644800 -0.058202
N19   N     N_R   0.002890 0.838790 0.460260 -0.049531
N20   N     N_2   0.481963 0.600200 0.942374 -0.103601
Ni1   Ni    Ni4+2 0.104370 0.104380 0.500010 0.278215
Ni2   Ni    Ni4+2 0.895630 0.895620 0.499990 0.223994
Ni3   Ni    Ni4+2 0.006290 0.904630 0.408560 0.226834
Ni4   Ni    Ni4+2 0.993710 0.095370 0.591440 0.203386

loop_
_geom_bond_atom_site_label_1
_geom_bond_atom_site_label_2
_ccdc_geom_bond_type
N12   N19   A    
C66   C68   A    
C63   C65   A    
C38   H11   S    
C87   H51   S    
C27   C29   A    
C41   C42   A    
C14   C18   A    
C35   C36   A    
C76   C79   A    
C40   N8    A    
C3    C6    A    
C70   C88   S    
C85   H48   S    
C81   H35   S    
C80   H39   S    
N3    N5    D    
C63   C79   S    
C84   H50   S    
N4    N10   A    
N7    N9    A    
N9    Ni1   S    
C26   C27   A    
C82   H44   S    
C87   H52   S    
N7    Ni4   S    
C56   N12   A    
C92   H64   S    
C75   H28   S    
C88   H61   S    
C22   C29   A    
C78   H34   S    
C18   C19   A    
C28   H22   S    
C86   H55   S    
C30   C31   A    
C12   C64   A    
C25   H7    S    
C57   C59   A    
C57   H17   S    
C84   H49   S    
C10   C17   A    
C58   C60   A    
C23   C40   A    
N13   Ni1   S    
C92   H63   S    
C24   H6    S    
C46   C47   A    
C89   N16   A    
C3    H67   S    
N10   Ni4   S    
C46   C82   S    
C18   H69   S    
C47   C48   A    
C53   C54   A    
N8    Ni2   S    
C68   C69   A    
N6    Ni3   S    
C32   H9    S    
C43   H15   S    
C13   C14   A    
C4    C12   A    
C83   H40   S    
C45   N13   A    
C26   H4    S    
C66   Cl2   S    
C64   H32   S    
C48   H14   S    
C28   C34   A    
C4    H2    S    
C61   C62   A    
C7    C56   A    
C12   C47   S    
C67   H23   S    
C19   H3    S    
C27   C34   S    
C23   C60   S    
N4    Ni2   S    
C74   C75   A    
C6    C45   A    
C58   H16   S    
C88   H60   S    
N2    N20   D    
C84   C85   S    
C90   H57   S    
C87   H53   S    
C53   N20   S    
C9    C89   A    
C91   C92   S    
C54   C86   S    
C16   N6    A    
N17   Ni1   S    
C86   C87   S    
C81   H37   S    
C42   C48   A    
N15   Ni4   S    
C55   H18   S    
C49   C55   A    
C82   C83   S    
C51   H20   S    
C80   H38   S    
C78   N15   A    
C13   Cl1   S    
C60   C61   A    
C51   C53   A    
C2    N17   A    
C30   H8    S    
C7    C11   S    
C43   C44   A    
C56   H12   S    
C37   H10   S    
C37   C38   A    
N19   Ni3   S    
C28   N7    A    
C31   C32   A    
C63   C70   A    
C1    N1    A    
C89   H45   S    
C72   H25   S    
C50   C51   A    
C91   H65   S    
N18   Ni4   S    
C24   C25   A    
C90   H58   S    
C75   C77   A    
C83   H41   S    
C59   N2    S    
N16   Ni2   S    
C39   C46   A    
C85   H46   S    
N14   Ni3   S    
C72   C74   A    
C88   C90   S    
C65   C66   A    
C16   C23   A    
C10   C11   A    
C1    C79   A    
C22   C24   A    
C36   C44   A    
C90   H59   S    
C42   C43   A    
C73   N5    S    
C45   Cl3   S    
C5    H68   S    
C83   H42   S    
C5    C7    A    
C2    H56   S    
C15   C17   A    
C54   C55   A    
C77   C91   S    
C59   C62   A    
C10   C80   S    
C29   H5    S    
C8    C31   S    
C71   H26   S    
C76   N11   A    
C2    C8    A    
C80   C81   S    
C44   C84   S    
C67   N14   A    
C85   H47   S    
N12   Ni2   S    
N15   N16   A    
N1    N11   A    
C34   C52   A    
C30   C36   A    
C17   C25   A    
C32   C33   A    
C19   C20   A    
C71   C72   A    
C82   H43   S    
C11   C13   A    
C52   H31   S    
C57   C58   A    
C38   C39   A    
C20   C26   A    
C69   H27   S    
C91   H66   S    
C1    H1    S    
C76   H33   S    
C40   H30   S    
C86   H54   S    
C33   C35   A    
C33   C37   A    
C9    C78   A    
C6    C49   S    
C69   C70   A    
C35   C41   A    
C3    N18   A    
N1    Ni1   S    
N14   N17   A    
C81   H36   S    
C62   H21   S    
C16   H13   S    
N11   Ni3   S    
C50   H24   S    
C65   H29   S    
C68   N3    S    
C4    N4    A    
C15   C21   A    
C20   C21   A    
C39   C41   A    
C8    C67   A    
C49   C50   A    
C9    C74   S    
C71   C73   A    
C61   H19   S    
C73   C77   A    
C14   C15   A    
C92   H62   S    
N6    N8    A    
C21   C22   A    
C64   N10   A    
C52   N9    A    
C5    N19   A    
N13   N18   A    
