data_mof_unit_48261.cif
_audit_creation_date              2012-12-11T17:39:23-0500
_audit_creation_method            fapswitch 2.2
_symmetry_space_group_name_H-M    P1
_symmetry_Int_Tables_number       1
_space_group_crystal_system       triclinic
_cell_length_a                    15.014733
_cell_length_b                    15.031287
_cell_length_c                    15.087172
_cell_angle_alpha                 109.077573
_cell_angle_beta                  109.654847
_cell_angle_gamma                 109.61038
_cell_volume                      2623.42546186

loop_
_atom_site_label
_atom_site_type_symbol
_atom_type_description
_atom_site_fract_x
_atom_site_fract_y
_atom_site_fract_z
_atom_type_partial_charge
C1    C     C_R   0.906905 0.968665 0.720190 -0.129927
C2    C     C_R   0.909662 0.700727 0.503453 0.610900
C3    C     C_R   0.701890 0.795387 0.200683 -0.106844
C4    C     C_R   0.089586 0.315127 0.548177 -0.099578
C5    C     C_R   0.255832 0.940946 0.530863 -0.124129
C6    C     C_R   0.636687 0.704793 0.198342 0.112278
C7    C     C_R   0.284091 0.959708 0.456298 0.052569
C8    C     C_R   0.999567 0.702335 0.574289 -0.086407
C9    C     C_R   0.991764 0.061519 0.195301 0.116057
C10   C     C_R   0.513532 0.602422 0.424793 -0.070824
C11   C     C_R   0.489734 0.672995 0.392780 -0.178440
C12   C     C_R   0.996755 0.325254 0.528103 0.052319
C13   C     C_R   0.475343 0.751409 0.458757 0.097663
C14   C     C_R   0.483206 0.756347 0.556161 -0.119463
C15   C     C_R   0.505655 0.684768 0.587002 -0.058586
C16   C     C_R   0.282741 0.221220 0.810866 -0.140290
C17   C     C_R   0.520952 0.607944 0.521422 -0.093451
C18   C     C_R   0.367332 0.843078 0.433618 -0.236642
C19   C     C_R   0.348093 0.921900 0.414702 0.060672
C20   C     C_R   0.399483 0.969216 0.365623 0.033267
C21   C     C_R   0.472608 0.943114 0.345212 -0.234221
C22   C     C_R   0.513493 0.889630 0.392392 0.055093
C23   C     C_R   0.325560 0.322985 0.820124 0.133827
C24   C     C_R   0.452452 0.828297 0.426728 0.032713
C25   C     C_R   0.318956 0.039300 0.252424 -0.238946
C26   C     C_R   0.304975 0.123845 0.244475 -0.131679
C27   C     C_R   0.373963 0.230731 0.331063 -0.042914
C28   C     C_R   0.694317 0.989457 0.400769 -0.138259
C29   C     C_R   0.454785 0.252418 0.428130 -0.183233
C30   C     C_R   0.465605 0.167087 0.438719 -0.156023
C31   C     C_R   0.396189 0.060074 0.351240 0.120704
C32   C     C_R   0.722348 0.252865 0.217695 -0.127643
C33   C     C_R   0.813588 0.320943 0.321666 -0.152265
C34   C     C_R   0.629710 0.924903 0.428045 0.067536
C35   C     C_R   0.800719 0.343995 0.413274 0.120535
C36   C     C_R   0.695621 0.294663 0.399107 -0.166189
C37   C     C_R   0.605175 0.222981 0.294618 -0.117548
C38   C     C_R   0.618279 0.203279 0.204192 -0.134708
C39   C     C_R   0.899661 0.527815 0.563362 -0.255796
C40   C     C_R   0.280343 0.311439 0.718582 -0.139541
C41   C     C_R   0.998966 0.622926 0.612874 0.068120
C42   C     C_R   0.095664 0.623706 0.671133 0.115863
C43   C     C_R   0.091117 0.524163 0.649934 -0.162491
C44   C     C_R   0.994108 0.426725 0.566737 0.049996
C45   C     C_R   0.695125 0.704354 0.290963 -0.155443
C46   C     C_R   0.896373 0.429289 0.521681 -0.005629
C47   C     C_R   0.289612 0.748490 0.730845 0.724646
C48   C     C_R   0.379362 0.853985 0.791412 -0.283080
C49   C     C_R   0.383961 0.935475 0.874389 -0.202132
C50   C     C_R   0.299490 0.911590 0.898121 -0.111975
C51   C     C_R   0.207861 0.807291 0.835718 -0.227603
C52   C     C_R   0.696812 0.903592 0.495721 -0.145893
C53   C     C_R   0.201063 0.725676 0.749972 -0.094401
C54   C     C_2   0.398086 0.515534 0.925702 -0.125061
C55   C     C_2   0.401086 0.425302 0.918974 -0.181333
C56   C     C_R   0.248003 0.028257 0.435726 -0.131181
C57   C     C_2   0.480618 0.620704 0.021284 -0.111274
C58   C     C_2   0.523875 0.627593 0.117721 -0.218716
C59   C     C_R   0.386389 0.283807 0.116774 -0.116602
C60   C     C_R   0.277975 0.203648 0.067373 -0.194043
C61   C     C_R   0.194737 0.230422 0.050542 0.191764
C62   C     C_R   0.221974 0.338860 0.083605 -0.033394
C63   C     C_R   0.330762 0.419311 0.135825 -0.102549
C64   C     C_R   0.906857 0.221261 0.465330 -0.125133
C65   C     C_R   0.413179 0.391909 0.153260 -0.138123
C66   C     C_R   0.078160 0.163501 0.120112 0.659825
C67   C     C_R   0.089880 0.793735 0.598943 -0.220247
C68   C     C_R   0.982957 0.089176 0.108463 -0.119829
C69   C     C_R   0.885924 0.030156 0.006389 -0.037884
C70   C     C_R   0.893514 0.026769 0.916976 -0.242014
C71   C     C_R   0.994959 0.077241 0.924810 0.000994
C72   C     C_R   0.087631 0.154335 0.028979 -0.198041
C73   C     C_R   0.714852 0.855017 0.923794 -0.174851
C74   C     C_R   0.612220 0.797467 0.910734 -0.140299
C75   C     C_R   0.569570 0.853379 0.960476 -0.101112
C76   C     C_R   0.089211 0.054301 0.811996 -0.142922
C77   C     C_R   0.627650 0.966855 0.020265 -0.132755
C78   C     C_R   0.905775 0.998432 0.200845 -0.147598
C79   C     C_R   0.728885 0.024906 0.031029 -0.177036
C80   C     C_R   0.774768 0.969082 0.986345 0.161421
C81   C     C_R   0.998319 0.039672 0.823707 0.106272
C82   C     C_3   0.776617 0.545581 0.349329 -0.346209
C83   C     C_R   0.086597 0.095545 0.289377 -0.116593
F1    F     F_    0.284544 0.671986 0.647439 -0.728561
F2    F     F_    0.163142 0.243972 0.220104 -0.741448
H1    H     H_    0.821908 0.937333 0.695990 0.095669
H2    H     H_    0.485945 0.669206 0.318675 0.111093
H3    H     H_    0.172721 0.379981 0.589845 0.110216
H4    H     H_    0.473531 0.816619 0.609051 0.116337
H5    H     H_    0.511850 0.689361 0.662111 0.129737
H6    H     H_    0.321221 0.798050 0.461093 0.145918
H7    H     H_    0.510374 0.982148 0.308752 0.126267
H8    H     H_    0.263864 0.956869 0.185282 0.132428
H9    H     H_    0.236510 0.104427 0.173059 0.141638
H10   H     H_    0.363750 0.296371 0.323796 0.184342
H11   H     H_    0.507710 0.334807 0.495478 0.120257
H12   H     H_    0.244908 0.054180 0.377754 0.137598
H13   H     H_    0.526044 0.183681 0.515213 0.120160
H14   H     H_    0.547506 0.150452 0.123658 0.094653
H15   H     H_    0.311104 0.201715 0.873826 0.102713
H16   H     H_    0.732008 0.240551 0.147618 0.108060
H17   H     H_    0.893756 0.360267 0.330894 0.129496
H18   H     H_    0.684075 0.312280 0.468622 0.118975
H19   H     H_    0.524367 0.183971 0.282790 0.151655
H20   H     H_    0.823454 0.527329 0.535050 0.201851
H21   H     H_    0.165036 0.523801 0.692627 0.128829
H22   H     H_    0.445208 0.872962 0.773565 0.155227
H23   H     H_    0.173901 0.829514 0.656955 0.154021
H24   H     H_    0.453074 0.017201 0.920266 0.134726
H25   H     H_    0.303572 0.974696 0.962783 0.115091
H26   H     H_    0.667474 0.010413 0.338639 0.095700
H27   H     H_    0.140272 0.791293 0.851133 0.143162
H28   H     H_    0.341985 0.514140 0.856610 0.123558
H29   H     H_    0.458590 0.425817 0.986328 0.139387
H30   H     H_    0.517490 0.686496 0.007951 0.122993
H31   H     H_    0.483639 0.562598 0.129308 0.135026
H32   H     H_    0.498134 0.453868 0.195862 0.090310
H33   H     H_    0.449857 0.262533 0.129696 0.115857
H34   H     H_    0.820464 0.967267 0.153972 0.131850
H35   H     H_    0.258838 0.120333 0.042309 0.093010
H36   H     H_    0.159839 0.361934 0.075547 0.102062
H37   H     H_    0.350249 0.502907 0.165031 0.107019
H38   H     H_    0.306112 0.372592 0.696089 0.096905
H39   H     H_    0.818348 0.977394 0.840249 0.136191
H40   H     H_    0.748639 0.810968 0.887357 0.118738
H41   H     H_    0.566489 0.709566 0.863450 0.118954
H42   H     H_    0.490813 0.808949 0.951830 0.117470
H43   H     H_    0.594423 0.009465 0.058859 0.124972
H44   H     H_    0.774557 0.112579 0.078582 0.119658
H45   H     H_    0.168852 0.155918 0.319512 0.178542
H46   H     H_    0.675304 0.850194 0.527108 0.118469
H47   H     H_    0.822066 0.195925 0.438495 0.120280
H48   H     H_    0.172204 0.095285 0.872276 0.108273
H49   H     H_    0.660988 0.653545 0.320815 0.144902
H50   H     H_    0.832264 0.511768 0.358969 0.167412
H51   H     H_    0.782830 0.580515 0.295776 0.157001
H52   H     H_    0.691847 0.477581 0.308287 0.188099
H53   H     H_    0.677144 0.829333 0.150347 0.100114
H54   H     H_    0.270275 0.891070 0.565304 0.110161
H55   H     H_    0.539158 0.553056 0.545740 0.100321
H56   H     H_    0.527339 0.544006 0.375508 0.121965
N1    N     N_R   0.941940 0.944580 0.650780 -0.048342
N2    N     N_R   0.204460 0.150250 0.707090 -0.041189
N3    N     N_R   0.794270 0.003240 0.446420 -0.042880
N4    N     N_R   0.204920 0.207570 0.650770 -0.043306
N5    N     N_R   0.793810 0.945920 0.502740 -0.039287
N6    N     N_R   0.943620 0.152590 0.446420 -0.043185
N7    N     N_R   0.055110 0.000900 0.707100 -0.043698
N8    N     N_R   0.795080 0.792430 0.349230 -0.038774
N9    N     N_R   0.206190 0.054080 0.497260 -0.046081
N10   N     N_R   0.056380 0.847410 0.553580 -0.075148
N11   N     N_R   0.944890 0.999100 0.292900 -0.047192
N12   N     N_R   0.058060 0.055420 0.349220 -0.056804
N13   N     N_R   0.943200 0.791100 0.497260 -0.095208
N14   N     N_R   0.795540 0.849750 0.292910 -0.048594
N15   N     N_R   0.205730 0.996760 0.553580 -0.039704
N16   N     N_R   0.056800 0.208900 0.502740 -0.041451
Ni1   Ni    Ni4+2 0.869690 0.869690 0.500000 0.236961
Ni2   Ni    Ni4+2 0.130310 0.130310 0.500000 0.225008
Ni3   Ni    Ni4+2 0.129250 0.998840 0.629170 0.209488
Ni4   Ni    Ni4+2 0.870750 0.001160 0.370830 0.210238
O1    O     O_3   0.800995 0.623659 0.450176 -0.654210

loop_
_geom_bond_atom_site_label_1
_geom_bond_atom_site_label_2
_ccdc_geom_bond_type
C25   C31   A    
C66   C68   A    
C63   C65   A    
C26   H9    S    
C51   H27   S    
C6    C45   A    
N3    Ni4   S    
C27   C29   A    
C41   C42   A    
C6    C58   S    
C27   H10   S    
C35   C36   A    
C3    C6    A    
C54   C57   S    
C2    O1    S    
C66   F2    S    
C78   N11   A    
N2    Ni3   S    
C57   H30   S    
N14   Ni4   S    
C25   H8    S    
C26   C27   A    
C37   C38   A    
C40   N4    A    
C36   H18   S    
C18   C24   A    
C18   H6    S    
C56   H12   S    
C36   C37   A    
N13   Ni1   S    
C82   H52   S    
C42   C53   S    
C30   C31   A    
N4    Ni2   S    
C73   H40   S    
C67   H23   S    
C48   H22   S    
C10   C17   A    
C1    C81   A    
C23   C40   A    
C79   H44   S    
C54   H28   S    
C50   H25   S    
N2    N4    A    
C18   C19   A    
N7    Ni3   S    
N10   N13   A    
C82   H50   S    
C1    N1    A    
C66   C72   A    
C64   H47   S    
C11   H2    S    
C68   C69   A    
C70   C71   A    
C28   N3    A    
C32   C38   A    
C4    C12   A    
C29   C30   A    
N8    Ni1   S    
C75   H42   S    
N11   Ni4   S    
C39   H20   S    
C47   C53   A    
C28   C34   A    
C59   C60   A    
N16   Ni2   S    
N9    N15   A    
C13   C14   A    
C58   H31   S    
C61   C62   A    
C7    C56   A    
N1    Ni1   S    
C44   C46   A    
C5    H54   S    
C77   C79   A    
C28   H26   S    
C22   C34   S    
C74   C75   A    
C67   N10   A    
C33   H17   S    
N1    N7    A    
N15   Ni3   S    
C16   N2    A    
C8    C41   S    
C83   H45   S    
C39   C41   A    
N9    Ni2   S    
C5    C7    A    
C16   H15   S    
C82   O1    S    
C25   C26   A    
C4    N16   A    
C13   C24   S    
C60   C61   A    
C51   C53   A    
C43   H21   S    
N12   Ni2   S    
C43   C44   A    
C14   H4    S    
C62   C63   A    
C37   H19   S    
C47   C48   A    
C21   H7    S    
C3    N14   A    
C50   C51   A    
C45   H49   S    
C3    H53   S    
C47   F1    S    
N11   N12   A    
C75   C77   A    
N5    Ni1   S    
C77   H43   S    
C9    C83   A    
C39   C46   A    
C83   N12   A    
C61   C72   S    
N3    N5    A    
C48   C49   A    
C16   C23   A    
C7    C19   S    
C64   N6    A    
N6    Ni4   S    
C22   C24   A    
C42   C43   A    
C56   N9    A    
N6    N16   A    
C73   C74   A    
C63   H37   S    
C49   H24   S    
C1    H1    S    
C15   C17   A    
C40   H38   S    
C54   C55   D    
C52   N5    A    
C32   H16   S    
C52   H46   S    
C2    C8    A    
C38   H14   S    
C76   C81   A    
C29   H11   S    
C76   H48   S    
C23   C55   S    
C4    H3    S    
C55   H29   S    
C59   H33   S    
C5    N15   A    
C30   H13   S    
C34   C52   A    
C32   C33   A    
C19   C20   A    
C78   H34   S    
N8    N14   A    
C9    C68   S    
C71   C72   A    
C12   C44   S    
N10   Ni3   S    
C15   H5    S    
C11   C13   A    
C57   C58   D    
C74   H41   S    
C12   C64   A    
C33   C35   A    
C73   C80   A    
C60   H35   S    
C17   H55   S    
C45   N8    A    
C9    C78   A    
C82   H51   S    
C69   C70   A    
C10   C11   A    
C79   C80   A    
C70   H39   S    
C20   C21   A    
C76   N7    A    
C8    C67   A    
C2    N13   A    
C49   C50   A    
C65   H32   S    
C14   C15   A    
C69   C80   S    
C21   C22   A    
C35   C46   S    
C10   H56   S    
C62   H36   S    
C59   C65   A    
C71   C81   S    
C20   C31   S    
