data_mof_unit_11123.cif
_audit_creation_date              2012-12-10T17:48:45-0500
_audit_creation_method            fapswitch 2.2
_symmetry_space_group_name_H-M    P1
_symmetry_Int_Tables_number       1
_space_group_crystal_system       triclinic
_cell_length_a                    15.734302
_cell_length_b                    10.649185
_cell_length_c                    9.951835
_cell_angle_alpha                 89.828829
_cell_angle_beta                  87.110405
_cell_angle_gamma                 93.175914
_cell_volume                      1662.79860712

loop_
_atom_site_label
_atom_site_type_symbol
_atom_type_description
_atom_site_fract_x
_atom_site_fract_y
_atom_site_fract_z
_atom_type_partial_charge
C1    C     C_R   0.513310 0.263015 0.499854 0.878536
C2    C     C_R   0.534130 0.055705 0.870216 -0.220323
C3    C     C_R   0.479287 0.948284 0.870234 0.037518
C4    C     C_R   0.338474 0.500230 0.503205 0.899175
C5    C     C_R   0.460950 0.890958 0.748555 -0.225442
C6    C     C_R   0.496261 0.942163 0.625475 0.060151
C7    C     C_R   0.532602 0.064793 0.624962 0.038428
C8    C     C_R   0.532939 0.132010 0.501635 -0.132427
C9    C     C_R   0.531091 0.067752 0.379710 -0.210699
C10   C     C_R   0.517954 0.939413 0.380546 -0.195996
C11   C     C_R   0.497770 0.875948 0.502263 -0.104875
C12   C     C_3   0.937833 0.392439 0.610542 0.122235
C13   C     C_R   0.404259 0.315677 0.154992 -0.152243
C14   C     C_R   0.369266 0.208990 0.098077 -0.281240
C15   C     C_R   0.368433 0.201036 0.961000 -0.204374
C16   C     C_R   0.496016 0.740492 0.500598 0.868185
C17   C     C_R   0.399419 0.302773 0.878337 0.238104
C18   C     C_R   0.451848 0.404694 0.933736 0.070816
C19   C     C_R   0.452963 0.407199 0.078323 0.140522
C20   C     C_R   0.545089 0.588749 0.067110 -0.087346
C21   C     C_R   0.545018 0.588846 0.924471 -0.089273
C22   C     C_R   0.661565 0.500819 0.496762 0.896287
C23   C     C_3   0.917234 0.489542 0.493784 0.022677
C24   C     C_3   0.036934 0.410735 0.630805 0.045517
C25   C     C_3   0.054569 0.422768 0.369687 0.050996
C26   C     C_3   0.956696 0.438625 0.355935 -0.041033
C27   C     C_1   0.750345 0.497807 0.489526 -0.144972
C28   C     C_3   0.082305 0.481166 0.506564 0.153846
C29   C     C_3   0.897633 0.163712 0.673274 -0.768478
C30   C     C_1   0.889991 0.420901 0.738877 0.191903
C31   C     C_1   0.933342 0.721700 0.422784 0.197803
C32   C     C_1   0.626546 0.214956 0.752382 0.173074
C33   C     C_1   0.443198 0.894388 0.994585 0.119083
C34   C     C_3   0.958486 0.626805 0.520100 0.025476
C35   C     C_3   0.099525 0.274485 0.798329 -0.851598
C36   C     C_3   0.327649 0.209485 0.683018 -0.749587
C37   C     C_3   0.161925 0.261052 0.327146 -0.811946
C38   C     C_3   0.960960 0.465187 0.108901 -0.804313
C39   C     C_1   0.931539 0.677362 0.652891 0.134461
C40   C     C_3   0.056849 0.620158 0.510419 -0.592561
C41   C     C_1   0.825493 0.494212 0.487663 -0.100131
C42   C     C_1   0.173922 0.486463 0.512679 0.000615
C43   C     C_1   0.249406 0.493698 0.510719 -0.213475
C44   C     C_R   0.561011 0.115008 0.748356 0.018102
H1    H     H_    0.046342 0.475817 0.717434 0.133029
H2    H     H_    0.581878 0.661753 0.867939 0.153967
H3    H     H_    0.090730 0.477844 0.288119 0.161556
H4    H     H_    0.923762 0.346455 0.335386 0.144172
H5    H     H_    0.086416 0.670412 0.596214 0.185403
H6    H     H_    0.085145 0.669551 0.418257 0.200236
H7    H     H_    0.862448 0.255469 0.507985 0.226789
H8    H     H_    0.904752 0.070743 0.625084 0.246613
H9    H     H_    0.831924 0.165888 0.719235 0.245473
H10   H     H_    0.942636 0.173386 0.754458 0.260752
H11   H     H_    0.066438 0.216512 0.602308 0.289200
H12   H     H_    0.536862 0.116669 0.283738 0.178120
H13   H     H_    0.121273 0.177917 0.810389 0.241319
H14   H     H_    0.043502 0.286367 0.868620 0.244989
H15   H     H_    0.151458 0.343265 0.824881 0.249157
H16   H     H_    0.304077 0.375699 0.780832 0.223525
H17   H     H_    0.320127 0.238131 0.577278 0.226486
H18   H     H_    0.265525 0.167745 0.723923 0.215361
H19   H     H_    0.375306 0.137060 0.683639 0.243387
H20   H     H_    0.035157 0.241143 0.289402 0.235920
H21   H     H_    0.164952 0.166034 0.281835 0.234239
H22   H     H_    0.195499 0.257977 0.422129 0.257667
H23   H     H_    0.554053 0.094968 0.964840 0.148358
H24   H     H_    0.195033 0.330101 0.255669 0.241763
H25   H     H_    0.882302 0.553708 0.243209 0.260006
H26   H     H_    0.915578 0.384080 0.090648 0.245158
H27   H     H_    0.026881 0.433463 0.098934 0.237221
H28   H     H_    0.954778 0.538036 0.030533 0.266956
H29   H     H_    0.417858 0.808049 0.751051 0.169466
H30   H     H_    0.521878 0.890584 0.285499 0.185061
H31   H     H_    0.582054 0.661659 0.117119 0.142917
H32   H     H_    0.389617 0.324084 0.259534 0.219481
H33   H     H_    0.336192 0.136581 0.160703 0.177853
H34   H     H_    0.331849 0.121729 0.921646 0.170845
N1    N     N_R   0.499210 0.498800 0.142780 -0.114973
N2    N     N_2   0.073703 0.290027 0.354438 -0.300980
N3    N     N_2   0.942033 0.518334 0.240362 -0.291051
N4    N     N_1   0.910759 0.718261 0.756322 -0.200228
N5    N     N_R   0.499180 0.498720 0.857170 -0.115078
N6    N     N_2   0.912116 0.262286 0.571701 -0.303926
N7    N     N_1   0.851976 0.441976 0.838048 -0.199065
N8    N     N_1   0.913765 0.796432 0.347231 -0.214171
N9    N     N_1   0.679711 0.294005 0.757245 -0.183147
N10   N     N_1   0.413398 0.850675 0.093832 -0.218043
N11   N     N_2   0.077869 0.294873 0.660441 -0.275889
N12   N     N_2   0.354170 0.318835 0.760946 -0.229566
O1    O     O_R   0.500000 0.316780 0.614690 -0.586652
O2    O     O_R   0.499990 0.316750 0.385360 -0.647569
O3    O     O_R   0.377150 0.500020 0.614720 -0.606078
O4    O     O_R   0.377140 0.499990 0.385380 -0.630585
O5    O     O_R   0.500010 0.683250 0.614640 -0.629240
O6    O     O_R   0.500000 0.683220 0.385310 -0.613058
O7    O     O_R   0.622860 0.500010 0.614620 -0.594156
O8    O     O_R   0.622850 0.499980 0.385280 -0.618586
Zn1   Zn    Zn3+2 0.500010 0.500020 0.653130 0.964992
Zn2   Zn    Zn3+2 0.499990 0.499980 0.346870 0.943427

loop_
_geom_bond_atom_site_label_1
_geom_bond_atom_site_label_2
_ccdc_geom_bond_type
C38   H26   S    
C22   O8    A    
C25   N2    S    
C24   N11   S    
C7    C8    A    
C25   C28   S    
C12   C23   S    
C35   H14   S    
C34   C40   S    
C24   H1    S    
C33   N10   T    
C5    C6    A    
O5    Zn1   S    
C14   H33   S    
C15   H34   S    
C29   H10   S    
C28   C40   S    
C40   H5    S    
C1    C8    S    
C37   H24   S    
C12   N6    S    
C35   H15   S    
C18   C19   A    
C23   C26   S    
C21   N5    A    
C2    C44   A    
C8    C9    A    
C37   H21   S    
C36   H19   S    
C9    C10   A    
O3    Zn1   S    
C26   H4    S    
C1    O1    A    
C31   N8    T    
N5    Zn1   S    
C13   C14   A    
H20   N2    S    
C36   H18   S    
O7    Zn1   S    
C18   N5    A    
C37   N2    S    
C38   H28   S    
C16   O6    A    
C13   C19   A    
C34   C39   S    
N1    Zn2   S    
C29   N6    S    
C2    H23   S    
C6    C11   A    
C25   C26   S    
C32   N9    T    
C20   H31   S    
C11   C16   S    
C27   C41   T    
C13   H32   S    
O4    Zn2   S    
C23   C34   S    
C37   H22   S    
C17   C18   A    
C32   C44   S    
C31   C34   S    
C9    H12   S    
C7    C44   A    
C30   N7    T    
C19   N1    A    
C4    O4    A    
C35   N11   S    
C1    O2    A    
O8    Zn2   S    
C22   C27   S    
C38   N3    S    
C42   C43   T    
C36   H17   S    
O2    Zn2   S    
C21   H2    S    
C36   N12   S    
C15   C17   A    
C25   H3    S    
C38   H27   S    
C16   O5    A    
C20   N1    A    
C12   C30   S    
C17   N12   S    
C24   C28   S    
C39   N4    T    
C3    C5    A    
C6    C7    A    
C4    C43   S    
H16   N12   S    
C26   N3    S    
C12   C24   S    
C23   C41   S    
C35   H13   S    
C2    C3    A    
H11   N11   S    
C10   H30   S    
C29   H9    S    
C40   H6    S    
O6    Zn2   S    
C28   C42   S    
C5    H29   S    
H25   N3    S    
C10   C11   A    
C4    O3    A    
C20   C21   A    
C22   O7    A    
C3    C33   S    
C14   C15   A    
O1    Zn1   S    
H7    N6    S    
C29   H8    S    
