data_mof_unit_24308.cif
_audit_creation_date              2013-03-05T16:30:50-0500
_audit_creation_method            fapswitch 2.2
_symmetry_space_group_name_H-M    P1
_symmetry_Int_Tables_number       1
_space_group_crystal_system       triclinic
_cell_length_a                    18.349536
_cell_length_b                    18.383038
_cell_length_c                    18.429832
_cell_angle_alpha                 120.102185
_cell_angle_beta                  120.195555
_cell_angle_gamma                 89.808799
_cell_volume                      4383.428191

loop_
_atom_site_label
_atom_site_type_symbol
_atom_site_description
_atom_site_fract_x
_atom_site_fract_y
_atom_site_fract_z
_atom_type_partial_charge
Zn1   Zn    Zn3+2 0.869870 0.956630 0.413250 1.016109
Zn2   Zn    Zn3+2 0.043380 0.130130 0.586750 1.016618
Zn3   Zn    Zn3+2 0.043390 0.956630 0.413260 0.962600
Zn4   Zn    Zn3+2 0.043360 0.956610 0.586740 1.010066
O1    O     O_3   0.000000 0.000000 0.500000 -0.506348
O2    O     O_R   0.115780 0.055050 0.731580 -0.619985
O3    O     O_R   0.823490 0.884220 0.268410 -0.629499
O4    O     O_R   0.944920 0.176520 0.560720 -0.615491
O5    O     O_R   0.115810 0.884200 0.439290 -0.648621
O6    O     O_R   0.115820 0.176530 0.560730 -0.634782
O7    O     O_R   0.944890 0.884180 0.560700 -0.647090
O8    O     O_R   0.115830 0.055100 0.439300 -0.664460
O9    O     O_R   0.823460 0.884190 0.439270 -0.634280
O10   O     O_R   0.823480 0.055090 0.439280 -0.620192
O11   O     O_R   0.115790 0.884180 0.560710 -0.626375
O12   O     O_R   0.115790 0.176500 0.731590 -0.630881
O13   O     O_R   0.944940 0.884220 0.268420 -0.619989
C1    C     C_R   0.139837 0.139933 0.779724 0.810034
C2    C     C_R   0.860344 0.861374 0.220136 0.823396
C3    C     C_R   0.859821 0.139895 0.499854 0.842879
C4    C     C_R   0.139781 0.860119 0.499875 0.802394
C5    C     C_R   0.139399 0.139823 0.499588 0.827557
C6    C     C_R   0.859438 0.861514 0.501117 0.829649
H1    H     H_    0.541668 0.952475 0.269058 0.237162
C7    C     C_R   0.638649 0.970608 0.411014 -0.267227
H2    H     H_    0.655823 0.042412 0.455436 0.161159
C8    C     C_R   0.680886 0.929960 0.460382 0.557060
C9    C     C_R   0.662167 0.836780 0.401270 -0.030366
C10   C     C_R   0.596960 0.785445 0.294453 -0.322906
H3    H     H_    0.581952 0.713854 0.249718 0.198982
C11   C     C_R   0.552035 0.826051 0.245404 0.369855
C12   C     C_R   0.573962 0.919207 0.304860 -0.203124
C13   C     C_R   0.658241 0.734539 0.448926 -0.280481
H4    H     H_    0.586760 0.722217 0.408325 0.177970
C14   C     C_R   0.698467 0.696397 0.502261 -0.062068
C15   C     C_R   0.792672 0.716756 0.559458 0.011110
C16   C     C_R   0.842761 0.771294 0.557532 -0.268744
H5    H     H_    0.914429 0.784560 0.599187 0.190116
C17   C     C_R   0.802380 0.808199 0.502963 -0.028855
C18   C     C_R   0.709059 0.792116 0.450748 0.059965
C19   C     C_R   0.902413 0.747572 0.731571 -0.208954
H6    H     H_    0.908394 0.817383 0.766878 0.155104
C20   C     C_R   0.956269 0.720676 0.793441 -0.260719
H7    H     H_    0.004103 0.770696 0.874954 0.145707
C21   C     C_R   0.950234 0.630345 0.749479 0.562350
C22   C     C_R   0.892197 0.568879 0.642274 -0.160088
H8    H     H_    0.889116 0.499847 0.606850 0.178970
C23   C     C_R   0.839116 0.595984 0.580055 -0.184519
H9    H     H_    0.795598 0.547618 0.497326 0.145463
C24   C     C_R   0.843246 0.685447 0.624505 0.153953
C25   C     C_R   0.714076 0.778566 0.051302 -0.040634
C26   C     C_R   0.806618 0.807459 0.108637 -0.188254
C27   C     C_R   0.845684 0.781000 0.052988 0.486719
C28   C     C_R   0.790454 0.723321 0.944878 -0.311726
H10   H     H_    0.821472 0.702144 0.904167 0.177440
C29   C     C_R   0.696626 0.695335 0.890471 -0.104314
C30   C     C_R   0.661619 0.724889 0.947557 0.050554
C31   C     C_3   0.576649 0.726714 0.939488 -0.451946
C32   C     C_3   0.636816 0.789259 0.058252 0.196204
H11   H     H_    0.539605 0.758584 0.901063 0.235750
H12   H     H_    0.536165 0.660563 0.908237 0.190056
H13   H     H_    0.629598 0.761786 0.096943 0.131563
C33   C     C_R   0.227102 0.778931 0.565525 0.086118
C34   C     C_R   0.194616 0.803693 0.498185 -0.065970
C35   C     C_R   0.217306 0.771521 0.427403 -0.214864
H14   H     H_    0.193748 0.788077 0.372448 0.182697
C36   C     C_R   0.271433 0.717359 0.427355 -0.221411
H15   H     H_    0.287945 0.693889 0.372408 0.180371
C37   C     C_R   0.303616 0.694502 0.498025 -0.065900
C38   C     C_R   0.278940 0.726871 0.565384 0.110234
C39   C     C_3   0.290329 0.730595 0.653237 -0.454765
C40   C     C_3   0.231196 0.790265 0.653529 -0.360061
H16   H     H_    0.258241 0.664547 0.630103 0.211647
H17   H     H_    0.360643 0.766220 0.722725 0.225459
H18   H     H_    0.164975 0.758865 0.630817 0.218277
H19   H     H_    0.267639 0.860272 0.723063 0.260788
C41   C     C_R   0.218368 0.161363 0.947902 0.051878
C42   C     C_R   0.197167 0.196235 0.890940 -0.090189
C43   C     C_R   0.234127 0.289412 0.946089 -0.162297
H20   H     H_    0.220873 0.320711 0.906233 0.203131
C44   C     C_R   0.288369 0.343468 0.054259 -0.206488
H21   H     H_    0.315193 0.414768 0.094411 0.185215
C45   C     C_R   0.306612 0.305212 0.109039 -0.054121
C46   C     C_R   0.270642 0.213263 0.051846 0.086058
C47   C     C_3   0.258820 0.138076 0.060045 -0.489346
C48   C     C_3   0.198369 0.078721 0.941241 0.132669
H22   H     H_    0.322441 0.125008 0.095601 0.273326
H23   H     H_    0.221562 0.144884 0.094288 0.184846
H24   H     H_    0.126762 0.049833 0.906743 0.103064
C49   C     C_R   0.231939 0.285892 0.569221 0.102881
C50   C     C_R   0.193423 0.194356 0.497210 -0.119767
C51   C     C_R   0.208885 0.155468 0.420348 -0.348779
H25   H     H_    0.177199 0.084649 0.359703 0.172592
C52   C     C_R   0.265315 0.207757 0.420467 0.477947
C53   C     C_R   0.302790 0.301873 0.496038 -0.174784
C54   C     C_R   0.283605 0.336967 0.568393 0.040381
C55   C     C_3   0.301637 0.420966 0.661770 -0.418660
C56   C     C_3   0.242608 0.362485 0.662670 -0.397530
H26   H     H_    0.373160 0.450488 0.728010 0.206367
H27   H     H_    0.271822 0.467726 0.644496 0.216531
H28   H     H_    0.280106 0.358212 0.729347 0.206896
H29   H     H_    0.178677 0.375442 0.645905 0.231495
C57   C     C_R   0.839370 0.286122 0.572582 0.119091
C58   C     C_R   0.804072 0.195648 0.493921 -0.198611
C59   C     C_R   0.716984 0.161657 0.405108 -0.265905
H30   H     H_    0.691131 0.093280 0.339386 0.250260
C60   C     C_R   0.662911 0.215835 0.400424 0.274221
C61   C     C_R   0.696079 0.304305 0.488964 -0.198670
C62   C     C_R   0.786251 0.339194 0.570582 0.046735
C63   C     C_3   0.829563 0.391152 0.683721 -0.557806
C64   C     C_3   0.887523 0.331729 0.685879 0.138502
H31   H     H_    0.866081 0.461915 0.723901 0.234328
H32   H     H_    0.782817 0.380992 0.701922 0.171307
H33   H     H_    0.875640 0.287827 0.706627 0.095551
Zn5   Zn    Zn3+2 0.630090 0.543330 0.586660 0.963603
Zn6   Zn    Zn3+2 0.456570 0.543320 0.586650 0.958201
Zn7   Zn    Zn3+2 0.456580 0.369830 0.413160 1.005791
Zn8   Zn    Zn3+2 0.456590 0.543350 0.413170 0.973164
O14   O     O_3   0.499960 0.499960 0.499910 -0.492010
O15   O     O_R   0.384170 0.615770 0.439200 -0.649904
O16   O     O_R   0.676480 0.444870 0.560630 -0.643271
O17   O     O_R   0.555020 0.615730 0.731490 -0.641129
O18   O     O_R   0.384160 0.323450 0.268320 -0.611788
O19   O     O_R   0.384130 0.444860 0.560610 -0.648789
O20   O     O_R   0.555060 0.615780 0.439210 -0.643651
O21   O     O_R   0.384140 0.323430 0.439180 -0.619654
O22   O     O_R   0.676490 0.615760 0.560640 -0.639695
O23   O     O_R   0.676470 0.615740 0.731500 -0.657015
O24   O     O_R   0.384180 0.444900 0.268330 -0.652973
O25   O     O_R   0.384150 0.615750 0.560620 -0.641243
O26   O     O_R   0.555030 0.323430 0.439190 -0.624449
C65   C     C_R   0.360067 0.639708 0.499739 0.803863
C66   C     C_R   0.639965 0.359844 0.497660 0.851201
C67   C     C_R   0.639973 0.639722 0.779537 0.833059
C68   C     C_R   0.360324 0.360136 0.220203 0.830085
C69   C     C_R   0.359628 0.359599 0.499102 0.822507
C70   C     C_R   0.640714 0.639688 0.500136 0.801976
O27   O     O_3   0.007554 0.601573 0.806333 -0.604902
C71   C     C_3   0.013142 0.632794 0.897244 0.082906
H34   H     H_    0.996894 0.573682 0.895729 0.191894
H35   H     H_    0.964729 0.667561 0.904453 0.101041
C72   C     C_3   0.108996 0.692672 0.991429 -0.303127
H36   H     H_    0.156239 0.657766 0.981382 0.271960
H37   H     H_    0.125145 0.755179 0.998745 0.209703
C73   C     C_3   0.122121 0.715707 0.090089 -0.941471
H38   H     H_    0.075029 0.749599 0.101770 0.293587
H39   H     H_    0.191525 0.760993 0.156964 0.264969
H40   H     H_    0.110944 0.654237 0.086396 0.274980
O28   O     O_3   0.937305 0.808114 0.102290 -0.640317
C74   C     C_3   0.967092 0.892635 0.124969 0.138467
H41   H     H_    0.032826 0.931265 0.201304 0.179563
H42   H     H_    0.922436 0.933225 0.131824 0.121710
C75   C     C_3   0.980202 0.882009 0.044885 -0.428867
H43   H     H_    0.025056 0.842162 0.039413 0.230342
H44   H     H_    0.914793 0.846363 0.968417 0.224826
C76   C     C_3   0.021637 0.972274 0.073828 -0.919938
H45   H     H_    0.977625 0.013407 0.078921 0.269108
H46   H     H_    0.029982 0.962111 0.014092 0.264923
H47   H     H_    0.088363 0.008324 0.148934 0.273932
N1    N     N_R   0.635695 0.880772 0.099078 0.258288
O29   O     O_R   0.631798 0.923682 0.177763 -0.366081
O30   O     O_R   0.644757 0.922149 0.062322 -0.370568
N2    N     N_R   0.235094 0.013826 0.895770 0.252928
O31   O     O_R   0.185464 0.930343 0.825517 -0.393467
O32   O     O_R   0.316413 0.038447 0.923635 -0.349123
O33   O     O_3   0.745383 0.982614 0.565552 -0.667318
C77   C     C_3   0.707520 0.983751 0.616554 0.059695
H48   H     H_    0.761525 0.992870 0.688851 0.175906
H49   H     H_    0.653936 0.919938 0.572109 0.127629
C78   C     C_3   0.671963 0.062047 0.644136 -0.377492
H50   H     H_    0.725924 0.125067 0.688342 0.233830
H51   H     H_    0.615519 0.052407 0.572693 0.212989
C79   C     C_3   0.639091 0.069814 0.708250 -0.923996
H52   H     H_    0.584158 0.007879 0.664746 0.264893
H53   H     H_    0.613417 0.126733 0.726496 0.265671
H54   H     H_    0.694706 0.081597 0.781530 0.267438
O34   O     O_3   0.275701 0.168510 0.340905 -0.622143
C80   C     C_3   0.320030 0.105309 0.342009 0.048132
H55   H     H_    0.286582 0.046748 0.260996 0.173525
H56   H     H_    0.317067 0.079549 0.384235 0.121067
C81   C     C_3   0.417892 0.145444 0.387766 -0.258295
H57   H     H_    0.421027 0.168050 0.343312 0.277744
H58   H     H_    0.452251 0.203938 0.469002 0.201298
C82   C     C_3   0.466773 0.077946 0.385027 -0.954341
H59   H     H_    0.466647 0.055914 0.431156 0.250582
H60   H     H_    0.537118 0.109412 0.418078 0.266282
H61   H     H_    0.434231 0.019061 0.304451 0.291105
N3    N     N_R   0.576319 0.180474 0.305959 0.227645
O35   O     O_R   0.529812 0.096344 0.247467 -0.368426
O36   O     O_R   0.551407 0.227598 0.269171 -0.367427
N4    N     N_R   0.982226 0.379852 0.743531 0.245677
O37   O     O_R   0.041637 0.377122 0.819665 -0.399312
O38   O     O_R   0.008515 0.420958 0.715987 -0.347055
N5    N     N_R   0.485351 0.773159 0.135829 0.209424
O39   O     O_R   0.442165 0.810437 0.090709 -0.342117
O40   O     O_R   0.467155 0.687199 0.080063 -0.414285

loop_
_geom_bond_atom_site_label_1
_geom_bond_atom_site_label_2
_geom_bond_distance
_ccdc_geom_bond_type
N5    O40   1.301565 A    
C64   N4    1.463374 S    
Zn5   O16   1.939155 S    
C19   H6    1.083465 S    
C53   C54   1.387840 A    
C76   H47   1.111203 S    
C40   H19   1.111341 S    
C55   H27   1.111632 S    
Zn8   O15   1.938358 S    
N4    O38   1.301893 A    
C55   C56   1.540448 S    
C49   C50   1.384438 A    
C77   H49   1.116940 S    
O26   C66   1.277624 A    
C81   H57   1.111906 S    
C82   H59   1.110933 S    
C59   C60   1.406190 A    
O4    C3    1.279625 A    
Zn6   O17   1.939593 S    
Zn1   O1    1.946125 S    
N3    O36   1.301459 A    
C15   C16   1.387751 A    
N2    O32   1.302178 A    
C16   H5    1.084921 S    
Zn7   O14   1.951522 S    
C47   C48   1.543890 S    
C71   C72   1.530866 S    
C47   H23   1.111577 S    
C78   H50   1.111638 S    
C9    C18   1.484281 S    
C31   H11   1.111797 S    
O8    C5    1.277715 A    
Zn5   O22   1.945888 S    
C61   C62   1.395535 A    
O9    C6    1.275393 A    
C57   C64   1.495544 S    
C22   H8    1.082665 S    
O7    C6    1.285097 A    
Zn8   O14   1.954529 S    
O17   C67   1.277876 A    
C4    C34   1.442740 S    
Zn3   O8    1.943424 S    
C57   C58   1.389764 A    
C55   H26   1.111675 S    
O24   C68   1.278287 A    
C2    C26   1.450050 S    
N2    O31   1.300405 A    
C35   C36   1.404000 A    
C74   C75   1.530375 S    
C5    C50   1.443609 S    
C38   C39   1.489438 S    
C25   C30   1.348513 A    
Zn8   O20   1.941854 S    
C75   H44   1.110626 S    
Zn2   O12   1.942932 S    
Zn7   O21   1.945113 S    
C45   C68   1.445243 S    
C41   C42   1.388152 A    
C31   H12   1.111512 S    
C23   C24   1.403029 A    
N5    O39   1.301625 A    
O21   C69   1.274785 A    
Zn1   O3    1.944192 S    
C27   O28   1.383891 S    
C19   C20   1.396417 A    
C72   C73   1.526871 S    
Zn1   O10   1.939156 S    
C37   C38   1.386670 A    
C40   H18   1.111583 S    
C58   C59   1.404588 A    
C73   H39   1.110382 S    
C73   H38   1.109157 S    
C77   C78   1.532706 S    
C22   C23   1.399379 A    
C47   H22   1.111969 S    
C25   C32   1.490120 S    
O2    C1    1.280165 A    
C28   C29   1.409346 A    
C13   C18   1.389385 A    
O19   C69   1.285914 A    
C25   C26   1.385750 A    
O10   C3    1.278167 A    
C46   C47   1.491561 S    
Zn4   O2    1.941282 S    
C81   H58   1.111493 S    
C77   H48   1.111012 S    
C43   C44   1.405665 A    
C42   C43   1.412454 A    
O13   C2    1.271947 A    
C41   C46   1.350737 A    
O20   C70   1.287875 A    
C7    H2    1.082205 S    
C79   H52   1.110969 S    
C60   N3    1.437817 S    
O6    C5    1.279868 A    
C44   H21   1.082979 S    
Zn5   O23   1.944189 S    
C36   H15   1.083023 S    
O18   C68   1.280727 A    
N3    O35   1.301276 A    
C36   C37   1.412529 A    
C14   C15   1.419505 A    
N1    O30   1.302352 A    
C16   C17   1.397211 A    
O25   C65   1.282117 A    
C20   H7    1.079873 S    
H1    C12   1.081465 S    
C10   H3    1.083161 S    
Zn3   O5    1.938181 S    
O23   C67   1.276539 A    
C39   H17   1.111722 S    
C32   N1    1.463665 S    
C80   H56   1.115897 S    
C45   C46   1.387166 A    
C33   C38   1.347071 A    
O11   C4    1.282272 A    
C1    C42   1.445483 S    
C54   C55   1.490142 S    
C51   C52   1.413642 A    
C13   H4    1.084585 S    
C63   C64   1.522901 S    
Zn4   O7    1.941853 S    
C49   C54   1.347385 A    
C20   C21   1.409809 A    
C63   H32   1.111994 S    
C79   H53   1.110396 S    
C23   H9    1.083090 S    
C41   C48   1.492997 S    
C35   H14   1.083144 S    
Zn5   O14   1.946124 S    
O33   C77   1.415538 S    
C72   H37   1.110397 S    
C43   H20   1.083066 S    
Zn2   O1    1.951522 S    
Zn1   O9    1.946139 S    
C29   C30   1.385218 A    
C60   C61   1.422568 A    
Zn2   O6    1.945113 S    
C19   C24   1.403356 A    
C50   C51   1.409021 A    
C73   H40   1.110835 S    
C15   C24   1.482931 S    
C26   C27   1.427987 A    
C39   H16   1.111608 S    
C81   C82   1.523794 S    
N4    O37   1.300514 A    
C28   H10   1.083307 S    
C9    C10   1.404389 A    
C32   H13   1.112547 S    
Zn6   O19   1.943275 S    
C76   H45   1.110753 S    
O15   C65   1.279331 A    
C11   C12   1.405016 A    
Zn2   O4    1.936435 S    
C49   C56   1.489019 S    
Zn4   O1    1.954531 S    
Zn3   O1    1.955172 S    
C48   H24   1.112819 S    
C44   C45   1.413000 A    
C11   N5    1.439978 S    
C29   C67   1.441660 S    
C71   H34   1.110794 S    
C82   H61   1.110612 S    
C79   H54   1.110844 S    
C27   C28   1.406435 A    
C3    C58   1.449748 S    
C7    C8    1.398444 A    
C56   H28   1.111584 S    
C59   H30   1.082096 S    
O3    C2    1.285976 A    
Zn6   O14   1.955174 S    
C57   C62   1.377260 A    
N1    O29   1.298755 A    
Zn4   O11   1.938607 S    
C76   H46   1.110615 S    
C31   C32   1.544345 S    
C39   C40   1.540314 S    
C10   C11   1.406076 A    
Zn8   O24   1.941325 S    
C56   H29   1.111632 S    
C62   C63   1.494007 S    
C14   C70   1.461503 S    
C53   C69   1.450888 S    
C71   H35   1.115814 S    
O5    C4    1.279320 A    
C30   C31   1.491865 S    
C78   H51   1.110479 S    
C7    C12   1.395177 A    
C37   C65   1.442450 S    
C6    C17   1.460841 S    
C34   C35   1.412668 A    
C75   C76   1.525976 S    
C51   H25   1.083474 S    
C13   C14   1.400262 A    
C82   H60   1.110156 S    
Zn3   O13   1.939590 S    
C64   H33   1.113408 S    
C74   H42   1.117886 S    
Zn7   O18   1.942889 S    
C52   C53   1.425999 A    
Zn7   O26   1.936392 S    
C63   H31   1.109035 S    
C80   C81   1.530222 S    
O27   C71   1.417795 S    
C8    O33   1.383001 S    
C33   C34   1.386899 A    
C17   C18   1.416384 A    
C21   C22   1.402373 A    
C61   C66   1.457092 S    
Zn6   O25   1.938179 S    
C33   C40   1.489360 S    
O12   C1    1.279047 A    
O34   C80   1.418677 S    
C8    C9    1.412304 A    
C72   H36   1.111793 S    
C74   H41   1.111320 S    
C21   O27   1.388367 S    
C48   N2    1.462691 S    
O22   C70   1.273421 A    
O16   C66   1.282231 A    
C75   H43   1.108835 S    
O28   C74   1.418450 S    
C52   O34   1.387774 S    
C80   H55   1.111395 S    
C78   C79   1.525633 S    
