data_mof_unit_63632.cif
_audit_creation_date              2012-12-10T20:20:41-0500
_audit_creation_method            fapswitch 2.2
_symmetry_space_group_name_H-M    P1
_symmetry_Int_Tables_number       1
_space_group_crystal_system       triclinic
_cell_length_a                    41.43826
_cell_length_b                    35.512548
_cell_length_c                    21.301855
_cell_angle_alpha                 89.991631
_cell_angle_beta                  58.983262
_cell_angle_gamma                 89.987267
_cell_volume                      26865.2010822

loop_
_atom_site_label
_atom_site_type_symbol
_atom_type_description
_atom_site_fract_x
_atom_site_fract_y
_atom_site_fract_z
_atom_type_partial_charge
C1    C     C_R   0.926555 0.500007 0.073447 0.866290
C2    C     C_R   0.073445 0.500001 0.926553 0.866413
C3    C     C_R   0.426555 0.000007 0.073446 0.866378
C4    C     C_R   0.573445 0.000001 0.926554 0.866387
C5    C     C_3   0.000153 0.500112 0.189021 -0.044825
C6    C     C_3   0.999893 0.500146 0.810928 -0.044862
C7    C     C_3   0.500118 0.000129 0.189059 -0.044849
C8    C     C_3   0.499882 0.000142 0.810940 -0.044852
C9    C     C_R   0.673696 0.499917 0.269099 -0.165594
C10   C     C_R   0.326304 0.499884 0.730902 -0.165672
C11   C     C_R   0.173696 0.999917 0.269098 -0.165638
C12   C     C_R   0.826304 0.999883 0.730902 -0.165609
C13   C     C_R   0.634518 0.499890 0.308277 -0.199424
C14   C     C_R   0.365482 0.499871 0.691724 -0.199466
C15   C     C_R   0.134518 0.999890 0.308276 -0.199459
C16   C     C_R   0.865482 0.999871 0.691724 -0.199435
C17   C     C_R   0.614627 0.499890 0.385240 -0.039126
C18   C     C_R   0.385373 0.499878 0.614760 -0.039090
C19   C     C_R   0.114627 0.999890 0.385240 -0.039102
C20   C     C_R   0.885373 0.999878 0.614760 -0.039111
C21   C     C_R   0.634507 0.499913 0.422348 -0.199374
C22   C     C_R   0.365493 0.499893 0.577652 -0.199417
C23   C     C_R   0.134507 0.999913 0.422348 -0.199408
C24   C     C_R   0.865493 0.999893 0.577652 -0.199384
C25   C     C_R   0.673682 0.499940 0.383011 -0.165435
C26   C     C_R   0.326318 0.499906 0.616990 -0.165519
C27   C     C_R   0.173682 0.999940 0.383010 -0.165505
C28   C     C_R   0.826318 0.999905 0.616990 -0.165477
C29   C     C_R   0.693138 0.499945 0.306567 0.161869
C30   C     C_R   0.306862 0.499903 0.693434 0.161938
C31   C     C_R   0.193138 0.999945 0.306566 0.161912
C32   C     C_R   0.806862 0.999903 0.693434 0.161900
C33   C     C_1   0.733157 0.499974 0.266486 -0.070838
C34   C     C_1   0.266843 0.499925 0.733515 -0.070966
C35   C     C_1   0.233157 0.999974 0.266485 -0.070923
C36   C     C_1   0.766843 0.999924 0.733515 -0.070889
C37   C     C_1   0.766802 0.499991 0.232845 -0.071195
C38   C     C_1   0.233198 0.499942 0.767157 -0.071358
C39   C     C_1   0.266802 0.999991 0.232842 -0.071296
C40   C     C_1   0.733198 0.999942 0.767157 -0.071266
C41   C     C_R   0.826260 0.534164 0.173502 -0.166651
C42   C     C_R   0.173737 0.534129 0.826516 -0.166767
C43   C     C_R   0.326260 0.034164 0.173494 -0.166734
C44   C     C_R   0.673737 0.034128 0.826504 -0.166705
C45   C     C_R   0.000090 0.500022 0.121676 0.899693
C46   C     C_R   0.999940 0.500030 0.878292 0.899834
C47   C     C_R   0.500067 0.000025 0.121700 0.899810
C48   C     C_R   0.499933 0.000029 0.878300 0.899804
C49   C     C_R   0.865437 0.534215 0.134436 -0.201189
C50   C     C_R   0.134561 0.534191 0.865581 -0.201423
C51   C     C_R   0.365437 0.034215 0.134429 -0.201271
C52   C     C_R   0.634561 0.034191 0.865569 -0.201249
C53   C     C_R   0.885322 0.500008 0.114608 -0.038934
C54   C     C_R   0.114678 0.499989 0.885393 -0.038574
C55   C     C_R   0.385322 0.000008 0.114606 -0.038742
C56   C     C_R   0.614678 0.999989 0.885394 -0.038752
C57   C     C_R   0.865454 0.465797 0.134422 -0.203014
C58   C     C_R   0.134548 0.465773 0.865563 -0.203040
C59   C     C_R   0.365454 0.965797 0.134424 -0.203074
C60   C     C_R   0.634548 0.965772 0.865577 -0.203068
C61   C     C_R   0.826279 0.465840 0.173486 -0.165449
C62   C     C_R   0.173724 0.465806 0.826499 -0.165673
C63   C     C_R   0.326279 0.965841 0.173488 -0.165566
C64   C     C_R   0.673724 0.965805 0.826513 -0.165551
C65   C     C_R   0.806821 0.500000 0.192885 0.161808
C66   C     C_R   0.193179 0.499960 0.807118 0.161881
C67   C     C_R   0.306821 1.000000 0.192882 0.161855
C68   C     C_R   0.693179 0.999959 0.807118 0.161837
C69   C     C_R   0.999997 0.573407 0.500003 0.853211
C70   C     C_R   0.499997 0.073407 0.500004 0.853232
C71   C     C_R   0.000037 0.500126 0.378229 0.926200
C72   C     C_R   0.999972 0.500148 0.621760 0.927173
C73   C     C_R   0.500031 0.000141 0.378237 0.926957
C74   C     C_R   0.499969 0.000144 0.621763 0.926990
C75   C     C_R   0.000003 0.426527 0.499998 0.921099
C76   C     C_R   0.500003 0.926527 0.499996 0.921665
C77   C     C_R   0.500001 0.573283 0.499995 0.871743
C78   C     C_R   0.000000 0.073283 0.499995 0.871741
C79   C     C_R   0.573380 0.499882 0.426585 0.871568
C80   C     C_R   0.426620 0.499881 0.573415 0.871537
C81   C     C_R   0.073380 0.999882 0.426585 0.871545
C82   C     C_R   0.926620 0.999881 0.573415 0.871560
C83   C     C_3   0.966120 0.488563 0.263176 -0.227667
C84   C     C_3   0.032752 0.485608 0.737931 -0.228822
C85   C     C_3   0.466945 0.986326 0.262373 -0.228522
C86   C     C_3   0.533049 0.986316 0.737640 -0.228497
C87   C     C_R   0.499999 0.426541 0.500005 0.871375
C88   C     C_R   0.999999 0.926541 0.500005 0.871378
C89   C     C_R   0.499986 0.326240 0.556989 -0.165969
C90   C     C_R   0.499979 0.326242 0.443096 -0.165970
C91   C     C_R   0.999983 0.826240 0.556992 -0.165968
C92   C     C_R   0.999981 0.826242 0.443093 -0.165962
C93   C     C_R   0.499993 0.365415 0.557055 -0.199598
C94   C     C_R   0.499987 0.365416 0.442999 -0.199595
C95   C     C_R   0.999990 0.865415 0.557058 -0.199597
C96   C     C_R   0.999989 0.865417 0.442996 -0.199593
C97   C     C_R   0.499994 0.385299 0.500019 -0.038907
C98   C     C_R   0.999994 0.885299 0.500019 -0.038910
C99   C     C_R   0.499979 0.306796 0.500050 0.162304
C100  C     C_R   0.999978 0.806796 0.500050 0.162301
C101  C     C_1   0.499975 0.266783 0.500060 -0.071616
C102  C     C_1   0.999974 0.766783 0.500060 -0.071608
C103  C     C_1   0.999974 0.733141 0.500059 -0.072096
C104  C     C_1   0.499975 0.233141 0.500060 -0.072107
C105  C     C_R   0.965820 0.673684 0.534122 -0.167844
C106  C     C_R   0.034144 0.673682 0.465960 -0.167949
C107  C     C_R   0.465820 0.173684 0.534136 -0.167918
C108  C     C_R   0.534144 0.173681 0.465949 -0.167890
C109  C     C_R   0.965778 0.634509 0.534153 -0.204267
C110  C     C_R   0.034197 0.634507 0.465896 -0.203930
C111  C     C_R   0.465778 0.134509 0.534168 -0.204121
C112  C     C_R   0.534197 0.134507 0.465885 -0.204106
C113  C     C_R   0.999990 0.614635 0.500017 -0.033101
C114  C     C_R   0.499991 0.114635 0.500018 -0.033063
C115  C     C_3   0.973061 0.523857 0.297477 -0.223251
C116  C     C_3   0.028978 0.521376 0.700463 -0.224271
C117  C     C_3   0.471503 0.022006 0.299042 -0.224038
C118  C     C_3   0.528503 0.021996 0.700940 -0.224042
C119  C     C_R   0.999979 0.693128 0.500049 0.162425
C120  C     C_R   0.499980 0.193128 0.500050 0.162430
C121  C     C_R   0.500002 0.673609 0.443025 -0.164609
C122  C     C_R   0.500032 0.673608 0.556889 -0.164611
C123  C     C_R   0.999999 0.173610 0.443032 -0.164637
C124  C     C_R   0.000029 0.173607 0.556895 -0.164600
C125  C     C_R   0.499995 0.634428 0.442960 -0.199278
C126  C     C_R   0.500025 0.634427 0.556986 -0.199272
C127  C     C_R   0.999993 0.134429 0.442963 -0.199277
C128  C     C_R   0.000023 0.134426 0.556989 -0.199280
C129  C     C_R   0.500006 0.614538 0.499981 -0.039418
C130  C     C_R   0.000005 0.114538 0.499983 -0.039415
C131  C     C_R   0.500021 0.693063 0.499950 0.160893
C132  C     C_R   0.000018 0.193063 0.499957 0.160901
C133  C     C_1   0.500024 0.733092 0.499940 -0.069404
C134  C     C_1   0.000021 0.233092 0.499950 -0.069417
C135  C     C_1   0.000021 0.266743 0.499951 -0.065387
C136  C     C_1   0.500024 0.766743 0.499939 -0.065357
C137  C     C_R   0.965856 0.326228 0.533856 -0.161938
C138  C     C_R   0.034174 0.326224 0.466081 -0.161841
C139  C     C_R   0.465859 0.826228 0.533883 -0.161842
C140  C     C_R   0.534177 0.826225 0.466031 -0.161823
C141  C     C_R   0.965804 0.365408 0.533918 -0.174820
C142  C     C_R   0.034217 0.365404 0.466046 -0.178539
C143  C     C_R   0.465806 0.865407 0.533947 -0.176540
C144  C     C_R   0.534219 0.865405 0.465998 -0.176567
C145  C     C_R   0.000008 0.385287 0.499988 -0.023689
C146  C     C_R   0.500009 0.885287 0.499981 -0.023362
C147  C     C_3   0.000187 0.500561 0.310680 -0.008943
C148  C     C_3   0.999870 0.500614 0.689257 -0.008995
C149  C     C_3   0.500145 0.000596 0.310727 -0.008981
C150  C     C_3   0.499855 0.000605 0.689273 -0.008969
C151  C     C_R   0.000017 0.306772 0.499961 0.158054
C152  C     C_R   0.500020 0.806772 0.499949 0.158053
C153  C     C_3   0.993572 0.466149 0.276648 0.494791
C154  C     C_3   0.003399 0.465744 0.726387 0.495146
C155  C     C_3   0.495852 0.965812 0.274379 0.495079
C156  C     C_3   0.504137 0.965821 0.725650 0.495072
C157  C     C_3   0.027449 0.476760 0.201774 -0.233870
C158  C     C_3   0.970620 0.479335 0.800181 -0.232120
C159  C     C_3   0.528927 0.978669 0.200287 -0.232551
C160  C     C_3   0.471068 0.978701 0.799730 -0.232548
C161  C     C_3   0.034076 0.512074 0.236330 -0.226304
C162  C     C_3   0.967158 0.515111 0.762429 -0.225945
C163  C     C_3   0.533172 0.014358 0.237233 -0.226028
C164  C     C_3   0.466834 0.014390 0.762754 -0.226057
C165  C     C_3   0.006935 0.535444 0.222131 -0.144047
C166  C     C_3   0.996277 0.535948 0.774632 -0.144496
C167  C     C_3   0.504518 0.035843 0.224553 -0.144392
C168  C     C_3   0.495494 0.035856 0.775417 -0.144424
H1    H     H_    0.951137 0.543162 0.338022 0.153854
H2    H     H_    0.052534 0.538654 0.658309 0.155638
H3    H     H_    0.448331 0.039804 0.340810 0.155187
H4    H     H_    0.551679 0.039777 0.659157 0.155217
H5    H     H_    0.688775 0.499960 0.412098 0.134416
H6    H     H_    0.311224 0.499920 0.587903 0.134331
H7    H     H_    0.188776 0.999960 0.412097 0.134352
H8    H     H_    0.811224 0.999920 0.587903 0.134366
H9    H     H_    0.811154 0.560682 0.188573 0.134442
H10   H     H_    0.188842 0.560642 0.811458 0.134385
H11   H     H_    0.311154 0.060682 0.188561 0.134392
H12   H     H_    0.688842 0.060642 0.811436 0.134425
H13   H     H_    0.880092 0.560955 0.119818 0.157045
H14   H     H_    0.119904 0.560935 0.880212 0.156902
H15   H     H_    0.380092 0.060955 0.119807 0.156958
H16   H     H_    0.619904 0.060935 0.880190 0.156977
H17   H     H_    0.880122 0.439059 0.119794 0.157650
H18   H     H_    0.119882 0.439039 0.880179 0.157531
H19   H     H_    0.380122 0.939059 0.119800 0.157595
H20   H     H_    0.619881 0.939038 0.880203 0.157596
H21   H     H_    0.811187 0.439319 0.188545 0.134911
H22   H     H_    0.188817 0.439280 0.811428 0.134823
H23   H     H_    0.311187 0.939319 0.188550 0.134864
H24   H     H_    0.688817 0.939280 0.811452 0.134875
H25   H     H_    0.499986 0.311138 0.601202 0.133887
H26   H     H_    0.499974 0.311142 0.398893 0.133889
H27   H     H_    0.999981 0.811138 0.601207 0.133887
H28   H     H_    0.999978 0.811142 0.398888 0.133897
H29   H     H_    0.499999 0.380064 0.601634 0.157084
H30   H     H_    0.499987 0.380067 0.398408 0.157088
H31   H     H_    0.999994 0.880064 0.601639 0.157083
H32   H     H_    0.999991 0.880067 0.398404 0.157090
H33   H     H_    0.939299 0.688785 0.560582 0.134469
H34   H     H_    0.060660 0.688781 0.439511 0.134431
H35   H     H_    0.439300 0.188785 0.560607 0.134428
H36   H     H_    0.560661 0.188781 0.439488 0.134456
H37   H     H_    0.939042 0.619847 0.560821 0.156766
H38   H     H_    0.060938 0.619844 0.439218 0.156739
H39   H     H_    0.439042 0.119847 0.560846 0.156720
H40   H     H_    0.560937 0.119844 0.439195 0.156739
H41   H     H_    0.499993 0.688709 0.398820 0.135235
H42   H     H_    0.500046 0.688706 0.601085 0.135237
H43   H     H_    0.999989 0.188710 0.398827 0.135210
H44   H     H_    0.000043 0.188704 0.601091 0.135244
H45   H     H_    0.938688 0.478453 0.272221 0.140826
H46   H     H_    0.059175 0.473079 0.729872 0.141987
H47   H     H_    0.440253 0.974390 0.270700 0.141679
H48   H     H_    0.559737 0.974365 0.729323 0.141697
H49   H     H_    0.499981 0.619778 0.398391 0.157264
H50   H     H_    0.500034 0.619776 0.601566 0.157269
H51   H     H_    0.999979 0.119779 0.398394 0.157257
H52   H     H_    0.000033 0.119774 0.601568 0.157269
H53   H     H_    0.939339 0.311132 0.560159 0.135516
H54   H     H_    0.060695 0.311125 0.439769 0.135364
H55   H     H_    0.439341 0.811131 0.560214 0.135421
H56   H     H_    0.560698 0.811126 0.439688 0.135433
H57   H     H_    0.939064 0.380071 0.560443 0.158391
H58   H     H_    0.060953 0.380064 0.439531 0.157911
H59   H     H_    0.439065 0.880070 0.560504 0.158060
H60   H     H_    0.560955 0.880066 0.439454 0.158061
H61   H     H_    0.049183 0.457162 0.161654 0.147065
H62   H     H_    0.947236 0.461762 0.841997 0.145408
H63   H     H_    0.551922 0.960577 0.158879 0.145797
H64   H     H_    0.448069 0.960625 0.841153 0.145790
H65   H     H_    0.061628 0.521885 0.227113 0.160715
H66   H     H_    0.940602 0.527344 0.770603 0.159348
H67   H     H_    0.559994 0.025999 0.228776 0.159701
H68   H     H_    0.440017 0.026047 0.771199 0.159689
H69   H     H_    0.012497 0.564096 0.197875 0.153906
H70   H     H_    0.993312 0.564988 0.796248 0.154501
H71   H     H_    0.508126 0.064810 0.202274 0.154383
H72   H     H_    0.491895 0.064823 0.797673 0.154386
H73   H     H_    0.688802 0.499919 0.209752 0.134239
H74   H     H_    0.311199 0.499881 0.790249 0.134162
H75   H     H_    0.188801 0.999919 0.209751 0.134201
H76   H     H_    0.811199 0.999881 0.790248 0.134215
H77   H     H_    0.619872 0.499872 0.278368 0.157131
H78   H     H_    0.380128 0.499859 0.721632 0.157103
H79   H     H_    0.119872 0.999873 0.278368 0.157113
H80   H     H_    0.880128 0.999859 0.721632 0.157122
H81   H     H_    0.619853 0.499914 0.481620 0.157228
H82   H     H_    0.380146 0.499899 0.518380 0.157197
H83   H     H_    0.119853 0.999913 0.481620 0.157205
H84   H     H_    0.880147 0.999898 0.518380 0.157213
O1    O     O_R   0.944560 0.468710 0.055440 -0.626287
O2    O     O_R   0.055440 0.468710 0.944560 -0.626349
O3    O     O_R   0.444560 0.968710 0.055440 -0.626331
O4    O     O_R   0.555440 0.968710 0.944560 -0.626331
O5    O     O_R   0.555450 0.499900 0.497080 -0.623368
O6    O     O_R   0.444550 0.499900 0.502920 -0.623382
O7    O     O_R   0.055450 0.999900 0.497080 -0.623378
O8    O     O_R   0.944550 0.999900 0.502920 -0.623373
O9    O     O_R   0.555440 0.499880 0.392050 -0.623380
O10   O     O_R   0.444560 0.499880 0.607950 -0.623392
O11   O     O_R   0.055440 0.999880 0.392050 -0.623390
O12   O     O_R   0.944560 0.999880 0.607950 -0.623383
O13   O     O_R   0.500000 0.444470 0.552540 -0.623416
O14   O     O_R   0.500000 0.444470 0.447460 -0.623417
O15   O     O_R   0.000000 0.944470 0.552540 -0.623416
O16   O     O_R   0.000000 0.944470 0.447460 -0.623417
O17   O     O_R   0.944560 0.531300 0.055450 -0.625663
O18   O     O_R   0.055440 0.531300 0.944550 -0.626033
O19   O     O_R   0.444560 0.031300 0.055450 -0.625829
O20   O     O_R   0.555440 0.031300 0.944550 -0.625824
O21   O     O_R   0.000010 0.468710 0.093020 -0.628956
O22   O     O_R   0.999990 0.468710 0.906980 -0.628896
O23   O     O_R   0.500010 0.968710 0.093020 -0.628903
O24   O     O_R   0.499990 0.968710 0.906980 -0.628904
O25   O     O_R   0.000010 0.531300 0.093030 -0.625494
O26   O     O_R   0.999990 0.531300 0.906970 -0.625754
O27   O     O_R   0.500010 0.031300 0.093030 -0.625713
O28   O     O_R   0.499990 0.031300 0.906970 -0.625710
O29   O     O_R   0.031280 0.555400 0.468730 -0.631915
O30   O     O_R   0.968720 0.555400 0.531270 -0.632432
O31   O     O_R   0.531280 0.055400 0.468730 -0.632201
O32   O     O_R   0.468720 0.055400 0.531270 -0.632217
O33   O     O_R   0.031290 0.499960 0.375690 -0.632383
O34   O     O_R   0.968710 0.499960 0.624310 -0.629707
O35   O     O_R   0.531290 0.999960 0.375690 -0.630350
O36   O     O_R   0.468710 0.999960 0.624310 -0.630337
O37   O     O_R   0.968700 0.499940 0.438280 -0.617959
O38   O     O_R   0.031300 0.499940 0.561720 -0.621628
O39   O     O_R   0.468700 0.999940 0.438280 -0.620812
O40   O     O_R   0.531300 0.999940 0.561720 -0.620823
O41   O     O_R   0.031310 0.444530 0.468680 -0.621698
O42   O     O_R   0.968690 0.444530 0.531320 -0.619455
O43   O     O_R   0.531310 0.944530 0.468680 -0.620635
O44   O     O_R   0.468690 0.944530 0.531320 -0.620627
O45   O     O_R   0.500010 0.555340 0.552490 -0.623305
O46   O     O_R   0.499990 0.555340 0.447510 -0.623306
O47   O     O_R   0.000010 0.055340 0.552490 -0.623306
O48   O     O_R   0.999990 0.055340 0.447510 -0.623307
Zn1   Zn    Zn3+2 0.000000 0.458210 0.000000 0.940161
Zn2   Zn    Zn3+2 0.500000 0.958210 0.000000 0.940199
Zn3   Zn    Zn3+2 1.000000 0.541790 0.000000 0.939240
Zn4   Zn    Zn3+2 0.500000 0.041790 0.000000 0.939159
Zn5   Zn    Zn3+2 0.041800 0.499960 0.458210 0.957908
Zn6   Zn    Zn3+2 0.958200 0.499960 0.541790 0.961877
Zn7   Zn    Zn3+2 0.541800 0.999960 0.458210 0.959725
Zn8   Zn    Zn3+2 0.458200 0.999960 0.541790 0.959712
Zn9   Zn    Zn3+2 0.500010 0.499910 0.570130 0.941846
Zn10  Zn    Zn3+2 0.499990 0.499910 0.429870 0.941843
Zn11  Zn    Zn3+2 0.000010 0.999910 0.570130 0.941842
Zn12  Zn    Zn3+2 0.999990 0.999910 0.429870 0.941839
O49   O     O_3   0.986661 0.430246 0.307889 -0.778401
H85   H     H_    0.983529 0.413723 0.273901 0.328338
O50   O     O_3   0.007080 0.429374 0.698381 -0.779120
H86   H     H_    0.008745 0.412632 0.733838 0.328557
O51   O     O_3   0.491373 0.929530 0.303201 -0.779013
H87   H     H_    0.489340 0.912827 0.268120 0.328510
O52   O     O_3   0.508606 0.929538 0.696859 -0.779028
H88   H     H_    0.510625 0.912837 0.731964 0.328518

loop_
_geom_bond_atom_site_label_1
_geom_bond_atom_site_label_2
_ccdc_geom_bond_type
C4    O20   A    
C55   C59   A    
C58   H18   S    
C108  C120  A    
C13   H77   S    
O1    Zn1   S    
C62   H22   S    
C46   O22   A    
C89   C99   A    
C154  C158  S    
C51   H15   S    
C85   H47   S    
C7    C159  S    
C156  O52   S    
C29   C33   S    
C139  C152  A    
C85   C155  S    
C9    C13   A    
C8    C168  S    
C11   C15   A    
C12   C16   A    
C84   H46   S    
C91   C100  A    
C115  C165  S    
C140  C152  A    
C57   H17   S    
C141  C145  A    
C76   C146  S    
C60   H20   S    
C4    C56   S    
C61   H21   S    
C116  C166  S    
C2    O2    A    
O12   Zn11  S    
C41   C49   A    
C64   H24   S    
C47   O27   A    
C23   C27   A    
C16   H80   S    
C25   C29   A    
C81   O7    A    
C27   C31   A    
C164  C168  S    
O6    Zn10  S    
C62   C66   A    
C88   O16   A    
C94   C97   A    
O44   Zn8   S    
C17   C21   A    
C159  H63   S    
C19   C23   A    
C91   H27   S    
C154  O50   S    
C10   C30   A    
C16   C20   A    
C89   H25   S    
C77   C129  S    
C85   C117  S    
O16   Zn12  S    
C99   C101  S    
C45   O25   A    
O13   Zn9   S    
C107  C120  A    
O15   Zn11  S    
C77   O45   A    
C139  H55   S    
O27   Zn4   S    
C160  H64   S    
C52   H16   S    
C143  H59   S    
C92   H28   S    
C57   C61   A    
O18   Zn3   S    
O42   Zn6   S    
C138  C151  A    
C166  H70   S    
C59   C63   A    
C60   C64   A    
C148  C162  S    
C149  C155  S    
O46   Zn10  S    
C42   H10   S    
C49   C53   A    
C8    C86   S    
C147  C153  S    
O29   Zn5   S    
C87   O14   A    
C125  C129  A    
C161  H65   S    
C132  C134  S    
O39   Zn8   S    
C117  C149  S    
C161  C165  S    
C126  H50   S    
C71   C147  S    
C115  C147  S    
C123  C132  A    
C11   H75   S    
C9    H73   S    
O20   Zn4   S    
C112  C114  A    
C157  H61   S    
C107  H35   S    
C69   C113  S    
C21   C25   A    
C64   C68   A    
C41   H9    S    
C22   H82   S    
C75   O42   A    
C147  C161  S    
C1    O17   A    
C138  H54   S    
C105  H33   S    
C92   C96   A    
C3    O19   A    
C124  C132  A    
C63   H23   S    
C95   H31   S    
C72   O38   A    
O36   Zn8   S    
C86   C156  S    
C3    C55   S    
C12   H76   S    
C37   C65   S    
C122  H42   S    
C59   H19   S    
C128  H52   S    
C51   C55   A    
C44   C52   A    
C78   O48   A    
O26   Zn3   S    
C84   C116  S    
O8    Zn12  S    
C50   H14   S    
C84   C154  S    
C28   C32   A    
C6    C158  S    
C86   H48   S    
C30   C34   S    
C155  C159  S    
C79   O5    A    
C83   C115  S    
C156  C160  S    
C80   O10   A    
C76   O43   A    
C10   C14   A    
C140  H56   S    
C93   H29   S    
C121  C125  A    
C61   C65   A    
C123  C127  A    
C69   O30   A    
C116  H2    S    
C109  H37   S    
O40   Zn7   S    
C153  O49   S    
C42   C50   A    
C49   H13   S    
C48   O24   A    
C26   C30   A    
C40   C68   S    
C82   O12   A    
C4    O4    A    
C111  H39   S    
C122  C131  A    
C96   H32   S    
C7    C167  S    
C18   C22   A    
C107  C111  A    
C24   C28   A    
C32   C36   S    
C81   O11   A    
C134  C135  T    
C83   C153  S    
C150  C164  S    
C13   C17   A    
C78   C130  S    
O32   Zn8   S    
C45   O21   A    
C89   C93   A    
C102  C103  T    
O14   Zn10  S    
C163  H67   S    
C91   C95   A    
C43   C67   A    
C104  C120  S    
C19   C81   S    
C88   C98   S    
C58   C62   A    
C143  C146  A    
O43   Zn7   S    
C6    C166  S    
C93   C97   A    
C106  C119  A    
C164  H68   S    
C90   C99   A    
C44   H12   S    
O23   Zn2   S    
C127  H51   S    
C168  H72   S    
O33   Zn5   S    
C15   C19   A    
C43   H11   S    
C50   C54   A    
C160  C164  S    
C20   C82   S    
O30   Zn6   S    
C54   C58   A    
C26   H6    S    
C70   O31   A    
C137  H53   S    
C118  C150  S    
C23   H83   S    
C136  C152  S    
C162  C166  S    
C142  H58   S    
C124  C128  A    
C48   O28   A    
O50   H86   S    
C142  C145  A    
C148  C154  S    
O19   Zn4   S    
C1    O1    A    
C90   C94   A    
C2    O18   A    
C103  C119  S    
C6    C84   S    
O9    Zn10  S    
C24   H84   S    
C72   O34   A    
C144  C146  A    
C138  C142  A    
C27   H7    S    
C116  C148  S    
C53   C57   A    
C28   H8    S    
C124  H44   S    
O37   Zn6   S    
C5    C45   S    
C75   C145  S    
C108  C112  A    
C7    C47   S    
C35   C39   T    
C8    C48   S    
C117  H3    S    
C90   H26   S    
C118  H4    S    
C86   C118  S    
C74   O40   A    
O45   Zn9   S    
C87   O13   A    
C15   H79   S    
C101  C104  T    
C5    C157  S    
C2    C54   S    
C79   O9    A    
C31   C35   S    
C80   O6    A    
C8    C160  S    
O22   Zn1   S    
C157  C161  S    
O17   Zn3   S    
C137  C141  A    
C73   C149  S    
C140  C144  A    
O35   Zn7   S    
C128  C130  A    
C88   O15   A    
C155  O51   S    
C165  H69   S    
C126  C129  A    
C75   O41   A    
C43   C51   A    
O49   H85   S    
C7    C85   S    
C105  C109  A    
C117  C167  S    
C135  C151  S    
C118  C168  S    
C46   O26   A    
C111  C114  A    
O4    Zn2   S    
C25   H5    S    
C153  C157  S    
C33   C37   T    
O52   H88   S    
C162  H66   S    
C56   C60   A    
C22   C26   A    
C105  C119  A    
O24   Zn2   S    
C77   O46   A    
O25   Zn3   S    
C125  H49   S    
C14   C18   A    
C10   H74   S    
C115  H1    S    
C158  H62   S    
C95   C98   A    
C70   C114  S    
O21   Zn1   S    
C76   O44   A    
C21   H81   S    
C5    C83   S    
C47   O23   A    
C17   C79   S    
O5    Zn9   S    
C1    C53   S    
O7    Zn11  S    
C69   O29   A    
C38   C66   S    
C123  H43   S    
C133  C136  T    
C149  C163  S    
C121  H41   S    
C109  C113  A    
O34   Zn6   S    
C11   C31   A    
C150  C156  S    
C12   C32   A    
C139  C143  A    
O11   Zn12  S    
C121  C131  A    
C83   H45   S    
O31   Zn7   S    
C141  H57   S    
C63   C67   A    
C74   C150  S    
O28   Zn4   S    
C20   C24   A    
C36   C40   T    
C112  H40   S    
C73   O39   A    
C41   C65   A    
C72   C148  S    
C96   C98   A    
C94   H30   S    
C122  C126  A    
C163  C167  S    
C106  H34   S    
O41   Zn5   S    
C73   O35   A    
C74   O36   A    
C100  C102  S    
C110  H38   S    
C110  C113  A    
O2    Zn1   S    
O47   Zn11  S    
C78   O47   A    
C5    C165  S    
C82   O8    A    
C71   O33   A    
C159  C163  S    
O48   Zn12  S    
C44   C68   A    
O10   Zn9   S    
C92   C100  A    
C106  C110  A    
O38   Zn5   S    
C6    C46   S    
C34   C38   T    
C39   C67   S    
C144  H60   S    
C131  C133  S    
C9    C29   A    
O3    Zn2   S    
C127  C130  A    
C108  H36   S    
C70   O32   A    
C167  H71   S    
O51   H87   S    
C3    O3    A    
C158  C162  S    
C18   C80   S    
C42   C66   A    
C137  C151  A    
C71   O37   A    
C87   C97   S    
C52   C56   A    
C14   H78   S    
