data_mof_unit_17931.cif
_audit_creation_date              2012-12-10T17:56:20-0500
_audit_creation_method            fapswitch 2.2
_symmetry_space_group_name_H-M    P1
_symmetry_Int_Tables_number       1
_space_group_crystal_system       triclinic
_cell_length_a                    13.150944
_cell_length_b                    10.75416
_cell_length_c                    9.589372
_cell_angle_alpha                 91.655613
_cell_angle_beta                  96.144217
_cell_angle_gamma                 91.846939
_cell_volume                      1346.99459069

loop_
_atom_site_label
_atom_site_type_symbol
_atom_type_description
_atom_site_fract_x
_atom_site_fract_y
_atom_site_fract_z
_atom_type_partial_charge
C1    C     C_R   0.500233 0.262839 0.498374 0.830154
C2    C     C_R   0.499766 0.737161 0.501625 0.830155
C3    C     C_R   0.499665 0.871383 0.504590 -0.105917
C4    C     C_R   0.500334 0.128617 0.495410 -0.105914
C5    C     C_R   0.452504 0.404272 0.061394 0.286310
C6    C     C_R   0.547493 0.595729 0.938607 0.286307
C7    C     C_R   0.452655 0.405975 0.913645 -0.031043
C8    C     C_R   0.547346 0.594024 0.086356 -0.031037
C9    C     C_R   0.300298 0.494916 0.473601 0.815937
C10   C     C_R   0.699702 0.505086 0.526399 0.815940
C11   C     C_R   0.813234 0.513963 0.540733 -0.170523
C12   C     C_R   0.186766 0.486041 0.459267 -0.170522
C13   C     C_R   0.022596 0.450733 0.319668 0.165535
C14   C     C_R   0.977404 0.549274 0.680330 0.165536
C15   C     C_R   0.128459 0.469784 0.326012 0.113093
C16   C     C_R   0.871542 0.530223 0.673987 0.113092
C17   C     C_R   0.133669 0.487837 0.581275 0.096299
C18   C     C_R   0.866331 0.512166 0.418724 0.096299
C19   C     C_R   0.028279 0.510222 0.566098 -0.008748
C20   C     C_R   0.971721 0.489783 0.433901 -0.008748
C21   C     C_R   0.593718 0.067973 0.490946 0.127263
C22   C     C_R   0.406282 0.932027 0.509054 0.127261
C23   C     C_R   0.593235 0.937402 0.496266 0.122492
C24   C     C_R   0.406764 0.062598 0.503734 0.122493
Cu1   Cu    Cu3+1 0.500000 0.500020 0.640660 0.957814
Cu2   Cu    Cu3+1 0.500000 0.499980 0.359340 0.957815
H1    H     H_    0.415131 0.331007 0.847758 0.136331
H2    H     H_    0.584869 0.668991 0.152243 0.136330
N1    N     N_R   0.500030 0.500030 0.852080 -0.175123
N2    N     N_R   0.499970 0.499970 0.147920 -0.175125
O1    O     O_R   0.499990 0.319660 0.618740 -0.578877
O2    O     O_R   0.500010 0.680340 0.381260 -0.578877
O3    O     O_R   0.499990 0.319630 0.381170 -0.589686
O4    O     O_R   0.500010 0.680370 0.618830 -0.589689
O5    O     O_R   0.349000 0.499990 0.599490 -0.585251
O6    O     O_R   0.651000 0.500010 0.400510 -0.585251
O7    O     O_R   0.348990 0.499960 0.361920 -0.553863
O8    O     O_R   0.651010 0.500040 0.638080 -0.553857
C25   C     C_3   0.817521 0.556208 0.278668 -0.693495
H3    H     H_    0.772264 0.639613 0.294890 0.206357
H4    H     H_    0.875690 0.587064 0.210085 0.253763
H5    H     H_    0.768168 0.481259 0.222002 0.269687
C26   C     C_3   0.182478 0.443796 0.721332 -0.693499
H6    H     H_    0.227734 0.360390 0.705110 0.206358
H7    H     H_    0.231832 0.518745 0.777997 0.269688
H8    H     H_    0.124308 0.412942 0.789915 0.253763
I1    I     I_    0.812481 0.519193 0.872496 -0.321511
I2    I     I_    0.187519 0.480824 0.127504 -0.321513
I3    I     I_    0.947519 0.324116 0.161806 -0.301621
I4    I     I_    0.052482 0.675894 0.838188 -0.301618
C27   C     C_3   0.693447 0.141162 0.481279 -0.787555
H9    H     H_    0.685107 0.242814 0.474872 0.221873
H10   H     H_    0.747690 0.125920 0.575661 0.241537
H11   H     H_    0.727445 0.110719 0.385369 0.242758
C28   C     C_3   0.306552 0.858838 0.518724 -0.787557
H12   H     H_    0.314893 0.757186 0.525132 0.221874
H13   H     H_    0.272556 0.889282 0.614635 0.242760
H14   H     H_    0.252309 0.874079 0.424343 0.241537
C29   C     C_3   0.690861 0.865464 0.493323 -0.826116
H15   H     H_    0.684530 0.804302 0.397494 0.218174
H16   H     H_    0.761506 0.923949 0.493167 0.248925
H17   H     H_    0.701766 0.807078 0.587028 0.220532
C30   C     C_3   0.309138 0.134535 0.506675 -0.826116
H18   H     H_    0.315468 0.195698 0.602504 0.218174
H19   H     H_    0.298233 0.192920 0.412969 0.220531
H20   H     H_    0.238493 0.076050 0.506830 0.248925
C31   C     C_3   0.402005 0.291434 0.117158 -0.742055
H21   H     H_    0.460641 0.222865 0.149029 0.230244
H22   H     H_    0.357814 0.315915 0.204775 0.270736
H23   H     H_    0.346362 0.244437 0.035468 0.195568
C32   C     C_3   0.597982 0.708575 0.882841 -0.742047
H24   H     H_    0.539336 0.777126 0.850949 0.230256
H25   H     H_    0.653607 0.755595 0.964537 0.195556
H26   H     H_    0.642188 0.684098 0.795239 0.270728

loop_
_geom_bond_atom_site_label_1
_geom_bond_atom_site_label_2
_ccdc_geom_bond_type
C12   C17   A    
Cu1   O1    S    
C32   H26   S    
C21   C27   S    
C28   H12   S    
C30   H19   S    
Cu2   O7    S    
Cu2   O2    S    
C22   C28   S    
C7    N1    A    
C1    O1    A    
Cu1   O8    S    
C25   H5    S    
C5    C7    A    
C11   C16   A    
Cu2   O3    S    
C3    C23   A    
C19   C20   A    
C12   C15   A    
C10   O8    A    
Cu1   O4    S    
C5    C31   S    
C31   H23   S    
C8    N2    A    
C27   H11   S    
C22   C24   A    
C13   C15   A    
C2    C3    S    
C30   H20   S    
C1    O3    A    
C32   H24   S    
C11   C18   A    
C23   C29   S    
C4    C21   A    
C26   H7    S    
C2    O4    A    
C14   I4    S    
C15   I2    S    
Cu1   O5    S    
C13   I3    S    
C17   C26   S    
C16   I1    S    
C2    O2    A    
C17   C19   A    
C10   O6    A    
Cu2   N2    S    
C24   C30   S    
C18   C20   A    
C28   H13   S    
C26   H6    S    
Cu1   N1    S    
C6    C32   S    
C4    C24   A    
C26   H8    S    
C14   C16   A    
C29   H16   S    
C1    C4    S    
C9    C12   S    
C27   H10   S    
C31   H21   S    
C32   H25   S    
C29   H15   S    
C6    N1    A    
C7    H1    S    
C8    H2    S    
C25   H4    S    
C5    N2    A    
C10   C11   S    
C28   H14   S    
Cu2   O6    S    
C25   H3    S    
C9    O5    A    
C18   C25   S    
C14   C19   A    
C3    C22   A    
C6    C8    A    
C13   C20   A    
C31   H22   S    
Cu1   Cu2   S    
C21   C23   A    
C27   H9    S    
C30   H18   S    
C29   H17   S    
C9    O7    A    
