data_mof_unit_13650.cif
_audit_creation_date              2012-12-10T17:16:41-0500
_audit_creation_method            fapswitch 2.2
_symmetry_space_group_name_H-M    P1
_symmetry_Int_Tables_number       1
_space_group_crystal_system       triclinic
_cell_length_a                    10.166596
_cell_length_b                    10.550763
_cell_length_c                    10.830294
_cell_angle_alpha                 90.686252
_cell_angle_beta                  95.417683
_cell_angle_gamma                 79.071872
_cell_volume                      1135.53214

loop_
_atom_site_label
_atom_site_type_symbol
_atom_type_description
_atom_site_fract_x
_atom_site_fract_y
_atom_site_fract_z
_atom_type_partial_charge
Br1   Br    Br    0.905847 0.305183 0.350455 -0.351719
Br2   Br    Br    0.116886 0.613975 0.710008 -0.342902
C1    C     C_R   0.443872 0.504876 0.267290 0.954568
C2    C     C_R   0.492106 0.741408 0.483467 0.936438
C3    C     C_R   0.757473 0.056226 0.483054 0.688272
C4    C     C_R   0.243267 0.942084 0.525896 0.673114
C5    C     C_R   0.844580 0.983735 0.405159 -0.255772
C6    C     C_R   0.158034 0.013642 0.605827 -0.265097
C7    C     C_R   0.802206 0.887584 0.331528 -0.245561
C8    C     C_R   0.200340 0.111696 0.676661 -0.258460
C9    C     C_R   0.676855 0.856269 0.343384 0.676122
C10   C     C_R   0.323961 0.144952 0.660926 0.659912
C11   C     C_R   0.591416 0.923854 0.428324 -0.130854
C12   C     C_R   0.556378 0.488434 0.732680 0.949041
C13   C     C_R   0.408358 0.077022 0.575394 -0.131115
C14   C     C_R   0.624132 0.035039 0.484836 -0.141816
C15   C     C_R   0.375842 0.964896 0.520244 -0.136939
C16   C     C_R   0.477563 0.880125 0.462719 -0.062752
C17   C     C_R   0.522148 0.120489 0.540555 -0.055904
C18   C     C_2   0.412340 0.496783 0.135322 -0.287719
C19   C     C_2   0.588878 0.470630 0.864410 -0.301656
C20   C     C_2   0.513839 0.459343 0.065698 -0.135023
C21   C     C_2   0.489091 0.462996 0.933667 -0.081186
C22   C     C_2   0.068911 0.508109 0.475799 0.606865
C23   C     C_2   0.922032 0.522782 0.497781 0.601464
C24   C     C_R   0.507931 0.258851 0.517562 0.925288
F1    F     F_    0.807397 0.138620 0.563853 -0.643926
F2    F     F_    0.191306 0.859412 0.446842 -0.647904
F3    F     F_    0.637466 0.762720 0.269478 -0.654877
F4    F     F_    0.363345 0.240050 0.732626 -0.663885
F5    F     F_    0.866872 0.622972 0.567689 -0.638111
F6    F     F_    0.110723 0.454094 0.368529 -0.632957
H1    H     H_    0.135499 0.164601 0.741142 0.218526
H2    H     H_    0.868279 0.834465 0.268133 0.217008
H3    H     H_    0.944768 0.002922 0.400882 0.238414
H4    H     H_    0.058992 0.992691 0.613268 0.234752
H5    H     H_    0.385892 0.468125 0.893706 0.235040
H6    H     H_    0.617822 0.433792 0.105514 0.216951
H7    H     H_    0.691808 0.465666 0.904819 0.178529
H8    H     H_    0.308639 0.522504 0.095078 0.186621
N1    N     N_2   0.157300 0.551390 0.551120 -0.018686
N2    N     N_2   0.842700 0.448610 0.448880 -0.020268
O1    O     O_R   0.568940 0.489660 0.307530 -0.588715
O2    O     O_R   0.431060 0.510340 0.692470 -0.580668
O3    O     O_R   0.348880 0.522640 0.340350 -0.550128
O4    O     O_R   0.651120 0.477360 0.659650 -0.575159
O5    O     O_R   0.610030 0.300280 0.483580 -0.573779
O6    O     O_R   0.389970 0.699720 0.516420 -0.575372
O7    O     O_R   0.389970 0.333270 0.516400 -0.574244
O8    O     O_R   0.610030 0.666730 0.483600 -0.541331
Zn1   Zn    Zn3+2 0.646940 0.477980 0.478080 1.133168
Zn2   Zn    Zn3+2 0.353060 0.522020 0.521920 1.134393

loop_
_geom_bond_atom_site_label_1
_geom_bond_atom_site_label_2
_ccdc_geom_bond_type
C23   N2    D    
C23   F5    S    
C4    C6    A    
C22   F6    S    
C7    C9    A    
N1    Zn2   S    
C19   H7    S    
C10   C13   A    
N2    Zn1   S    
O7    Zn2   S    
C2    C16   S    
O2    Zn2   S    
C15   C16   A    
C1    C18   S    
C12   O4    A    
C3    F1    S    
C13   C17   A    
C22   N1    D    
C9    C11   A    
C1    O1    A    
C8    C10   A    
C24   O5    A    
O1    Zn1   S    
C14   C17   A    
C11   C16   A    
C12   C19   S    
C6    C8    A    
C18   C20   D    
O8    Zn1   S    
C8    H1    S    
C3    C5    A    
C19   C21   D    
C6    H4    S    
C7    H2    S    
C18   H8    S    
C11   C14   A    
Br2   N1    S    
C20   H6    S    
C5    C7    A    
Br1   N2    S    
O6    Zn2   S    
C22   C23   S    
C9    F3    S    
C12   O2    A    
C2    O6    A    
C24   O7    A    
C13   C15   A    
C4    C15   A    
C20   C21   S    
C3    C14   A    
O5    Zn1   S    
O3    Zn2   S    
C10   F4    S    
C21   H5    S    
C5    H3    S    
O4    Zn1   S    
C1    O3    A    
C4    F2    S    
C2    O8    A    
C17   C24   S    
