data_mof_unit_48724.cif
_audit_creation_date              2013-03-05T16:06:56-0500
_audit_creation_method            fapswitch 2.2
_symmetry_space_group_name_H-M    P1
_symmetry_Int_Tables_number       1
_space_group_crystal_system       triclinic
_cell_length_a                    10.728916
_cell_length_b                    9.731923
_cell_length_c                    10.914443
_cell_angle_alpha                 90.384571
_cell_angle_beta                  92.867282
_cell_angle_gamma                 90.58544
_cell_volume                      1138.09368906

loop_
_atom_site_label
_atom_site_type_symbol
_atom_site_description
_atom_site_fract_x
_atom_site_fract_y
_atom_site_fract_z
_atom_type_partial_charge
O1    O     O_R   0.319640 0.618740 0.499990 -0.521493
O2    O     O_R   0.680360 0.618740 0.500010 -0.539894
O3    O     O_R   0.319620 0.381170 0.499990 -0.545415
O4    O     O_R   0.680380 0.381170 0.500010 -0.553354
C1    C     C_R   0.262830 0.499511 0.498590 0.786434
C2    C     C_R   0.737069 0.500443 0.499517 0.789968
O5    O     O_R   0.499990 0.618810 0.319660 -0.553024
O6    O     O_R   0.500010 0.618810 0.680340 -0.539203
O7    O     O_R   0.499960 0.381240 0.319650 -0.577691
O8    O     O_R   0.500040 0.381240 0.680350 -0.559984
C3    C     C_R   0.506557 0.499197 0.263599 0.850770
C4    C     C_R   0.497915 0.499896 0.737207 0.775440
Cu1   Cu    Cu3+1 0.500000 0.640660 0.500000 1.085871
Cu2   Cu    Cu3+1 0.500000 0.359340 0.500000 1.044232
C5    C     C_R   0.516696 0.619283 0.066397 -0.063892
C6    C     C_R   0.518022 0.618836 0.939638 -0.050757
C7    C     C_R   0.512217 0.496353 0.130324 -0.082174
C8    C     C_R   0.493603 0.498220 0.871232 -0.144138
C9    C     C_R   0.511644 0.372306 0.062451 0.120782
C10   C     C_R   0.471280 0.375297 0.937244 0.115049
C11   C     C_3   0.622358 0.724627 0.937682 0.351723
C12   C     C_3   0.612554 0.733313 0.079766 0.316601
C13   C     C_R   0.058970 0.415578 0.415142 -0.073692
C14   C     C_R   0.929824 0.415016 0.416086 -0.055097
H1    H     H_    0.104116 0.353342 0.348312 0.202868
H2    H     H_    0.875806 0.349750 0.351972 0.164285
C15   C     C_R   0.871048 0.501150 0.497848 0.009252
C16   C     C_R   0.128702 0.499446 0.498051 -0.031653
C17   C     C_R   0.940775 0.587223 0.578548 -0.099115
C18   C     C_R   0.069747 0.586093 0.579158 -0.112975
H3    H     H_    0.895536 0.652833 0.642286 0.177510
H4    H     H_    0.123482 0.651442 0.643407 0.165024
C19   C     C_R   0.399406 0.072410 0.453075 0.271603
C20   C     C_R   0.600930 0.075605 0.545557 0.296477
C21   C     C_R   0.397477 0.925379 0.457010 0.262974
C22   C     C_R   0.603772 0.929279 0.538276 0.333994
N1    N     N_R   0.500000 0.852070 0.500000 -0.300341
N2    N     N_R   0.500000 0.147940 0.500000 -0.312857
C23   C     C_3   0.587905 0.250347 0.108698 -0.405853
C24   C     C_3   0.701845 0.229292 0.032279 -0.709895
H5    H     H_    0.673440 0.211713 0.934754 0.308648
H6    H     H_    0.763806 0.321345 0.039095 0.263607
H7    H     H_    0.755806 0.139539 0.066698 0.262386
H8    H     H_    0.628291 0.263466 0.203061 0.240476
H9    H     H_    0.528492 0.157675 0.108261 0.213745
C25   C     C_3   0.406305 0.248376 0.880615 -0.335343
C26   C     C_3   0.275080 0.280523 0.827942 -0.736005
H10   H     H_    0.276928 0.357036 0.753370 0.239277
H11   H     H_    0.230274 0.184946 0.790018 0.268061
H12   H     H_    0.217315 0.321148 0.901443 0.248486
H13   H     H_    0.462900 0.198111 0.811318 0.265749
H14   H     H_    0.392805 0.170015 0.951580 0.205263
C27   C     C_3   0.742612 0.660428 0.887355 -0.403338
C28   C     C_3   0.864357 0.741716 0.915245 -0.596927
H15   H     H_    0.852755 0.853561 0.903038 0.302592
H16   H     H_    0.902958 0.722497 0.009279 0.279787
H17   H     H_    0.936038 0.706758 0.852568 0.204604
H18   H     H_    0.755918 0.554276 0.922123 0.204756
H19   H     H_    0.728484 0.649522 0.786455 0.213406
C29   C     C_3   0.555657 0.865218 0.135123 -0.366589
C30   C     C_3   0.421184 0.900415 0.091606 -0.742925
H20   H     H_    0.417253 0.944940 0.999092 0.271945
H21   H     H_    0.357926 0.809790 0.091155 0.288670
H22   H     H_    0.384112 0.978402 0.154340 0.265044
H23   H     H_    0.556593 0.854179 0.236333 0.235034
H24   H     H_    0.618498 0.952827 0.117934 0.226791
N3    N     N_R   0.584140 0.849922 0.871772 0.140588
O9    O     O_R   0.482629 0.852617 0.801348 -0.373501
O10   O     O_R   0.651015 0.961481 0.884541 -0.374410
N4    N     N_R   0.727347 0.693601 0.150995 0.104498
O11   O     O_R   0.765486 0.567035 0.154469 -0.433461
O12   O     O_R   0.796242 0.787454 0.207585 -0.309594
N5    N     N_R   0.295748 0.140398 0.394148 0.162475
O13   O     O_R   0.306576 0.194284 0.286465 -0.391584
O14   O     O_R   0.186300 0.132333 0.439965 -0.301248
N6    N     N_R   0.707443 0.146498 0.600007 0.191076
O15   O     O_R   0.815213 0.138570 0.550857 -0.290099
O16   O     O_R   0.700066 0.207783 0.705432 -0.351773
N7    N     N_R   0.287457 0.855600 0.409384 0.183049
O17   O     O_R   0.185228 0.860598 0.468484 -0.270839
O18   O     O_R   0.288001 0.788072 0.306390 -0.358694
N8    N     N_R   0.721410 0.866199 0.562689 0.158793
O19   O     O_R   0.795542 0.854781 0.472446 -0.268350
O20   O     O_R   0.770718 0.871030 0.673635 -0.332486

loop_
_geom_bond_atom_site_label_1
_geom_bond_atom_site_label_2
_geom_bond_distance
_ccdc_geom_bond_type
C18   H4    1.083809 S    
O6    Cu1   1.981177 S    
C15   C17   1.395881 A    
N5    O13   1.300210 A    
C9    C10   1.413317 A    
C14   C15   1.397764 A    
C27   H19   1.108347 S    
C26   H11   1.110580 S    
C27   C28   1.536396 S    
O5    C3    1.315614 A    
C6    C11   1.514145 S    
O1    C1    1.304784 A    
C22   N1    1.382336 A    
C21   N1    1.381289 A    
C14   H2    1.083947 S    
C12   C29   1.558219 S    
C5    C6    1.384266 A    
C25   H14   1.104243 S    
C8    C10   1.424964 A    
C30   H21   1.107190 S    
O2    Cu1   1.948949 S    
C19   C21   1.431803 A    
C25   C26   1.530038 S    
C5    C12   1.506654 S    
C2    C15   1.438422 S    
C22   N8    1.423102 S    
C13   C14   1.386101 A    
N4    O11   1.302075 A    
Cu1   N1    2.057426 S    
C23   H9    1.098922 S    
C24   H6    1.109956 S    
C29   H24   1.104424 S    
Cu1   Cu2   2.737785 S    
C11   N3    1.471386 S    
N5    O14   1.300963 A    
O2    C2    1.307728 A    
O8    C4    1.308204 A    
C26   H12   1.111059 S    
C24   H7    1.110056 S    
C28   H16   1.105205 S    
N3    O9    1.301815 A    
N6    O15   1.301519 A    
O4    C2    1.305105 A    
O8    Cu2   1.978479 S    
C23   C24   1.528691 S    
N7    O18   1.298619 A    
C25   H13   1.107743 S    
C29   C30   1.538882 S    
N3    O10   1.298065 A    
C30   H22   1.108823 S    
O7    Cu2   1.981326 S    
C17   C18   1.383564 A    
Cu2   N2    2.057329 S    
C1    C16   1.438764 S    
C26   H10   1.107589 S    
O6    C4    1.317385 A    
C13   C16   1.398084 A    
O7    C3    1.307342 A    
O3    Cu2   1.949059 S    
C9    C23   1.523001 S    
C19   N5    1.427406 S    
C24   H5    1.104167 S    
C29   H23   1.110131 S    
N8    O20   1.297311 A    
O1    Cu1   1.944617 S    
C5    C7    1.390597 A    
C28   H15   1.105018 S    
C3    C7    1.459009 S    
C20   N2    1.371795 A    
N6    O16   1.298785 A    
O3    C1    1.308243 A    
C27   H18   1.111058 S    
C23   H8    1.103281 S    
C19   N2    1.375077 A    
C16   C18   1.397029 A    
C17   H3    1.077670 S    
C11   C27   1.561865 S    
C21   N7    1.429042 S    
C7    C9    1.411934 A    
C20   C22   1.426430 A    
C13   H1    1.081164 S    
O4    Cu2   1.944742 S    
C30   H20   1.100508 S    
N7    O17   1.301114 A    
O5    Cu1   1.978339 S    
C6    C8    1.402258 A    
N8    O19   1.301448 A    
C4    C8    1.466044 S    
N4    O12   1.301949 A    
C11   C12   1.561355 S    
C12   N4    1.479383 S    
C10   C25   1.524043 S    
C20   N6    1.430225 S    
C28   H17   1.109061 S    
