data_mof_unit_55673.cif
_audit_creation_date              2012-12-11T16:29:53-0500
_audit_creation_method            fapswitch 2.2
_symmetry_space_group_name_H-M    P1
_symmetry_Int_Tables_number       1
_space_group_crystal_system       triclinic
_cell_length_a                    9.195518
_cell_length_b                    17.527873
_cell_length_c                    22.977116
_cell_angle_alpha                 97.040266
_cell_angle_beta                  90.924132
_cell_angle_gamma                 96.541093
_cell_volume                      3649.85326147

loop_
_atom_site_label
_atom_site_type_symbol
_atom_type_description
_atom_site_fract_x
_atom_site_fract_y
_atom_site_fract_z
_atom_type_partial_charge
Ba1   Ba    Ba6+2 0.852790 0.535910 0.472200 1.869959
Ba2   Ba    Ba6+2 0.337030 0.464150 0.527810 1.837700
C1    C     C_3   0.718661 0.840543 0.375686 -0.190916
C2    C     C_R   0.081038 0.569138 0.938810 -0.022100
C3    C     C_R   0.035618 0.563484 0.879133 0.621545
C4    C     C_3   0.147286 0.761575 0.331044 0.864601
C5    C     C_R   0.020059 0.425297 0.870352 0.643037
C6    C     C_R   0.055726 0.427885 0.931848 -0.135395
C7    C     C_R   0.086905 0.501610 0.965905 -0.090153
C8    C     C_R   0.117736 0.641631 0.972085 -0.014180
C9    C     C_R   0.163309 0.649012 0.031343 0.023733
C10   C     C_R   0.167596 0.581341 0.060020 -0.012810
C11   C     C_R   0.123511 0.508269 0.027372 -0.059243
C12   C     C_3   0.623580 0.763123 0.376244 0.355302
C13   C     C_R   0.060406 0.360684 0.961366 0.334989
C14   C     C_R   0.084199 0.369020 0.022595 -0.071229
C15   C     C_R   0.116228 0.441708 0.056114 -0.091120
C16   C     C_3   0.212971 0.833736 0.301016 -0.027123
C17   C     C_R   0.142435 0.448472 0.117873 0.653444
C18   C     C_R   0.214589 0.584060 0.119987 0.604890
C19   C     C_2   0.806327 0.480878 0.771657 0.079481
C20   C     C_3   0.753401 0.484584 0.708418 -0.027210
C21   C     C_1   0.011100 0.508933 0.681459 -0.012332
C22   C     C_2   0.059062 0.499794 0.735230 -0.116022
C23   C     C_3   0.467544 0.317443 0.334839 0.537574
C24   C     C_2   0.953680 0.488631 0.784358 0.272437
C25   C     C_R   0.356045 0.570023 0.238774 0.029553
C26   C     C_R   0.387882 0.580953 0.299651 -0.015990
C27   C     C_R   0.160300 0.497660 0.315063 0.053179
C28   C     C_3   0.237024 0.704589 0.683878 0.508918
C29   C     C_R   0.128251 0.488612 0.253542 -0.024283
C30   C     C_R   0.224359 0.526204 0.214168 0.294046
C31   C     C_2   0.874662 0.478805 0.664780 -0.130487
C32   C     C_R   0.411360 0.725923 0.486507 -0.185438
C33   C     C_R   0.551570 0.749601 0.512385 0.066124
C34   C     C_3   0.495688 0.274914 0.270666 0.378788
C35   C     C_R   0.595751 0.830972 0.524853 -0.018510
C36   C     C_R   0.499113 0.884342 0.510043 0.054269
C37   C     C_R   0.355498 0.857262 0.489062 -0.081748
C38   C     C_R   0.310957 0.777841 0.476305 -0.022562
C39   C     C_R   0.568488 0.169200 0.498252 -0.103317
C40   C     C_3   0.157403 0.707297 0.742617 0.329288
C41   C     C_R   0.625820 0.246170 0.496826 0.039183
C42   C     C_R   0.859251 0.221699 0.543628 0.049931
C43   C     C_R   0.803935 0.141170 0.537163 0.002305
C44   C     C_R   0.655349 0.116492 0.518643 0.046949
C45   C     C_3   0.018411 0.196146 0.670379 0.168000
C46   C     C_1   0.594359 0.035307 0.516019 0.018793
C47   C     C_1   0.548301 0.967138 0.513892 0.020791
C48   C     C_R   0.768241 0.271650 0.520859 -0.137731
C49   C     C_3   0.977390 0.259135 0.337513 0.709250
C50   C     C_3   0.968395 0.179426 0.284079 0.690107
C51   C     C_3   0.685756 0.663972 0.660008 0.275948
C52   C     C_3   0.662270 0.708205 0.720885 -0.160791
C53   C     C_3   0.845779 0.657408 0.653698 -0.264535
C54   C     C_3   0.669548 0.660668 0.771859 -0.438619
C55   C     C_3   0.688481 0.881385 0.322702 -0.278452
C56   C     C_3   0.034069 0.110531 0.680726 0.606360
C57   C     C_3   0.312442 0.313669 0.336413 -0.247857
C58   C     C_3   0.329648 0.810460 0.256754 -0.374756
C59   C     C_3   0.509266 0.253486 0.644013 -0.252864
C60   C     C_3   0.199107 0.730300 0.062629 -0.279168
C61   C     C_3   0.700246 0.486031 0.821171 -0.378136
C62   C     C_3   0.833592 0.438150 0.604849 -0.285063
C63   C     C_3   0.903979 0.079418 0.539356 -0.299824
C64   C     C_3   0.742688 0.863091 0.553706 -0.260342
C65   C     C_3   0.373507 0.647271 0.458176 -0.278939
C66   C     C_3   0.095891 0.870711 0.268529 -0.249480
C67   C     C_3   0.516851 0.283932 0.709939 0.564944
C68   C     C_3   0.287478 0.896938 0.348328 -0.403582
C69   C     C_3   0.402293 0.233588 0.740270 -0.144784
C70   C     C_R   0.283074 0.547145 0.335427 -0.116453
H1    H     H_    0.670623 0.735550 0.411888 0.005194
H2    H     H_    0.595410 0.250966 0.267837 0.185129
H3    H     H_    0.835122 0.830552 0.376089 0.175764
H4    H     H_    0.906168 0.198490 0.652999 0.005588
H5    H     H_    0.026594 0.233091 0.713351 0.167188
H6    H     H_    0.931151 0.076401 0.662596 -0.020992
H7    H     H_    0.401434 0.253388 0.787986 0.123428
H8    H     H_    0.424424 0.172341 0.734451 0.192617
H9    H     H_    0.291823 0.237525 0.722404 0.126747
H10   H     H_    0.081953 0.317593 0.044420 0.181018
H11   H     H_    0.438770 0.592096 0.210250 0.119881
H12   H     H_    0.097305 0.650415 0.746747 -0.047665
H13   H     H_    0.112194 0.693596 0.951458 0.170496
H14   H     H_    0.175838 0.504143 0.744862 0.122008
H15   H     H_    0.030140 0.452408 0.236571 0.093208
H16   H     H_    0.302219 0.548445 0.380109 0.091740
H17   H     H_    0.238971 0.727886 0.340064 -0.226511
H18   H     H_    0.459020 0.149342 0.480409 0.114206
H19   H     H_    0.280553 0.898017 0.480003 0.094392
H20   H     H_    0.813374 0.329732 0.516606 0.079723
H21   H     H_    0.337844 0.676289 0.686851 0.006946
H22   H     H_    0.474452 0.806234 0.835107 0.373762
H23   H     H_    0.075034 0.749155 0.744223 0.068089
H24   H     H_    0.859340 0.362725 0.278017 0.355045
H25   H     H_    0.134215 0.336557 0.457853 0.370634
H26   H     H_    0.947307 0.285570 0.188676 0.355081
H27   H     H_    0.083524 0.020737 0.334567 0.346333
H28   H     H_    0.166003 0.223450 0.177727 0.401443
H29   H     H_    0.905446 0.715089 0.649117 0.161246
H30   H     H_    0.889617 0.635898 0.692434 -0.021716
H31   H     H_    0.859173 0.616349 0.614334 0.102835
H32   H     H_    0.643632 0.695950 0.813026 0.197885
H33   H     H_    0.588018 0.608678 0.764755 0.170555
H34   H     H_    0.619124 0.606476 0.653812 0.055335
H35   H     H_    0.780865 0.643978 0.777857 0.144982
H36   H     H_    0.580450 0.902921 0.325176 0.122297
H37   H     H_    0.772299 0.931611 0.323029 0.200635
H38   H     H_    0.695186 0.843262 0.280819 0.191465
H39   H     H_    0.265596 0.255662 0.331533 0.157996
H40   H     H_    0.275717 0.337160 0.379401 0.132189
H41   H     H_    0.277942 0.343915 0.299632 0.161149
H42   H     H_    0.612776 0.453994 0.271823 0.397951
H43   H     H_    0.433330 0.267468 0.112382 0.373217
H44   H     H_    0.387207 0.862297 0.240045 0.150272
H45   H     H_    0.701697 0.879541 0.416166 0.054675
H46   H     H_    0.412381 0.780185 0.277388 0.134702
H47   H     H_    0.279736 0.771877 0.218221 0.213867
H48   H     H_    0.188620 0.099657 0.828440 0.408039
H49   H     H_    0.317953 0.076299 0.570217 0.348559
H50   H     H_    0.613714 0.323432 0.823566 0.302302
H51   H     H_    0.606272 0.278066 0.621983 0.037364
H52   H     H_    0.511263 0.189799 0.637271 0.125540
H53   H     H_    0.408151 0.267401 0.622708 0.156499
H54   H     H_    0.988576 0.641152 0.196997 0.363394
H55   H     H_    0.257548 0.274618 0.889544 0.317696
H56   H     H_    0.553939 0.729061 0.720475 0.206724
H57   H     H_    0.130041 0.738766 0.101583 0.157680
H58   H     H_    0.316921 0.741002 0.075994 0.168900
H59   H     H_    0.177876 0.775003 0.034227 0.124629
H60   H     H_    0.585115 0.471251 0.805267 0.148281
H61   H     H_    0.723009 0.446619 0.853493 0.138630
H62   H     H_    0.712359 0.545718 0.844543 0.122389
H63   H     H_    0.922289 0.430343 0.575469 0.151216
H64   H     H_    0.784335 0.379190 0.610000 0.041328
H65   H     H_    0.757967 0.471205 0.582786 0.108883
H66   H     H_    0.017489 0.103342 0.550893 0.182251
H67   H     H_    0.743267 0.760838 0.729565 0.157846
H68   H     H_    0.863596 0.039097 0.570535 0.099606
H69   H     H_    0.905006 0.045508 0.495260 0.169720
H70   H     H_    0.726062 0.903822 0.593364 0.156972
H71   H     H_    0.806351 0.818906 0.568170 0.171241
H72   H     H_    0.809952 0.894679 0.522626 0.095801
H73   H     H_    0.340815 0.657929 0.414058 -0.028231
H74   H     H_    0.463585 0.614200 0.447986 0.138560
H75   H     H_    0.288915 0.614660 0.482387 0.143938
H76   H     H_    0.050971 0.832512 0.228685 0.179087
H77   H     H_    0.005125 0.883566 0.297969 0.134917
H78   H     H_    0.509359 0.773634 0.385227 -0.079625
H79   H     H_    0.144067 0.925704 0.253401 0.162201
H80   H     H_    0.206237 0.919731 0.379110 0.147900
H81   H     H_    0.370652 0.873311 0.373968 0.091428
H82   H     H_    0.341868 0.946870 0.328241 0.172569
H83   H     H_    0.180426 0.782485 0.580637 0.329958
H84   H     H_    0.429080 0.218807 0.263597 0.128935
N1    N     N_R   0.008365 0.492480 0.845248 -0.451843
N2    N     N_R   0.191835 0.519370 0.150063 -0.430144
O1    O     O_2   0.894270 0.458150 0.360790 -0.346270
O2    O     O_2   0.160853 0.227821 0.527229 -0.355114
O3    O     O_3   0.127413 0.228967 0.635338 -0.596862
O4    O     O_3   0.134750 0.458940 0.431830 -0.491955
O5    O     O_3   0.566070 0.591710 0.528970 -0.503957
O6    O     O_2   0.362610 0.313970 0.472520 -0.477441
O7    O     O_3   0.513556 0.274168 0.379149 -0.551536
O8    O     O_2   0.467961 0.492895 0.698213 -0.466084
O9    O     O_3   0.482514 0.360844 0.723523 -0.610801
O10   O     O_2   0.017069 0.622000 0.857537 -0.548426
O11   O     O_2   0.996526 0.363572 0.839190 -0.419707
O12   O     O_3   0.642618 0.710258 0.619443 -0.601472
O13   O     O_2   0.123700 0.390460 0.142476 -0.556067
O14   O     O_2   0.277224 0.644280 0.145164 -0.591191
O15   O     O_3   0.663190 0.596710 0.395570 -0.413433
O16   O     O_2   0.685101 0.586627 0.282204 -0.375758
O17   O     O_3   0.055274 0.334388 0.328058 -0.725551
O18   O     O_3   0.626183 0.717673 0.321840 -0.558635
O19   O     O_2   0.827090 0.686050 0.527520 -0.461325
O20   O     O_3   0.077580 0.635890 0.424230 -0.446800
O21   O     O_2   0.013620 0.767920 0.487204 -0.458513
O22   O     O_2   0.192233 0.761979 0.856822 -0.223975
O23   O     O_3   0.077048 0.787207 0.382818 -0.640870
O24   O     O_2   0.335772 0.657603 0.820169 -0.339242
O25   O     O_3   0.419650 0.796886 0.796956 -0.471190
O26   O     O_2   0.708600 0.210359 0.343971 -0.287647
O27   O     O_2   0.802606 0.330129 0.405429 -0.281414
O28   O     O_3   0.769127 0.341591 0.295614 -0.527117
O29   O     O_2   0.914641 0.173458 0.425778 -0.237436
O30   O     O_2   0.173141 0.198791 0.408483 -0.281170
O31   O     O_3   0.034380 0.311200 0.456612 -0.542826
O32   O     O_2   0.694703 0.146664 0.230369 -0.188643
O33   O     O_2   0.891142 0.131551 0.165812 -0.163096
O34   O     O_2   0.295430 0.541870 0.639250 -0.452183
O35   O     O_3   0.844882 0.269026 0.198019 -0.467039
O36   O     O_2   0.762248 0.078512 0.338235 -0.209377
O37   O     O_2   0.893616 0.023315 0.257260 -0.259833
O38   O     O_3   0.031317 0.060390 0.357041 -0.449029
O39   O     O_2   0.244043 0.134776 0.294533 -0.298058
O40   O     O_2   0.118525 0.089425 0.203579 -0.176922
O41   O     O_3   0.200328 0.235039 0.219284 -0.551845
O42   O     O_2   0.419458 0.452215 0.393789 -0.408427
O43   O     O_2   0.659010 0.440375 0.375462 -0.164472
O44   O     O_3   0.511515 0.454102 0.285389 -0.566542
O45   O     O_3   0.054960 0.541130 0.568170 -0.485257
O46   O     O_2   0.363878 0.367316 0.201748 -0.261929
O47   O     O_2   0.626846 0.361596 0.189744 -0.238554
O48   O     O_3   0.450084 0.242745 0.148051 -0.410745
O49   O     O_2   0.986051 0.010806 0.760150 -0.203691
O50   O     O_2   0.923137 0.141403 0.789354 -0.136944
O51   O     O_3   0.196580 0.120330 0.790240 -0.478914
O52   O     O_2   0.291385 0.046187 0.688167 -0.173538
O53   O     O_2   0.111904 0.986935 0.612416 -0.265695
O54   O     O_3   0.267305 0.114119 0.595572 -0.551940
O55   O     O_2   0.710939 0.187343 0.727663 -0.269270
O56   O     O_3   0.526510 0.403350 0.604440 -0.505810
O57   O     O_2   0.812220 0.318859 0.713677 -0.371316
O58   O     O_3   0.699496 0.295548 0.814049 -0.389281
O59   O     O_2   0.970534 0.626490 0.314798 -0.277513
O60   O     O_2   0.880278 0.737293 0.277377 -0.302336
O61   O     O_3   0.074720 0.670322 0.219290 -0.565545
O62   O     O_2   0.070248 0.207428 0.966496 -0.244577
O63   O     O_2   0.887576 0.243858 0.900156 -0.109499
O64   O     O_3   0.160083 0.257477 0.870374 -0.430559
O65   O     O_2   0.274039 0.861498 0.719200 -0.128720
O66   O     O_2   0.436405 0.811840 0.644363 -0.293467
O67   O     O_3   0.145387 0.666336 0.636682 -0.680175
O68   O     O_3   0.166120 0.820384 0.614936 -0.446536
O69   O     O_3   0.623640 0.408350 0.471030 -0.385322
O70   O     O_3   0.112120 0.364170 0.575770 -0.475738
P1    P     P_3+3 0.063260 0.435680 0.369690 1.113171
P2    P     P_3+3 0.650710 0.674870 0.544690 0.984795
P3    P     P_3+3 0.123540 0.739424 0.442171 0.997419
P4    P     P_3+3 0.126450 0.564380 0.630310 0.948127
P5    P     P_3+3 0.055538 0.262184 0.572407 1.055570
P6    P     P_3+3 0.582087 0.619664 0.329109 1.095690
P7    P     P_3+3 0.528565 0.311688 0.454854 1.201497
P8    P     P_3+3 0.567448 0.429612 0.681386 0.980733
S1    S     S_3+6 0.278178 0.730354 0.806193 -0.037664
S2    S     S_3+6 0.179874 0.062922 0.644410 -0.023522
S3    S     S_3+6 0.691529 0.271519 0.740838 -0.054266
S4    S     S_3+6 0.013104 0.697292 0.285585 -0.085389
S5    S     S_3+6 0.041058 0.264348 0.925025 0.049734
S6    S     S_3+6 0.283902 0.802226 0.666752 0.018652
S7    S     S_3+6 0.807259 0.284351 0.346635 -0.034374
S8    S     S_3+6 0.030137 0.232308 0.407472 -0.024187
S9    S     S_3+6 0.846959 0.181164 0.219121 0.067195
S10   S     S_3+6 0.907871 0.084635 0.309643 0.063232
S11   S     S_3+6 0.138267 0.157439 0.250944 -0.039186
S12   S     S_3+6 0.516104 0.418272 0.348635 -0.079154
S13   S     S_3+6 0.484423 0.316565 0.202355 0.024137
S14   S     S_3+6 0.031166 0.095355 0.757010 0.070862

loop_
_geom_bond_atom_site_label_1
_geom_bond_atom_site_label_2
_ccdc_geom_bond_type
C16   C68   S    
C19   C24   D    
C13   S5    S    
H83   O68   S    
O17   P1    S    
C68   H81   S    
C60   H58   S    
C49   S8    S    
C60   H57   S    
O60   S4    D    
O5    P2    S    
O45   P4    S    
C50   S9    S    
Ba2   O4    S    
C62   H64   S    
Ba2   O70   S    
C5    C6    A    
O27   S7    D    
C36   C47   S    
O63   S5    D    
C51   C52   S    
O15   P6    S    
C53   H30   S    
Ba1   O15   S    
C24   N1    S    
C59   H52   S    
C32   C38   A    
O1    P1    D    
C8    H13   S    
C33   C35   A    
Ba2   O34   S    
C45   H4    S    
C32   C33   A    
C28   H21   S    
C36   C37   A    
O68   S6    S    
C64   H72   S    
O65   S6    D    
C16   C66   S    
C13   C14   A    
C53   H31   S    
C58   H47   S    
C22   H14   S    
Ba1   Ba2   S    
C3    O10   D    
C67   C69   S    
O48   S13   S    
C7    C11   A    
C12   O18   S    
C66   H77   S    
C1    H45   S    
H55   O64   S    
C63   H68   S    
Ba1   O19   S    
C51   H34   S    
O64   S5    S    
O30   S8    D    
O18   P6    S    
C23   S12   S    
C29   C30   A    
C14   C15   A    
C21   C31   D    
C65   H73   S    
C57   H39   S    
C39   C44   A    
H42   O44   S    
C58   H46   S    
C1    H3    S    
C21   P4    S    
C66   H76   S    
Ba2   P4    S    
O51   S14   S    
C17   O13   D    
C27   C70   A    
Ba1   O69   S    
H25   O31   S    
C39   H18   S    
C62   H63   S    
O43   S12   D    
C18   N2    Am   
C19   C20   S    
O6    P7    D    
C39   C41   A    
C28   O67   S    
C10   C18   A    
C26   C70   A    
O12   P2    S    
O31   S8    S    
Ba1   P2    S    
C37   H19   S    
C69   H8    S    
C70   H16   S    
C40   S1    S    
Ba2   O69   S    
C57   H40   S    
C30   N2    S    
C62   H65   S    
C51   C53   S    
O8    P8    D    
O9    P8    S    
C4    C16   S    
O37   S10   D    
C44   C46   S    
O67   P4    S    
C29   H15   S    
C4    O23   S    
C40   H23   S    
C12   H1    S    
H24   O28   S    
Ba1   O1    S    
C40   H12   S    
C54   H32   S    
Ba2   O6    S    
O19   P2    D    
C6    C7    A    
O36   S10   D    
C64   H71   S    
C23   C34   S    
C23   O7    S    
C43   C44   A    
C52   H56   S    
H27   O38   S    
O39   S11   D    
C69   H7    S    
C49   C50   S    
H26   O35   S    
C55   H37   S    
O61   S4    S    
C32   C65   S    
C67   O9    S    
C54   H35   S    
C35   C36   A    
C61   H62   S    
C63   H69   S    
Ba1   O20   S    
C52   H67   S    
O40   S11   D    
C57   H41   S    
C35   C64   S    
C12   H78   S    
C65   H74   S    
C14   H10   S    
C34   S13   S    
O53   S2    D    
C68   H80   S    
C41   C48   A    
O50   S14   D    
C61   H60   S    
C38   P3    S    
C49   O17   S    
O42   S12   D    
C67   S3    S    
O59   S4    D    
O70   P5    S    
C1    C12   S    
C34   H2    S    
C51   O12   S    
C20   P8    S    
O46   S13   D    
C1    C55   S    
C16   C58   S    
C46   C47   T    
C18   O14   D    
C63   H66   S    
Ba1   O4    S    
O7    P7    S    
C6    C13   A    
C3    N1    Am   
O2    P5    D    
C5    O11   D    
C65   H75   S    
O33   S9    D    
C17   N2    Am   
C56   S14   S    
O57   S3    D    
H22   O25   S    
C45   H5    S    
O21   P3    D    
Ba1   O45   S    
C50   S11   S    
C61   H61   S    
C37   C38   A    
O69   P7    S    
C42   C43   A    
C34   H84   S    
C42   C48   A    
H48   O51   S    
O34   P4    D    
C20   C31   S    
C48   H20   S    
O32   S9    D    
O38   S10   S    
C25   C30   A    
C68   H82   S    
O58   S3    S    
C60   H59   S    
O52   S2    D    
O56   P8    S    
Ba2   O45   S    
C22   C24   S    
O29   S8    D    
O55   S3    D    
C50   S10   S    
Ba2   O5    S    
C9    C10   A    
C52   C54   S    
Ba2   O56   S    
C64   H70   S    
O41   S11   S    
C4    H17   S    
O44   S12   S    
O62   S5    D    
C53   H29   S    
C9    C60   S    
C11   C15   A    
C59   H51   S    
C33   P2    S    
C59   C67   S    
C25   H11   S    
C27   P1    S    
O20   P3    S    
H49   O54   S    
C58   H44   S    
C41   P7    S    
C42   P5    S    
O25   S1    S    
C45   C56   S    
C43   C63   S    
O66   S6    D    
O28   S7    S    
C4    S4    S    
O22   S1    D    
O23   P3    S    
C31   C62   S    
O16   P6    D    
C15   C17   A    
O26   S7    D    
H50   O58   S    
O49   S14   D    
C54   H33   S    
C19   C61   S    
O4    P1    S    
O47   S13   D    
C8    C9    A    
C56   H6    S    
C21   C22   D    
C49   S7    S    
C45   O3    S    
H28   O41   S    
Ba1   P1    S    
C2    C3    A    
C55   H36   S    
O3    P5    S    
C10   C11   A    
Ba1   O5    S    
C27   C29   A    
C5    N1    Am   
C28   S6    S    
H43   O48   S    
C25   C26   A    
C66   H79   S    
O35   S9    S    
C55   H38   S    
C28   C40   S    
C59   H53   S    
C23   C57   S    
C2    C7    A    
C56   S2    S    
C2    C8    A    
O54   S2    S    
H54   O61   S    
O24   S1    D    
C26   P6    S    
C69   H9    S    
