data_mof_unit_27832.cif
_audit_creation_date              2012-12-10T19:07:34-0500
_audit_creation_method            fapswitch 2.2
_symmetry_space_group_name_H-M    P1
_symmetry_Int_Tables_number       1
_space_group_crystal_system       triclinic
_cell_length_a                    10.844472
_cell_length_b                    10.843447
_cell_length_c                    9.538471
_cell_angle_alpha                 89.654703
_cell_angle_beta                  90.72615
_cell_angle_gamma                 90.802977
_cell_volume                      1121.42329762

loop_
_atom_site_label
_atom_site_type_symbol
_atom_type_description
_atom_site_fract_x
_atom_site_fract_y
_atom_site_fract_z
_atom_type_partial_charge
C1    C     C_R   0.503157 0.262288 0.500374 0.813352
C2    C     C_R   0.938672 0.451431 0.618857 0.150089
C3    C     C_3   0.938850 0.500663 0.764804 0.073897
C4    C     C_3   0.078767 0.497563 0.762710 -0.483900
C5    C     C_R   0.527625 0.062275 0.625280 0.164154
C6    C     C_R   0.516272 0.129322 0.500097 -0.151118
C7    C     C_R   0.521344 0.065469 0.372188 -0.173273
C8    C     C_R   0.519261 0.936841 0.371314 -0.201041
C9    C     C_R   0.510937 0.870910 0.498235 -0.106978
C10   C     C_R   0.521284 0.935377 0.623754 0.079860
C11   C     C_3   0.443716 0.928849 0.751786 -0.493384
C12   C     C_R   0.262437 0.496216 0.499076 0.802168
C13   C     C_3   0.456908 0.068341 0.758565 0.075198
C14   C     C_R   0.537891 0.602323 0.073624 0.243008
C15   C     C_R   0.445715 0.406671 0.074245 -0.024365
C16   C     C_R   0.444674 0.407363 0.925223 0.006758
C17   C     C_R   0.537341 0.602591 0.926284 0.236358
C18   C     C_3   0.660365 0.664739 0.922180 -0.476767
C19   C     C_3   0.661062 0.664343 0.081250 -0.462557
C20   C     C_R   0.500765 0.737697 0.499493 0.805357
C21   C     C_R   0.737946 0.497286 0.500467 0.815443
C22   C     C_R   0.065682 0.450038 0.617078 0.070372
C23   C     C_R   0.129652 0.481319 0.495875 -0.102165
C24   C     C_R   0.063014 0.493726 0.369464 -0.196245
C25   C     C_R   0.934492 0.494880 0.370864 -0.172788
C26   C     C_R   0.871250 0.484116 0.498636 -0.148932
Cu1   Cu    Cu3+1 0.499990 0.499980 0.640670 0.978735
Cu2   Cu    Cu3+1 0.500010 0.500020 0.359330 0.961771
H1    H     H_    0.109482 0.510097 0.271091 0.173949
H2    H     H_    0.488828 0.879609 0.840250 0.221342
H3    H     H_    0.368231 0.117999 0.748027 0.119377
H4    H     H_    0.400627 0.332159 0.869212 0.149692
H5    H     H_    0.729882 0.604159 0.877696 0.240948
H6    H     H_    0.657677 0.758590 0.875505 0.200583
H7    H     H_    0.656441 0.758272 0.126572 0.196155
H8    H     H_    0.885798 0.511084 0.272993 0.181196
H9    H     H_    0.904120 0.596245 0.769516 0.112271
H10   H     H_    0.122600 0.590844 0.766946 0.180316
H11   H     H_    0.120258 0.428306 0.834884 0.223333
H12   H     H_    0.520542 0.114160 0.272703 0.201845
H13   H     H_    0.517820 0.889872 0.271456 0.172130
H14   H     H_    0.347771 0.897082 0.728108 0.174948
N1    N     N_R   0.500790 0.500930 0.147930 -0.188857
N2    N     N_R   0.500790 0.500890 0.852020 -0.178249
O1    O     O_R   0.500000 0.319640 0.618810 -0.562737
O2    O     O_R   0.500010 0.319680 0.381230 -0.585511
O3    O     O_R   0.319650 0.499970 0.618810 -0.590881
O4    O     O_R   0.319660 0.500010 0.381230 -0.591147
O5    O     O_R   0.499990 0.680320 0.618770 -0.583971
O6    O     O_R   0.500000 0.680360 0.381190 -0.591394
O7    O     O_R   0.680340 0.499990 0.618770 -0.556385
O8    O     O_R   0.680350 0.500030 0.381190 -0.578633
Br1   Br    Br    0.563940 0.119252 0.913382 -0.518729
H15   H     H_    0.403891 0.329863 0.129649 0.148178
H16   H     H_    0.733244 0.604530 0.127626 0.226224
Br2   Br    Br    0.868378 0.381793 0.895793 -0.479002

loop_
_geom_bond_atom_site_label_1
_geom_bond_atom_site_label_2
_ccdc_geom_bond_type
C2    C22   A    
C23   C24   A    
C6    C7    A    
C16   H4    S    
C4    C22   S    
C3    Br2   S    
C16   N2    A    
C9    C20   S    
C5    C13   S    
C14   C17   A    
C4    H11   S    
C21   O7    A    
C12   O4    A    
Cu2   O2    S    
Cu1   O1    S    
C17   C18   S    
C8    C9    A    
C17   N2    A    
C15   N1    A    
C7    C8    A    
C2    C26   A    
C19   H7    S    
C24   C25   A    
Cu2   O8    S    
C12   C23   S    
C1    O1    A    
C20   O5    A    
C12   O3    A    
Cu1   N2    S    
C5    C10   A    
C21   C26   S    
C4    H10   S    
C2    C3    S    
C13   Br1   S    
C18   H6    S    
C5    C6    A    
C18   H5    S    
C1    O2    A    
C10   C11   S    
C25   H8    S    
C19   H16   S    
C1    C6    S    
C15   H15   S    
Cu1   O5    S    
C11   C13   S    
C8    H13   S    
C3    H9    S    
C11   H14   S    
C18   C19   S    
C9    C10   A    
Cu1   O3    S    
Cu1   Cu2   S    
C24   H1    S    
Cu2   O4    S    
C20   O6    A    
Cu2   N1    S    
C25   C26   A    
C22   C23   A    
C7    H12   S    
Cu2   O6    S    
C14   C19   S    
C13   H3    S    
C21   O8    A    
C3    C4    S    
C15   C16   A    
C11   H2    S    
Cu1   O7    S    
C14   N1    A    
