data_mof_unit_53067.cif
_audit_creation_date              2012-12-11T14:01:20-0500
_audit_creation_method            fapswitch 2.2
_symmetry_space_group_name_H-M    P1
_symmetry_Int_Tables_number       1
_space_group_crystal_system       triclinic
_cell_length_a                    19.096303
_cell_length_b                    10.924837
_cell_length_c                    18.785476
_cell_angle_alpha                 89.995697
_cell_angle_beta                  90.159544
_cell_angle_gamma                 90.103307
_cell_volume                      3919.07952547

loop_
_atom_site_label
_atom_site_type_symbol
_atom_type_description
_atom_site_fract_x
_atom_site_fract_y
_atom_site_fract_z
_atom_type_partial_charge
C1    C     C_R   0.272283 0.043400 0.852965 0.553706
C2    C     C_R   0.727709 0.043332 0.147026 0.559147
C3    C     C_R   0.772283 0.543400 0.852965 0.553707
C4    C     C_R   0.227709 0.543332 0.147026 0.559147
C5    C     C_R   0.489993 0.058370 0.073359 -0.080307
C6    C     C_R   0.509947 0.058685 0.926699 -0.079993
C7    C     C_R   0.989992 0.558369 0.073359 -0.080307
C8    C     C_R   0.009947 0.558685 0.926699 -0.079992
C9    C     C_R   0.994200 0.668850 0.036548 -0.126221
C10   C     C_R   0.005633 0.669014 0.963609 -0.126365
C11   C     C_R   0.494201 0.168850 0.036547 -0.126221
C12   C     C_R   0.505633 0.169014 0.963609 -0.126366
C13   C     C_2   0.249650 0.576349 0.920024 0.090952
C14   C     C_2   0.750225 0.576346 0.079954 0.091009
C15   C     C_2   0.749650 0.076348 0.920024 0.090952
C16   C     C_2   0.250226 0.076345 0.079954 0.091009
C17   C     C_2   0.251559 0.592057 0.079265 -0.078333
C18   C     C_2   0.748461 0.592137 0.920698 -0.079641
C19   C     C_2   0.751559 0.092057 0.079265 -0.078333
C20   C     C_2   0.248461 0.092136 0.920698 -0.079641
C21   C     C_2   0.296186 0.527879 0.038867 -0.133676
C22   C     C_2   0.703660 0.527971 0.961062 -0.133660
C23   C     C_2   0.796186 0.027880 0.038868 -0.133676
C24   C     C_2   0.203660 0.027969 0.961063 -0.133660
C25   C     C_2   0.304903 0.557530 0.963512 -0.108352
C26   C     C_2   0.694959 0.557578 0.036424 -0.108610
C27   C     C_2   0.804903 0.057531 0.963512 -0.108351
C28   C     C_2   0.194960 0.057575 0.036425 -0.108610
C29   C     C_2   0.511553 0.835202 0.583252 -0.099739
C30   C     C_2   0.560930 0.828318 0.436010 -0.074098
C31   C     C_2   0.011552 0.335202 0.583251 -0.099739
C32   C     C_2   0.060931 0.328318 0.436010 -0.074098
C33   C     C_2   0.562338 0.730346 0.479670 0.108238
C34   C     C_2   0.551650 0.743406 0.557316 0.079606
C35   C     C_2   0.062338 0.230346 0.479670 0.108240
C36   C     C_2   0.051649 0.243407 0.557316 0.079605
C37   C     C_2   0.246038 0.569182 0.582197 -0.104376
C38   C     C_2   0.746595 0.610586 0.429905 -0.088330
C39   C     C_2   0.746038 0.069182 0.582197 -0.104376
C40   C     C_2   0.246595 0.110586 0.429905 -0.088328
C41   C     C_2   0.239908 0.573804 0.426703 -0.102020
C42   C     C_2   0.744742 0.600708 0.584777 -0.095542
C43   C     C_2   0.739908 0.073804 0.426703 -0.102020
C44   C     C_2   0.244742 0.100708 0.584777 -0.095542
C45   C     C_R   0.471646 0.822512 0.853089 0.533849
C46   C     C_R   0.528413 0.822396 0.146867 0.545133
C47   C     C_R   0.971647 0.322512 0.853089 0.533848
C48   C     C_R   0.028413 0.322396 0.146867 0.545133
C49   C     C_2   0.183915 0.583013 0.469568 -0.161149
C50   C     C_2   0.782558 0.681295 0.548569 -0.163453
C51   C     C_2   0.683915 0.083013 0.469568 -0.161150
C52   C     C_2   0.282559 0.181294 0.548569 -0.163453
C53   C     C_2   0.188570 0.598146 0.545601 -0.160634
C54   C     C_2   0.769776 0.700372 0.473414 -0.145064
C55   C     C_2   0.688570 0.098146 0.545601 -0.160635
C56   C     C_2   0.269777 0.200371 0.473414 -0.145064
C57   C     C_R   0.261148 0.635865 0.851371 0.551600
C58   C     C_R   0.738818 0.635803 0.148618 0.555447
C59   C     C_R   0.761148 0.135864 0.851371 0.551600
C60   C     C_R   0.238818 0.135803 0.148619 0.555447
C61   C     C_R   0.271384 0.047811 0.649445 0.554152
C62   C     C_R   0.726375 0.043278 0.353316 0.542337
C63   C     C_R   0.771384 0.547811 0.649445 0.554152
C64   C     C_R   0.226375 0.543278 0.353316 0.542337
C65   C     C_R   0.472945 0.824107 0.649577 0.548706
C66   C     C_R   0.566021 0.818851 0.358693 0.595436
C67   C     C_R   0.972945 0.324107 0.649576 0.548706
C68   C     C_R   0.066021 0.318851 0.358693 0.595436
C69   C     C_R   0.259891 0.634047 0.647534 0.555406
C70   C     C_R   0.738613 0.641092 0.355704 0.549136
C71   C     C_R   0.759891 0.134047 0.647534 0.555405
C72   C     C_R   0.238613 0.141092 0.355704 0.549137
C73   C     C_R   0.500972 0.831498 0.074381 -0.000665
C74   C     C_R   0.499306 0.831728 0.925486 0.000091
C75   C     C_R   0.000972 0.331498 0.074381 -0.000665
C76   C     C_R   0.999306 0.331729 0.925486 0.000091
C77   C     C_R   0.497671 0.945110 0.037589 0.042552
C78   C     C_R   0.502432 0.945251 0.962378 0.044196
C79   C     C_R   0.997670 0.445110 0.037589 0.042553
C80   C     C_R   0.002432 0.445251 0.962378 0.044197
C81   C     C_R   0.501155 0.721791 0.963532 -0.158478
C82   C     C_R   0.499504 0.721660 0.036213 -0.158593
C83   C     C_R   0.001155 0.221791 0.963532 -0.158478
C84   C     C_R   0.999504 0.221660 0.036213 -0.158592
Cr1   Cr    Cr6+3 0.230530 0.836340 0.748870 1.013836
Cr2   Cr    Cr6+3 0.769470 0.836340 0.251130 1.012947
Cr3   Cr    Cr6+3 0.730530 0.336340 0.748870 1.013836
Cr4   Cr    Cr6+3 0.269470 0.336340 0.251130 1.012947
Cr5   Cr    Cr6+3 0.387420 0.989430 0.750820 1.017845
Cr6   Cr    Cr6+3 0.612580 0.989430 0.249180 1.016663
Cr7   Cr    Cr6+3 0.887420 0.489430 0.750820 1.017845
Cr8   Cr    Cr6+3 0.112580 0.489430 0.249180 1.016663
Cr9   Cr    Cr6+3 0.385640 0.677860 0.749230 1.009969
Cr10  Cr    Cr6+3 0.614360 0.677860 0.250770 1.030601
Cr11  Cr    Cr6+3 0.885640 0.177860 0.749230 1.009969
Cr12  Cr    Cr6+3 0.114360 0.177860 0.250770 1.030601
H1    H     H_    0.131134 0.585675 0.448105 0.152524
H2    H     H_    0.827134 0.727733 0.572532 0.149166
H3    H     H_    0.631134 0.085675 0.448105 0.152524
H4    H     H_    0.327134 0.227732 0.572532 0.149166
H5    H     H_    0.145207 0.646305 0.570314 0.155407
H6    H     H_    0.784687 0.789522 0.452554 0.154569
H7    H     H_    0.645207 0.146305 0.570314 0.155407
H8    H     H_    0.284689 0.289521 0.452553 0.154569
H9    H     H_    0.293311 0.572736 0.446509 0.096190
H10   H     H_    0.698385 0.559270 0.561653 0.132807
H11   H     H_    0.793311 0.072737 0.446509 0.096190
H12   H     H_    0.198386 0.059270 0.561653 0.132806
H13   H     H_    0.287673 0.514499 0.559212 0.096810
H14   H     H_    0.731820 0.520266 0.448691 0.087293
H15   H     H_    0.787673 0.014499 0.559212 0.096810
H16   H     H_    0.231819 0.020266 0.448691 0.087293
H17   H     H_    0.477912 0.063124 0.129444 0.128693
H18   H     H_    0.522010 0.063705 0.870613 0.123928
H19   H     H_    0.977911 0.563124 0.129444 0.128693
H20   H     H_    0.022010 0.563705 0.870613 0.123927
H21   H     H_    0.988739 0.754637 0.064815 0.105140
H22   H     H_    0.010995 0.754935 0.935417 0.103175
H23   H     H_    0.488740 0.254637 0.064815 0.105140
H24   H     H_    0.510995 0.254935 0.935417 0.103175
H25   H     H_    0.558791 0.920016 0.457476 0.047274
H26   H     H_    0.495706 0.911788 0.550383 0.074968
H27   H     H_    0.058791 0.420017 0.457476 0.047275
H28   H     H_    0.995704 0.411785 0.550382 0.074968
O1    O     O_R   0.215090 0.709860 0.828130 -0.524720
O2    O     O_R   0.784910 0.709860 0.171870 -0.520191
O3    O     O_R   0.715090 0.209860 0.828130 -0.524719
O4    O     O_R   0.284910 0.209860 0.171870 -0.520192
O5    O     O_R   0.445660 0.919250 0.676780 -0.500402
O6    O     O_R   0.554340 0.919250 0.323220 -0.514579
O7    O     O_R   0.945660 0.419250 0.676780 -0.500402
O8    O     O_R   0.054340 0.419250 0.323220 -0.514579
O9    O     O_R   0.456260 0.718170 0.670000 -0.516600
O10   O     O_R   0.543740 0.718170 0.330000 -0.469326
O11   O     O_R   0.956260 0.218170 0.670000 -0.516601
O12   O     O_R   0.043740 0.218170 0.330000 -0.469327
O13   O     O_R   0.320940 0.626760 0.674370 -0.499682
O14   O     O_R   0.679060 0.626760 0.325630 -0.496437
O15   O     O_R   0.820940 0.126760 0.674370 -0.499682
O16   O     O_R   0.179060 0.126760 0.325630 -0.496437
O17   O     O_3   0.334530 0.834540 0.749640 -0.240286
O18   O     O_3   0.665470 0.834540 0.250360 -0.276239
O19   O     O_3   0.834530 0.334540 0.749640 -0.240286
O20   O     O_3   0.165470 0.334540 0.250360 -0.276238
O21   O     O_R   0.236990 0.958390 0.823710 -0.503275
O22   O     O_R   0.763010 0.958390 0.176290 -0.497891
O23   O     O_R   0.736990 0.458390 0.823710 -0.503274
O24   O     O_R   0.263010 0.458390 0.176290 -0.497891
O25   O     O_R   0.332380 0.074750 0.830850 -0.509898
O26   O     O_R   0.667620 0.074750 0.169150 -0.505913
O27   O     O_R   0.832380 0.574750 0.830850 -0.509898
O28   O     O_R   0.167620 0.574750 0.169150 -0.505913
O29   O     O_R   0.445800 0.917770 0.825070 -0.506733
O30   O     O_R   0.554200 0.917770 0.174930 -0.501930
O31   O     O_R   0.945800 0.417770 0.825070 -0.506733
O32   O     O_R   0.054200 0.417770 0.174930 -0.501930
O33   O     O_R   0.456410 0.716580 0.829970 -0.528456
O34   O     O_R   0.543590 0.716580 0.170030 -0.523550
O35   O     O_R   0.956410 0.216580 0.829970 -0.528456
O36   O     O_R   0.043590 0.216580 0.170030 -0.523550
O37   O     O_R   0.321080 0.625290 0.822650 -0.510933
O38   O     O_R   0.678920 0.625290 0.177350 -0.510047
O39   O     O_R   0.821080 0.125290 0.822650 -0.510934
O40   O     O_R   0.178920 0.125290 0.177350 -0.510047
O41   O     O_R   0.214930 0.711450 0.668160 -0.516343
O42   O     O_R   0.785070 0.711450 0.331840 -0.515646
O43   O     O_R   0.714930 0.211450 0.668160 -0.516343
O44   O     O_R   0.285070 0.211450 0.331840 -0.515647
O45   O     O_R   0.236850 0.959870 0.675420 -0.497184
O46   O     O_R   0.763150 0.959870 0.324580 -0.504415
O47   O     O_R   0.736850 0.459870 0.675420 -0.497185
O48   O     O_R   0.263150 0.459870 0.324580 -0.504415
O49   O     O_R   0.332230 0.076350 0.670880 -0.516460
O50   O     O_R   0.667770 0.076350 0.329120 -0.523455
O51   O     O_R   0.832230 0.576350 0.670880 -0.516460
O52   O     O_R   0.167770 0.576350 0.329120 -0.523455
H29   H     H_    0.499858 0.633551 0.937188 0.135230
H30   H     H_    0.501039 0.633347 0.062457 0.135935
H31   H     H_    0.999858 0.133551 0.937188 0.135229
H32   H     H_    0.001040 0.133347 0.062457 0.135935
H33   H     H_    0.324966 0.450266 0.060076 0.139539
H34   H     H_    0.674731 0.450375 0.939825 0.139342
H35   H     H_    0.824966 0.950268 0.060076 0.139539
H36   H     H_    0.174732 0.950372 0.939825 0.139341
H37   H     H_    0.358191 0.570030 0.944731 0.126129
H38   H     H_    0.641690 0.570047 0.055188 0.124877
H39   H     H_    0.858191 0.070033 0.944731 0.126130
H40   H     H_    0.141691 0.070041 0.055189 0.124876
H41   H     H_    0.224669 0.671435 0.057558 0.131002
H42   H     H_    0.775498 0.671513 0.942423 0.130460
H43   H     H_    0.724668 0.171434 0.057557 0.131003
H44   H     H_    0.275498 0.171513 0.942424 0.130460
N1    N     N_3   0.179626 0.550917 0.943294 -0.625996
H45   H     H_    0.156273 0.493702 0.905445 0.222911
H46   H     H_    0.152123 0.633482 0.943955 0.239574
N2    N     N_3   0.820211 0.550973 0.056708 -0.624694
H47   H     H_    0.843438 0.493713 0.094545 0.225811
H48   H     H_    0.847872 0.633550 0.056096 0.239084
N3    N     N_3   0.679627 0.050915 0.943295 -0.625998
H49   H     H_    0.656275 0.993696 0.905446 0.222911
H50   H     H_    0.652122 0.133478 0.943954 0.239575
N4    N     N_3   0.320211 0.050975 0.056708 -0.624695
H51   H     H_    0.343439 0.993717 0.094544 0.225812
H52   H     H_    0.347871 0.133554 0.056096 0.239084
N5    N     N_3   0.568537 0.608924 0.450890 -0.569317
H53   H     H_    0.523093 0.560505 0.463998 0.231878
H54   H     H_    0.610516 0.565015 0.475487 0.234884
N6    N     N_3   0.576021 0.645228 0.602059 -0.646004
H55   H     H_    0.535651 0.581922 0.609611 0.255381
H56   H     H_    0.592773 0.679982 0.651129 0.241359
N7    N     N_3   0.068538 0.108925 0.450890 -0.569318
H57   H     H_    0.023094 0.060505 0.463997 0.231879
H58   H     H_    0.110517 0.065016 0.475488 0.234884
N8    N     N_3   0.076021 0.145230 0.602059 -0.646006
H59   H     H_    0.035651 0.081925 0.609612 0.255383
H60   H     H_    0.092774 0.179984 0.651128 0.241358

loop_
_geom_bond_atom_site_label_1
_geom_bond_atom_site_label_2
_ccdc_geom_bond_type
C16   C28   D    
Cr7   O27   S    
C38   C70   S    
C3    O23   A    
C2    O22   A    
Cr4   O48   S    
C37   C69   S    
Cr2   O2    S    
C9    H21   S    
C68   O12   A    
C61   O45   A    
Cr1   O1    S    
C35   C36   S    
Cr2   O42   S    
Cr5   O49   S    
Cr6   O26   S    
C11   H23   S    
Cr3   O3    S    
C81   C82   A    
Cr12  O12   S    
C47   O35   A    
C77   C78   A    
Cr8   O52   S    
C31   C67   S    
C48   O36   A    
C69   O41   A    
C33   N5    S    
C50   C54   S    
N4    H52   S    
C2    O26   A    
Cr11  O35   S    
Cr8   O8    S    
Cr1   O21   S    
C47   C76   S    
C5    C11   A    
Cr9   O9    S    
C70   O42   A    
C6    C12   A    
C25   H37   S    
Cr7   O7    S    
C16   N4    S    
C75   C84   A    
C6    C78   A    
C24   H36   S    
C59   O3    A    
C62   O50   A    
C55   H7    S    
Cr5   O5    S    
C3    C18   S    
C68   O8    A    
C5    H17   S    
C16   C60   S    
C7    H19   S    
C84   H32   S    
C35   N7    S    
C6    H18   S    
C21   C25   S    
C36   N8    S    
C66   O10   A    
C63   O47   A    
C39   C55   D    
N7    H57   S    
C53   H5    S    
N6    H55   S    
N1    H46   S    
Cr8   O28   S    
C45   O33   A    
C1    O25   A    
C1    O21   A    
C23   C27   S    
C38   H14   S    
C3    O27   A    
C9    C10   A    
Cr10  O38   S    
C37   H13   S    
C32   C68   S    
C37   C53   D    
C44   C52   D    
Cr5   O25   S    
C48   O32   A    
N3    H49   S    
Cr10  O34   S    
C12   H24   S    
C31   H28   S    
C69   O13   A    
C72   O44   A    
C48   C75   S    
C13   C25   D    
Cr3   O23   S    
C62   O46   A    
Cr2   O22   S    
C76   C83   A    
C41   C49   D    
Cr7   O19   S    
C44   H12   S    
C51   H3    S    
C63   O51   A    
C14   C58   S    
Cr3   O43   S    
C50   H2    S    
N4    H51   S    
Cr10  O18   S    
C32   C35   D    
C76   C80   A    
C60   O4    A    
C61   O49   A    
C56   H8    S    
C40   H16   S    
Cr1   O17   S    
N8    H59   S    
C71   O15   A    
C51   C55   S    
C34   N6    S    
N5    H53   S    
C29   C34   D    
C52   H4    S    
Cr1   O45   S    
Cr5   O29   S    
Cr12  O40   S    
C45   C74   S    
C32   H27   S    
C64   O48   A    
C21   H33   S    
C23   H35   S    
C67   O11   A    
C10   H22   S    
Cr11  O39   S    
Cr12  O20   S    
C46   O34   A    
C15   N3    S    
C15   C27   D    
C83   C84   A    
C38   C54   D    
C30   H25   S    
Cr9   O37   S    
Cr3   O47   S    
C29   H26   S    
C82   H30   S    
Cr11  O11   S    
C33   C34   S    
Cr4   O24   S    
Cr7   O51   S    
Cr8   O32   S    
C40   C56   D    
C27   H39   S    
C14   C26   D    
C4    O28   A    
Cr9   O33   S    
C42   H10   S    
N3    H50   S    
C30   C66   S    
C41   H9    S    
C42   C50   D    
C29   C65   S    
C4    C17   S    
C22   H34   S    
C46   O30   A    
N2    H48   S    
Cr12  O36   S    
C58   O2    A    
C22   C26   S    
Cr10  O14   S    
C45   O29   A    
Cr7   O31   S    
C74   C81   A    
C5    C77   A    
C58   O38   A    
C73   C82   A    
Cr9   O17   S    
C19   C23   D    
Cr2   O18   S    
C7    C79   A    
C7    C9    A    
C14   N2    S    
C18   H42   S    
C1    C20   S    
C73   C77   A    
C40   C72   S    
C30   C33   D    
N7    H58   S    
C2    C19   S    
C18   C22   D    
C15   C59   S    
C54   H6    S    
C67   O7    A    
Cr11  O19   S    
C24   C28   S    
N2    H47   S    
Cr12  O16   S    
C65   O5    A    
C11   C12   A    
C70   O14   A    
C44   C61   S    
Cr6   O18   S    
C20   H44   S    
Cr6   O50   S    
Cr11  O15   S    
Cr10  O10   S    
C83   H31   S    
Cr1   O41   S    
C20   C24   D    
C28   H40   S    
C64   O52   A    
C81   H29   S    
Cr4   O4    S    
N6    H56   S    
C57   O1    A    
C26   H38   S    
C43   C51   D    
Cr6   O30   S    
C47   O31   A    
Cr2   O46   S    
Cr5   O17   S    
Cr4   O44   S    
C71   O43   A    
C39   H15   S    
C60   O40   A    
C57   O37   A    
C17   H41   S    
N8    H60   S    
Cr8   O20   S    
C17   C21   D    
C49   C53   S    
Cr9   O13   S    
C8    H20   S    
C49   H1    S    
C79   C80   A    
Cr6   O6    S    
C72   O16   A    
C13   C57   S    
C43   C62   S    
C8    C10   A    
N1    H45   S    
C74   C78   A    
C8    C80   A    
C59   O39   A    
C39   C71   S    
C31   C36   D    
C13   N1    S    
C41   C64   S    
Cr3   O19   S    
N5    H54   S    
C75   C79   A    
C42   C63   S    
Cr4   O20   S    
C46   C73   S    
C65   O9    A    
C52   C56   S    
C43   H11   S    
C19   H43   S    
C66   O6    A    
C4    O24   A    
