data_mof_unit_48664.cif
_audit_creation_date              2013-03-05T16:44:41-0500
_audit_creation_method            fapswitch 2.2
_symmetry_space_group_name_H-M    P1
_symmetry_Int_Tables_number       1
_space_group_crystal_system       triclinic
_cell_length_a                    27.732681
_cell_length_b                    10.699906
_cell_length_c                    9.860375
_cell_angle_alpha                 90.116289
_cell_angle_beta                  90.51785
_cell_angle_gamma                 90.176222
_cell_volume                      2925.79934443

loop_
_atom_site_label
_atom_site_type_symbol
_atom_site_description
_atom_site_fract_x
_atom_site_fract_y
_atom_site_fract_z
_atom_type_partial_charge
O1    O     O_R   0.500010 0.316790 0.614690 -0.618843
O2    O     O_R   0.500000 0.316760 0.385350 -0.629923
C1    C     C_R   0.499380 0.260043 0.499864 0.881749
O3    O     O_R   0.428760 0.500040 0.614660 -0.635355
O4    O     O_R   0.428750 0.500000 0.385310 -0.517627
C2    C     C_R   0.406142 0.501087 0.499579 0.909302
Zn1   Zn    Zn3+2 0.500000 0.500020 0.653130 0.957191
Zn2   Zn    Zn3+2 0.500000 0.499980 0.346870 0.997583
O5    O     O_R   0.500000 0.683240 0.614650 -0.624201
O6    O     O_R   0.499990 0.683210 0.385310 -0.632591
O7    O     O_R   0.571250 0.500000 0.614690 -0.621546
O8    O     O_R   0.571240 0.499960 0.385340 -0.624148
C3    C     C_R   0.499219 0.739976 0.500036 0.873399
C4    C     C_R   0.593980 0.500077 0.500584 0.895006
C5    C     C_R   0.177509 0.388381 0.486768 0.522627
O9    O     O_2   0.202115 0.282431 0.460900 -0.549397
N1    N     N_R   0.201832 0.497596 0.510349 -0.343551
C6    C     C_R   0.178245 0.606882 0.536117 0.515455
C7    C     C_R   0.276815 0.562973 0.403453 -0.197728
C8    C     C_R   0.327119 0.568087 0.401468 0.487021
C9    C     C_R   0.329588 0.436704 0.602976 -0.279128
C10   C     C_R   0.279586 0.435419 0.606415 -0.083572
C11   C     C_R   0.253204 0.498119 0.506436 0.243772
C12   C     C_R   0.101889 0.498342 0.512098 -0.056089
C13   C     C_R   0.127078 0.386507 0.488009 -0.026799
C14   C     C_R   0.101557 0.276014 0.463635 -0.132843
C15   C     C_R   0.127851 0.609515 0.536596 -0.022189
C16   C     C_R   0.353622 0.501483 0.499997 -0.139379
H1    H     H_    0.349512 0.386012 0.680028 0.179925
H2    H     H_    0.261261 0.385615 0.686480 0.164719
H3    H     H_    0.120134 0.189267 0.442578 0.190217
C17   C     C_R   0.646671 0.500419 0.501958 -0.109955
C18   C     C_R   0.974213 0.385717 0.498365 0.066433
C19   C     C_R   0.975069 0.615649 0.516587 -0.025833
C20   C     C_R   0.949346 0.501399 0.505457 0.074127
C21   C     C_R   0.947127 0.273728 0.499406 -0.214041
C22   C     C_R   0.897207 0.275449 0.499725 -0.128714
C23   C     C_R   0.872460 0.388764 0.500099 0.001356
C24   C     C_R   0.898255 0.502560 0.502850 -0.106479
C25   C     C_R   0.872910 0.617061 0.503759 -0.158497
C26   C     C_R   0.822217 0.613805 0.506669 0.574535
N2    N     N_R   0.798436 0.502014 0.503749 -0.344302
C27   C     C_R   0.822148 0.390786 0.499738 0.562391
C28   C     C_R   0.722206 0.499143 0.627300 0.454646
C29   C     C_R   0.672053 0.498676 0.625850 -0.259803
C30   C     C_R   0.672020 0.502679 0.379412 -0.191854
C31   C     C_R   0.722070 0.503219 0.380834 -0.170394
C32   C     C_R   0.747121 0.501436 0.504303 0.230593
O10   O     O_2   0.796927 0.282659 0.496154 -0.539520
C33   C     C_R   0.025191 0.385440 0.491967 0.043854
C34   C     C_R   0.050836 0.499136 0.511088 0.074683
C35   C     C_R   0.026001 0.613728 0.528643 0.076163
C36   C     C_R   0.051566 0.275241 0.465355 -0.216976
H4    H     H_    0.653096 0.496916 0.721405 0.192351
H5    H     H_    0.878037 0.187057 0.500592 0.198075
H6    H     H_    0.963506 0.182727 0.504304 0.135297
H7    H     H_    0.034630 0.187073 0.441406 0.139846
O11   O     O_2   0.203591 0.712444 0.561462 -0.565237
C37   C     C_R   0.103139 0.720450 0.561621 -0.138357
H8    H     H_    0.256020 0.610602 0.325829 0.159579
H9    H     H_    0.122344 0.806572 0.583666 0.192513
C38   C     C_R   0.948988 0.728615 0.512749 -0.298759
C39   C     C_R   0.898963 0.730432 0.501780 0.535040
O12   O     O_2   0.796597 0.720554 0.513949 -0.502595
C40   C     C_R   0.053169 0.722745 0.558066 -0.218108
H10   H     H_    0.966450 0.818632 0.513021 0.154355
H11   H     H_    0.653272 0.504149 0.282600 0.180385
H12   H     H_    0.741524 0.505037 0.286111 0.168564
H13   H     H_    0.036933 0.811300 0.582044 0.144542
C41   C     C_R   0.494758 0.064209 0.622297 0.119658
C42   C     C_R   0.494175 0.128356 0.499714 -0.092544
C43   C     C_R   0.486809 0.064084 0.377370 -0.222385
H14   H     H_    0.483892 0.112315 0.281325 0.164897
C44   C     C_R   0.486846 0.935258 0.377483 -0.229812
H15   H     H_    0.484327 0.886559 0.281332 0.169072
C45   C     C_R   0.493766 0.871604 0.500126 -0.096915
C46   C     C_R   0.494179 0.936520 0.622664 0.135597
C47   C     C_3   0.529654 0.929605 0.737498 -0.483176
C48   C     C_3   0.530852 0.070941 0.735728 -0.460796
H16   H     H_    0.513088 0.891609 0.830997 0.195589
H17   H     H_    0.564412 0.886044 0.708150 0.211822
H18   H     H_    0.515962 0.113242 0.829219 0.195471
H19   H     H_    0.566134 0.110014 0.703402 0.214711
C49   C     C_R   0.486443 0.395478 0.069728 0.122383
N3    N     N_R   0.499670 0.499140 0.142800 -0.083782
C50   C     C_R   0.517650 0.598900 0.072729 -0.099734
H20   H     H_    0.531221 0.679551 0.127389 0.138227
C51   C     C_R   0.517667 0.598824 0.928759 -0.104807
H21   H     H_    0.531532 0.678876 0.875136 0.139227
N4    N     N_R   0.499670 0.499180 0.857150 -0.089677
C52   C     C_R   0.487508 0.394727 0.927471 0.144102
C53   C     C_3   0.441330 0.324895 0.914467 -0.523495
C54   C     C_3   0.438858 0.327753 0.068297 0.204953
H22   H     H_    0.412975 0.380129 0.861706 0.246585
H23   H     H_    0.446319 0.229370 0.873023 0.163425
H24   H     H_    0.440843 0.233555 0.114936 0.089691
O13   O     O_3   0.876217 0.845408 0.498184 -0.598218
C55   C     C_3   0.866625 0.879756 0.361867 0.164520
H25   H     H_    0.835630 0.945303 0.363096 0.208321
H26   H     H_    0.855285 0.799069 0.296933 0.125106
C56   C     C_3   0.910056 0.946689 0.299326 -0.466618
H27   H     H_    0.924274 0.017733 0.371495 0.233026
H28   H     H_    0.939054 0.878001 0.278839 0.221686
C57   C     C_3   0.896363 0.010911 0.166516 -0.856819
H29   H     H_    0.882070 0.941430 0.092439 0.274050
H30   H     H_    0.928740 0.056372 0.122889 0.267364
H31   H     H_    0.868678 0.083738 0.184670 0.273415
Cl1   Cl    Cl    0.389004 0.419029 0.122927 -0.529938
Cl2   Cl    Cl    0.753251 0.496844 0.783624 -0.584778
O14   O     O_3   0.350217 0.633870 0.300345 -0.579164
C58   C     C_3   0.348263 0.762772 0.330600 0.078519
H32   H     H_    0.369303 0.783112 0.425020 0.126165
H33   H     H_    0.310347 0.794725 0.343541 0.153756
C59   C     C_3   0.370306 0.835700 0.213352 -0.298507
H34   H     H_    0.408494 0.807295 0.200904 0.227462
H35   H     H_    0.350527 0.812908 0.117860 0.243193
C60   C     C_3   0.367808 0.976457 0.237934 -0.925712
H36   H     H_    0.329640 0.007524 0.239832 0.285620
H37   H     H_    0.386601 0.026418 0.155053 0.262106
H38   H     H_    0.385373 0.001325 0.335969 0.274193

loop_
_geom_bond_atom_site_label_1
_geom_bond_atom_site_label_2
_geom_bond_distance
_ccdc_geom_bond_type
C56   H27   1.109327 S    
C17   C29   1.404566 A    
C1    C42   1.415969 S    
C58   H32   1.115000 S    
C12   C15   1.407883 A    
C57   H30   1.110412 S    
O13   C55   1.417279 S    
C46   C47   1.495375 S    
Zn1   O7    2.015341 S    
N1    C11   1.425540 S    
C25   C39   1.410278 A    
C44   C45   1.401100 A    
C21   C22   1.384621 A    
Zn2   N3    2.012147 S    
C60   H37   1.110423 S    
C54   Cl1   1.781908 S    
C23   C24   1.410397 A    
O7    C4    1.294632 A    
C47   H16   1.111011 S    
C5    C13   1.398831 A    
C5    O9    1.350050 S    
C19   C38   1.410906 A    
C18   C21   1.412397 A    
C5    N1    1.365987 A    
C19   C20   1.417044 A    
C26   N2    1.364258 A    
O5    C3    1.283993 A    
O14   C58   1.411841 S    
C49   N3    1.368739 A    
C6    O11   1.350234 S    
C2    C16   1.456586 S    
C7    C8    1.396266 A    
C41   C42   1.391191 A    
C49   C52   1.403289 A    
C28   Cl2   1.759007 S    
C12   C34   1.415836 A    
C14   H3    1.083577 S    
C56   H28   1.110689 S    
O1    Zn1   1.996094 S    
C9    C10   1.387440 A    
C41   C46   1.366316 A    
O3    Zn1   2.008393 S    
C57   H29   1.110892 S    
C33   C34   1.418686 A    
C37   H9    1.083587 S    
C33   C36   1.414826 A    
C44   H15   1.082506 S    
C38   H10   1.076727 S    
C34   C35   1.419223 A    
C12   C13   1.408294 A    
O3    C2    1.291686 A    
C60   H38   1.110041 S    
C4    C17   1.461216 S    
C52   C53   1.485096 S    
C36   H7    1.077350 S    
C47   C48   1.512685 S    
C27   O10   1.350338 S    
C8    C16   1.408945 A    
C18   C33   1.415736 A    
N3    C50   1.367972 A    
Zn1   N4    2.011855 S    
C9    H1    1.082894 S    
C53   H23   1.109527 S    
C30   H11   1.083039 S    
O1    C1    1.283628 A    
C20   C24   1.416979 A    
C22   C23   1.395079 A    
C21   H6    1.076695 S    
C48   H18   1.109745 S    
C31   C32   1.396464 A    
C3    C45   1.416970 S    
Zn2   O8    2.008393 S    
C38   C39   1.390759 A    
C53   H22   1.111319 S    
N1    C6    1.366146 A    
C58   H33   1.115036 S    
N2    C32   1.423168 S    
C45   C46   1.392412 A    
C8    O14   1.382613 S    
C43   C44   1.378438 A    
C25   C26   1.406728 A    
C9    C16   1.402848 A    
O8    C4    1.294615 A    
C29   H4    1.083253 S    
C56   C57   1.525658 S    
C55   H26   1.116536 S    
N2    C27   1.362169 A    
C14   C36   1.386649 A    
C31   H12   1.083024 S    
C24   C25   1.414396 A    
C28   C29   1.390820 A    
C7    C11   1.397685 A    
Zn1   O5    1.997572 S    
C30   C31   1.387959 A    
C10   H2    1.082967 S    
C41   C48   1.495697 S    
C50   H20   1.081331 S    
C17   C30   1.403659 A    
O2    Zn2   1.997573 S    
C6    C15   1.397984 A    
C51   N4    1.368105 A    
C43   H14   1.081947 S    
O6    C3    1.283281 A    
O4    Zn2   2.015344 S    
C59   H35   1.111687 S    
C59   H34   1.110484 S    
C7    H8    1.083311 S    
C54   H24   1.110027 S    
C55   C56   1.534224 S    
C19   C35   1.416620 A    
O2    C1    1.283216 A    
C13   C14   1.395364 A    
C23   C27   1.395477 A    
C39   O13   1.384641 S    
C15   C37   1.395128 A    
C60   H36   1.110746 S    
C37   C40   1.386206 A    
C48   H19   1.112422 S    
C47   H17   1.112383 S    
N4    C52   1.359675 A    
O4    C2    1.294423 A    
C40   H13   1.077084 S    
C53   C54   1.519232 S    
C18   C20   1.420687 A    
C58   C59   1.527329 S    
C50   C51   1.419606 A    
C49   C54   1.503511 S    
C59   C60   1.526868 S    
C22   H5    1.083633 S    
C42   C43   1.400462 A    
C51   H21   1.079159 S    
Zn2   O6    1.996093 S    
C55   H25   1.111196 S    
C10   C11   1.396395 A    
C26   O12   1.349150 S    
C57   H31   1.111010 S    
C35   C40   1.414849 A    
C28   C32   1.401447 A    
