data_mof_unit_34404.cif
_audit_creation_date              2012-12-11T15:31:54-0500
_audit_creation_method            fapswitch 2.2
_symmetry_space_group_name_H-M    P1
_symmetry_Int_Tables_number       1
_space_group_crystal_system       triclinic
_cell_length_a                    13.579763
_cell_length_b                    13.581736
_cell_length_c                    27.672939
_cell_angle_alpha                 90.351426
_cell_angle_beta                  90.187293
_cell_angle_gamma                 119.957558
_cell_volume                      4421.80109183

loop_
_atom_site_label
_atom_site_type_symbol
_atom_type_description
_atom_site_fract_x
_atom_site_fract_y
_atom_site_fract_z
_atom_type_partial_charge
C1    C     C_R   0.619457 0.898399 0.431269 0.545756
C2    C     C_R   0.630911 0.234649 0.208703 -0.104146
C3    C     C_R   0.620246 0.217246 0.258614 -0.100762
C4    C     C_R   0.666083 0.310356 0.290670 0.041934
C5    C     C_R   0.687704 0.345357 0.190651 0.041860
C6    C     C_1   0.694298 0.365209 0.139439 -0.055485
C7    C     C_1   0.650228 0.290470 0.341810 -0.054989
C8    C     C_1   0.701624 0.390707 0.097431 -0.011852
C9    C     C_1   0.232580 0.862939 0.382702 -0.011177
C10   C     C_R   0.276227 0.893230 0.257377 -0.100728
C11   C     C_R   0.257164 0.883885 0.207410 -0.104155
C12   C     C_R   0.599685 0.218511 0.431305 0.544540
C13   C     C_R   0.053822 0.784642 0.221214 -0.100966
C14   C     C_R   0.072881 0.793876 0.271179 -0.104065
C15   C     C_R   0.184185 0.847755 0.289379 0.041926
C16   C     C_R   0.145844 0.829110 0.189208 0.041714
C17   C     C_1   0.124179 0.813906 0.137938 -0.055332
C18   C     C_1   0.205671 0.854418 0.340643 -0.054948
C19   C     C_1   0.096899 0.794485 0.095917 -0.011292
C20   C     C_1   0.634534 0.865989 0.383631 -0.010957
C21   C     C_R   0.701101 0.771662 0.272751 -0.103980
C22   C     C_R   0.708655 0.759742 0.222858 -0.100971
C23   C     C_R   0.279498 0.878865 0.430539 0.545361
C24   C     C_R   0.608148 0.862588 0.208279 -0.104094
C25   C     C_R   0.600495 0.874407 0.258167 -0.100806
C26   C     C_R   0.647400 0.829482 0.290518 0.041893
C27   C     C_R   0.662670 0.805588 0.190504 0.041759
C28   C     C_1   0.675742 0.796723 0.139299 -0.055416
C29   C     C_1   0.642119 0.846178 0.341690 -0.054901
C30   C     C_1   0.693074 0.786983 0.097300 -0.011428
C31   C     C_R   0.619570 0.246290 0.619707 0.044069
C32   C     C_R   0.702541 0.351938 0.637594 -0.145436
C33   C     C_R   0.717152 0.368427 0.687436 -0.090346
C34   C     C_R   0.620412 0.900813 0.569056 0.539089
C35   C     C_R   0.649681 0.278668 0.718677 0.076070
C36   C     C_R   0.569274 0.172477 0.700347 -0.106878
C37   C     C_R   0.554159 0.156470 0.650986 -0.112277
C38   C     C_R   0.566210 0.291067 0.796046 0.108832
C39   C     C_R   0.580769 0.325761 0.844145 -0.133040
C40   C     C_R   0.774971 0.363003 0.843006 -0.131267
C41   C     C_R   0.762494 0.329117 0.794678 0.112616
C42   C     C_R   0.658890 0.296989 0.770749 0.072024
C43   C     C_R   0.685768 0.365641 0.867186 -0.030806
C44   C     C_R   0.218467 0.860409 0.613324 0.020805
C45   C     C_R   0.600636 0.221454 0.568827 0.531287
C46   C     C_R   0.234875 0.953908 0.641094 -0.134698
C47   C     C_R   0.206052 0.940276 0.689403 -0.128542
C48   C     C_R   0.156959 0.832458 0.710549 0.034321
C49   C     C_R   0.130142 0.737097 0.681432 -0.118831
C50   C     C_R   0.161856 0.751151 0.633112 -0.127530
C51   C     C_R   0.155150 0.741581 0.788811 -0.137044
C52   C     C_R   0.133353 0.727671 0.837977 -0.159442
C53   C     C_R   0.092687 0.883744 0.837963 0.139667
C54   C     C_R   0.109353 0.892383 0.787937 -0.098325
C55   C     C_R   0.138913 0.820924 0.763092 0.002066
C56   C     C_R   0.278406 0.880776 0.567675 0.535183
C57   C     C_R   0.097521 0.794683 0.862681 0.025097
C58   C     C_R   0.638566 0.862640 0.615897 0.020597
C59   C     C_R   0.546804 0.769992 0.638463 -0.126789
C60   C     C_R   0.552746 0.749982 0.687185 -0.122961
C61   C     C_R   0.651182 0.821038 0.713906 0.034315
C62   C     C_R   0.746312 0.907894 0.690488 -0.123838
C63   C     C_R   0.739926 0.928889 0.641786 -0.126084
C64   C     C_R   0.707885 0.902061 0.796886 -0.128979
C65   C     C_R   0.720930 0.888937 0.845825 -0.129544
C66   C     C_R   0.615677 0.684088 0.835017 -0.127853
C67   C     C_1   0.631085 0.264548 0.383726 -0.010986
C68   C     C_R   0.604320 0.697334 0.785994 -0.123891
C69   C     C_R   0.653682 0.806522 0.766316 0.035988
C70   C     C_R   0.678366 0.779889 0.864769 0.030044
C71   C     C_R   0.049298 0.761135 0.048241 0.542580
C72   C     C_R   0.714316 0.435776 0.049718 0.544728
C73   C     C_R   0.723603 0.770740 0.049547 0.543752
C74   C     C_R   0.044206 0.756490 0.910346 0.545555
C75   C     C_R   0.707827 0.428507 0.912536 0.545493
C76   C     C_R   0.717189 0.765046 0.911913 0.543594
C77   C     C_R   0.723868 0.421059 0.272635 -0.104075
C78   C     C_R   0.734644 0.438464 0.222717 -0.100914
Cr1   Cr    Cr6+3 0.417720 0.831920 0.499820 1.022419
Cr2   Cr    Cr6+3 0.668190 0.085770 0.500360 1.029500
Cr3   Cr    Cr6+3 0.414060 0.082260 0.499840 1.025605
Cr4   Cr    Cr6+3 0.908000 0.821090 0.979770 1.032140
Cr5   Cr    Cr6+3 0.912420 0.571130 0.979880 1.021527
Cr6   Cr    Cr6+3 0.657970 0.566940 0.980940 1.021501
H1    H     H_    0.759344 0.493612 0.297018 0.103541
H2    H     H_    0.751421 0.715832 0.209485 0.098678
H3    H     H_    0.572714 0.898764 0.183692 0.103160
H4    H     H_    0.559001 0.919577 0.271530 0.098359
H5    H     H_    0.512117 0.329394 0.862326 0.136023
H6    H     H_    0.779423 0.450967 0.701722 0.125597
H7    H     H_    0.856644 0.393610 0.860628 0.131672
H8    H     H_    0.518046 0.102627 0.724265 0.119038
H9    H     H_    0.778275 0.524520 0.209092 0.098889
H10   H     H_    0.491765 0.073569 0.636984 0.118583
H11   H     H_    0.278604 0.039248 0.626724 0.137468
H12   H     H_    0.182574 0.688475 0.770811 0.109974
H13   H     H_    0.139782 0.660748 0.856226 0.131655
H14   H     H_    0.228519 0.015666 0.710422 0.100721
H15   H     H_    0.088449 0.652332 0.696335 0.106507
H16   H     H_    0.147182 0.677611 0.611955 0.125655
H17   H     H_    0.467416 0.717324 0.619416 0.133417
H18   H     H_    0.593805 0.162111 0.184309 0.103125
H19   H     H_    0.743308 0.986836 0.782625 0.092581
H20   H     H_    0.769044 0.963788 0.868306 0.117124
H21   H     H_    0.478231 0.682553 0.704403 0.102399
H22   H     H_    0.562306 0.622236 0.763187 0.102250
H23   H     H_    0.583054 0.598885 0.848745 0.130673
H24   H     H_    0.824489 0.961611 0.710156 0.097786
H25   H     H_    0.812119 0.000330 0.625147 0.131370
H26   H     H_    0.362730 0.934829 0.271076 0.098479
H27   H     H_    0.328919 0.918128 0.183098 0.103180
H28   H     H_    0.967297 0.741655 0.207513 0.098806
H29   H     H_    0.001099 0.758114 0.295485 0.103356
H30   H     H_    0.737930 0.736874 0.297335 0.103609
O1    O     O_R   0.302900 0.805360 0.446400 -0.504432
O2    O     O_R   0.657980 0.180990 0.549630 -0.496362
O3    O     O_R   0.503420 0.197810 0.553190 -0.515061
O4    O     O_R   0.320350 0.978840 0.548910 -0.508077
O5    O     O_3   0.499990 0.999990 0.500010 -0.250310
O6    O     O_R   0.819150 0.845650 0.033320 -0.507284
O7    O     O_R   0.006060 0.815720 0.028680 -0.497172
O8    O     O_R   0.028100 0.664460 0.032550 -0.505014
O9    O     O_R   0.811290 0.477490 0.029660 -0.493662
O10   O     O_R   0.638120 0.455970 0.034270 -0.504845
O11   O     O_R   0.667540 0.672320 0.030160 -0.493337
O12   O     O_R   0.522090 0.841370 0.450730 -0.492871
O13   O     O_R   0.814460 0.840990 0.926980 -0.501390
O14   O     O_R   0.001710 0.811400 0.930110 -0.474588
O15   O     O_R   0.023410 0.659800 0.926210 -0.526340
O16   O     O_R   0.806940 0.473170 0.931090 -0.502239
O17   O     O_R   0.633420 0.451310 0.927930 -0.524921
O18   O     O_R   0.663190 0.668000 0.931580 -0.507329
O19   O     O_3   0.826130 0.653050 0.980200 -0.247433
O20   O     O_R   0.693280 0.995650 0.447220 -0.503941
O21   O     O_R   0.657260 0.178740 0.451050 -0.493839
O22   O     O_R   0.502640 0.195380 0.446850 -0.503321
O23   O     O_R   0.319630 0.976590 0.450330 -0.492224
O24   O     O_R   0.303680 0.807790 0.552740 -0.519791
O25   O     O_R   0.522820 0.843620 0.549310 -0.505755
O26   O     O_R   0.694060 0.998080 0.553560 -0.515423
H31   H     H_    0.754248 0.420740 0.613320 0.102588
N1    N     N_2   0.464060 0.266175 0.771450 -0.520416
H32   H     H_    0.453257 0.336034 0.769527 0.245768
C79   C     C_3   0.363037 0.166642 0.788564 -0.311878
H33   H     H_    0.288352 0.155601 0.767667 0.126951
H34   H     H_    0.347693 0.176273 0.827247 0.136243
H35   H     H_    0.371191 0.089771 0.783757 0.162155
N2    N     N_2   0.856710 0.335612 0.769354 -0.522711
H36   H     H_    0.934835 0.396672 0.782715 0.243240
C80   C     C_3   0.850946 0.227379 0.762044 -0.312966
H37   H     H_    0.923895 0.239391 0.739742 0.136905
H38   H     H_    0.771328 0.166832 0.742746 0.162575
H39   H     H_    0.855141 0.191318 0.797428 0.127137
H40   H     H_    0.098154 0.954152 0.767981 0.100274
N3    N     N_2   0.070581 0.962406 0.863748 -0.480398
H41   H     H_    0.126175 0.004136 0.891959 0.246518
C81   C     C_3   0.032033 0.029971 0.838313 -0.306681
H42   H     H_    0.002178 0.070728 0.864879 0.143029
H43   H     H_    0.959715 0.975268 0.813897 0.160467
H44   H     H_    0.102892 0.097862 0.817464 0.111524
H45   H     H_    0.575109 0.131209 0.272220 0.098581

loop_
_geom_bond_atom_site_label_1
_geom_bond_atom_site_label_2
_ccdc_geom_bond_type
C64   H19   S    
C66   C68   A    
C21   C26   A    
C81   H42   S    
Cr1   O1    S    
N3    C81   S    
C41   C42   A    
C52   H13   S    
C71   O8    A    
C19   C71   S    
C35   C36   A    
C24   C27   A    
Cr4   O6    S    
C66   H23   S    
C1    O12   A    
C66   C70   A    
C77   C78   A    
Cr3   O23   S    
C47   H14   S    
C36   C37   A    
N2    C80   S    
Cr5   O15   S    
C13   H28   S    
C10   C15   A    
C79   H35   S    
C38   C39   A    
C62   H24   S    
C2    H18   S    
C78   H9    S    
C45   O3    A    
C65   C70   A    
Cr3   O3    S    
C34   O25   A    
C58   C63   A    
Cr2   O20   S    
C35   C42   S    
C44   C50   A    
C17   C19   T    
C54   C55   A    
C40   C43   A    
C74   O14   A    
C46   H11   S    
Cr2   O2    S    
C75   O17   A    
C16   C17   S    
C80   H39   S    
Cr1   O5    S    
C12   O22   A    
Cr4   O7    S    
C51   C55   A    
C75   O16   A    
C51   H12   S    
C36   H8    S    
C48   C55   S    
C77   H1    S    
C59   C60   A    
Cr5   O8    S    
C73   O6    A    
C21   C22   A    
C72   O10   A    
C38   N1    S    
C68   H22   S    
C4    C7    S    
C44   C46   A    
C20   C29   T    
C43   C75   S    
C15   C18   S    
C12   C67   S    
Cr6   O19   S    
C8    C72   S    
C11   H27   S    
C51   C52   A    
C59   H17   S    
C24   C25   A    
Cr5   O16   S    
C79   H34   S    
Cr1   O25   S    
C52   C57   A    
C30   C73   S    
C53   C57   A    
C68   C69   A    
C6    C8    T    
C58   C59   A    
Cr2   O26   S    
C23   O1    A    
Cr3   O4    S    
C12   O21   A    
C25   H4    S    
C31   C37   A    
C60   C61   A    
C57   C74   S    
C63   H25   S    
C62   C63   A    
C21   H30   S    
C49   H15   S    
C56   O24   A    
C11   C16   A    
C44   C56   S    
C47   C48   A    
C64   C69   A    
N2    H36   S    
Cr2   O21   S    
Cr4   O14   S    
C32   H31   S    
C48   C49   A    
Cr1   O12   S    
C53   N3    S    
C81   H44   S    
C22   C27   A    
C72   O9    A    
C70   C76   S    
C80   H38   S    
C13   C16   A    
C2    C5    A    
C3    C4    A    
C27   C28   S    
Cr3   O22   S    
C61   C69   S    
Cr6   O11   S    
C46   C47   A    
C40   C41   A    
C1    C20   S    
C14   C15   A    
C56   O4    A    
C23   O23   A    
C31   C32   A    
C9    C23   S    
C79   H33   S    
C54   H40   S    
C39   C43   A    
C53   C54   A    
Cr6   O10   S    
C14   H29   S    
Cr3   O5    S    
Cr6   O17   S    
C50   H16   S    
C80   H37   S    
C64   C65   A    
Cr4   O19   S    
C28   C30   T    
C2    C3    A    
C25   C26   A    
C4    C77   A    
C33   H6    S    
C32   C33   A    
C76   O18   A    
C45   O2    A    
C5    C6    S    
C41   N2    S    
C73   O11   A    
C71   O7    A    
C34   O26   A    
C33   C35   A    
Cr6   O18   S    
C37   H10   S    
C10   H26   S    
N1    C79   S    
C22   H2    S    
C40   H7    S    
C61   C62   A    
C24   H3    S    
Cr4   O13   S    
Cr5   O19   S    
C10   C11   A    
C3    H45   S    
C7    C67   T    
C38   C42   A    
Cr2   O5    S    
C9    C18   T    
Cr1   O24   S    
C26   C29   S    
C81   H43   S    
C49   C50   A    
C31   C45   S    
C74   O15   A    
N3    H41   S    
C34   C58   S    
C76   O13   A    
N1    H32   S    
C65   H20   S    
Cr5   O9    S    
C5    C78   A    
C13   C14   A    
C39   H5    S    
C60   H21   S    
C1    O20   A    
