data_mof_unit_54189.cif
_audit_creation_date              2012-10-26T19:35:14-0400
_audit_creation_method            fapswitch 2.2
_symmetry_space_group_name_H-M    P1
_symmetry_Int_Tables_number       1
_space_group_crystal_system       triclinic
_cell_length_a                    10.774921
_cell_length_b                    10.81742
_cell_length_c                    9.564989
_cell_angle_alpha                 90.03636
_cell_angle_beta                  89.904873
_cell_angle_gamma                 89.59921
_cell_volume                      1114.83590392

loop_
_atom_site_label
_atom_site_type_symbol
_atom_type_description
_atom_site_fract_x
_atom_site_fract_y
_atom_site_fract_z
_atom_type_partial_charge
C1    C     C_R   0.502647 0.262338 0.499878 0.585019
C2    C     C_R   0.523183 0.935240 0.371742 -0.129264
C3    C     C_R   0.518245 0.870465 0.499113 0.039412
C4    C     C_R   0.262567 0.504792 0.500093 0.619796
C5    C     C_R   0.532302 0.936315 0.623683 -0.062476
C6    C     C_3   0.463514 0.929395 0.759298 -0.155244
C7    C     C_3   0.460691 0.069833 0.758270 0.274335
C8    C     C_R   0.552855 0.594946 0.073436 0.042002
C9    C     C_R   0.435357 0.414286 0.074113 0.499531
C10   C     C_R   0.435734 0.414215 0.925435 0.055142
C11   C     C_R   0.552938 0.594882 0.926495 0.080871
C12   C     C_R   0.062879 0.615750 0.556589 -0.036234
C13   C     C_3   0.684277 0.638077 0.920697 0.316201
C14   C     C_3   0.683920 0.638675 0.079437 0.312279
C15   C     C_R   0.504153 0.737537 0.499938 0.581361
C16   C     C_R   0.737276 0.501210 0.499806 0.578930
C17   C     C_R   0.122808 0.722598 0.609055 0.415273
C18   C     C_R   0.053858 0.821642 0.662718 0.461078
C19   C     C_R   0.925027 0.817922 0.663147 -0.116105
C20   C     C_R   0.864050 0.715482 0.609473 -0.145492
C21   C     C_R   0.931505 0.612996 0.556541 -0.064471
C22   C     C_R   0.128608 0.513024 0.499747 -0.037924
C23   C     C_R   0.065778 0.414221 0.439208 -0.071760
C24   C     C_R   0.937774 0.412197 0.438710 0.408720
C25   C     C_R   0.870778 0.509287 0.499317 0.068261
C26   C     C_R   0.530637 0.063502 0.623421 0.026230
C27   C     C_R   0.516330 0.129161 0.498827 0.064795
C28   C     C_R   0.522287 0.064100 0.371603 -0.104080
Cu1   Cu    Cu3+1 0.499990 0.499980 0.640670 1.083315
Cu2   Cu    Cu3+1 0.500010 0.500020 0.359330 1.140520
F1    F     F_    0.341733 0.116728 0.741073 -0.560686
F2    F     F_    0.370400 0.326308 0.142729 -0.605739
F3    F     F_    0.764745 0.549535 0.867335 -0.538686
F4    F     F_    0.764629 0.551045 0.133792 -0.524879
F5    F     F_    0.247416 0.735000 0.604604 -0.625792
F6    F     F_    0.112504 0.923134 0.712299 -0.545006
F7    F     F_    0.878750 0.313567 0.382063 -0.579811
H1    H     H_    0.116578 0.336908 0.394260 0.188037
H2    H     H_    0.520728 0.887194 0.272400 0.130547
H3    H     H_    0.370433 0.887063 0.749175 0.273636
H4    H     H_    0.521930 0.890673 0.844527 0.050151
H5    H     H_    0.513892 0.113423 0.844457 0.122179
H6    H     H_    0.385337 0.343608 0.869697 0.186718
H7    H     H_    0.694450 0.731037 0.872939 0.032585
H8    H     H_    0.693135 0.732047 0.126663 0.047722
H9    H     H_    0.871881 0.895497 0.703408 0.151865
H10   H     H_    0.763798 0.718400 0.608436 0.134703
H11   H     H_    0.519440 0.111927 0.272199 0.183081
N1    N     N_R   0.500790 0.500930 0.147930 -0.206395
N2    N     N_R   0.500790 0.500890 0.852020 -0.255272
O1    O     O_R   0.500000 0.319640 0.618810 -0.503365
O2    O     O_R   0.500010 0.319680 0.381230 -0.451867
O3    O     O_R   0.319640 0.499980 0.618820 -0.456629
O4    O     O_R   0.319650 0.500020 0.381230 -0.465943
O5    O     O_R   0.499990 0.680320 0.618770 -0.492489
O6    O     O_R   0.500000 0.680360 0.381190 -0.534146
O7    O     O_R   0.680350 0.499980 0.618770 -0.460819
O8    O     O_R   0.680360 0.500020 0.381180 -0.423721

loop_
_geom_bond_atom_site_label_1
_geom_bond_atom_site_label_2
_ccdc_geom_bond_type
C12   C17   A    
C14   F4    S    
C2    C28   A    
C23   C24   A    
C13   F3    S    
C6    C7    S    
C4    O3    A    
C23   H1    S    
C1    O1    A    
C9    C10   A    
Cu1   O5    S    
C19   C20   A    
C16   O7    A    
C15   O6    A    
C3    C5    A    
C2    C3    A    
C19   H9    S    
C3    C15   S    
C11   N2    A    
C16   O8    A    
C13   C14   S    
C24   C25   A    
Cu2   O4    S    
C18   F6    S    
C26   C27   A    
Cu1   Cu2   S    
C7    C26   S    
Cu1   O3    S    
C8    C11   A    
C12   C21   A    
Cu2   N1    S    
Cu1   O7    S    
C24   F7    S    
C14   H8    S    
Cu1   N2    S    
C5    C6    S    
C1    O2    A    
C6    H3    S    
C8    N1    A    
C20   H10   S    
C7    F1    S    
C5    C26   A    
C10   N2    A    
C12   C22   A    
C11   C13   S    
C9    N1    A    
C20   C21   A    
C17   C18   A    
C18   C19   A    
Cu1   O1    S    
C7    H5    S    
C16   C25   S    
C1    C27   S    
C4    C22   S    
C21   C25   A    
C22   C23   A    
C28   H11   S    
C8    C14   S    
C17   F5    S    
C9    F2    S    
C4    O4    A    
C10   H6    S    
Cu2   O8    S    
Cu2   O6    S    
C2    H2    S    
C13   H7    S    
Cu2   O2    S    
C27   C28   A    
C6    H4    S    
C15   O5    A    
