data_mof_unit_27423.cif
_audit_creation_date              2012-12-10T19:45:51-0500
_audit_creation_method            fapswitch 2.2
_symmetry_space_group_name_H-M    P1
_symmetry_Int_Tables_number       1
_space_group_crystal_system       triclinic
_cell_length_a                    10.802896
_cell_length_b                    14.982751
_cell_length_c                    14.23709
_cell_angle_alpha                 92.200395
_cell_angle_beta                  105.096767
_cell_angle_gamma                 89.731709
_cell_volume                      2223.16975383

loop_
_atom_site_label
_atom_site_type_symbol
_atom_type_description
_atom_site_fract_x
_atom_site_fract_y
_atom_site_fract_z
_atom_type_partial_charge
C1    C     C_R   0.496999 0.327443 0.497275 0.870626
C2    C     C_R   0.499386 0.671799 0.501528 0.818559
C3    C     C_R   0.475875 0.046639 0.497765 -0.086531
C4    C     C_R   0.480462 0.951513 0.511725 -0.078688
C5    C     C_R   0.402021 0.458496 0.083460 -0.199360
C6    C     C_R   0.559895 0.567436 0.910457 -0.198553
C7    C     C_R   0.404113 0.456872 0.182842 0.103071
C8    C     C_R   0.562587 0.566160 0.811930 0.092421
C9    C     C_R   0.596275 0.541826 0.225283 0.025990
C10   C     C_R   0.437868 0.433720 0.780293 0.029425
C11   C     C_R   0.599409 0.541441 0.126941 -0.237507
C12   C     C_R   0.437887 0.431288 0.879176 -0.234269
C13   C     C_R   0.500672 0.499714 0.053445 0.093513
C14   C     C_R   0.499387 0.499155 0.946656 0.088985
C15   C     C_R   0.258649 0.504489 0.459159 0.937756
C16   C     C_R   0.740891 0.500971 0.541543 1.015086
C17   C     C_2   0.120045 0.507999 0.436578 -0.372476
C18   C     C_2   0.875853 0.519212 0.568105 -0.332071
C19   C     C_2   0.065691 0.530134 0.509386 -0.065421
C20   C     C_2   0.950761 0.481109 0.516664 -0.102383
C21   C     C_R   0.404830 0.098353 0.547451 -0.090015
C22   C     C_R   0.373499 0.901865 0.462062 -0.091294
C23   C     C_R   0.400753 0.190250 0.539557 -0.020655
C24   C     C_R   0.378803 0.809533 0.456748 -0.026776
C25   C     C_R   0.481023 0.230743 0.488806 -0.227525
C26   C     C_R   0.493988 0.767655 0.504723 -0.188324
C27   C     C_R   0.547630 0.177675 0.432800 -0.058337
C28   C     C_R   0.602103 0.817074 0.558999 -0.047453
C29   C     C_R   0.538273 0.084076 0.433271 -0.025796
C30   C     C_R   0.595433 0.910964 0.561732 -0.039281
H1    H     H_    0.672291 0.574907 0.280132 0.149779
H2    H     H_    0.389070 0.381582 0.729936 0.153676
N1    N     N_R   0.500000 0.499980 0.252470 -0.143928
N2    N     N_R   0.500000 0.500020 0.747530 -0.143382
O1    O     O_R   0.500010 0.369070 0.579480 -0.613673
O2    O     O_R   0.499990 0.630930 0.420520 -0.625027
O3    O     O_R   0.500010 0.369060 0.420520 -0.668035
O4    O     O_R   0.499990 0.630940 0.579480 -0.615285
O5    O     O_R   0.317810 0.500010 0.549800 -0.608007
O6    O     O_R   0.682190 0.499990 0.450200 -0.613403
O7    O     O_R   0.317810 0.500000 0.390840 -0.643655
O8    O     O_R   0.682190 0.500000 0.609160 -0.640618
Zn1   Zn    Zn3+2 0.500000 0.500010 0.606140 0.965925
Zn2   Zn    Zn3+2 0.500000 0.499990 0.393860 0.938195
C31   C     C_2   0.923463 0.388431 0.473054 0.489928
H3    H     H_    0.970287 0.361986 0.419422 0.066268
O9    O     O_2   0.852883 0.338462 0.501182 -0.537488
C32   C     C_2   0.126912 0.597709 0.588117 0.531676
H4    H     H_    0.117346 0.591688 0.661599 0.059994
O10   O     O_2   0.187662 0.660784 0.570907 -0.558780
H5    H     H_    0.680120 0.572867 0.109535 0.155828
H6    H     H_    0.391165 0.375571 0.902092 0.162206
H7    H     H_    0.903209 0.579978 0.612362 0.107367
H8    H     H_    0.067104 0.473170 0.370153 0.139694
H9    H     H_    0.350259 0.065986 0.590716 0.205580
H10   H     H_    0.287614 0.936204 0.423698 0.200304
C33   C     C_2   0.308267 0.242021 0.581202 0.425134
H11   H     H_    0.280611 0.308974 0.557997 0.055295
O11   O     O_2   0.259551 0.209753 0.640620 -0.539806
C34   C     C_2   0.263673 0.758132 0.400639 0.519580
H12   H     H_    0.264913 0.685925 0.394542 0.083135
O12   O     O_2   0.164894 0.796102 0.360338 -0.538106
C35   C     C_2   0.633279 0.218224 0.379135 0.586642
H13   H     H_    0.601543 0.272957 0.331374 0.066872
O13   O     O_2   0.740973 0.188905 0.386692 -0.492324
C36   C     C_2   0.720368 0.769307 0.610192 0.535600
H14   H     H_    0.746304 0.706892 0.579376 -0.019759
O14   O     O_2   0.786861 0.796985 0.688854 -0.479606
C37   C     C_2   0.588372 0.024398 0.365053 0.509563
H15   H     H_    0.618765 0.956947 0.384100 0.074994
O15   O     O_2   0.590377 0.048446 0.284480 -0.522900
C38   C     C_2   0.707975 0.968599 0.609494 0.512066
H16   H     H_    0.693694 0.031512 0.645517 0.082755
O16   O     O_2   0.815833 0.949291 0.603956 -0.495971
H17   H     H_    0.323429 0.426508 0.029928 0.182164
H18   H     H_    0.606688 0.621704 0.958806 0.183341
C39   C     C_2   0.303730 0.404814 0.209992 0.415614
H19   H     H_    0.321328 0.376117 0.280397 0.112260
O17   O     O_2   0.199600 0.391153 0.152175 -0.565600
C40   C     C_2   0.638580 0.635448 0.781181 0.469143
H20   H     H_    0.679888 0.622662 0.720955 0.097828
O18   O     O_2   0.659054 0.707775 0.825060 -0.525771

loop_
_geom_bond_atom_site_label_1
_geom_bond_atom_site_label_2
_ccdc_geom_bond_type
C36   O14   D    
C35   O13   D    
C27   C29   A    
C19   C20   S    
C39   H19   S    
C24   C26   A    
C33   O11   D    
C34   O12   D    
C31   O9    D    
C3    C29   A    
C18   H7    S    
O1    Zn1   S    
C5    C13   A    
C20   C31   S    
C1    O3    A    
C7    C39   S    
C32   O10   D    
C36   H14   S    
C13   C14   S    
C9    N1    A    
C7    N1    A    
C12   H6    S    
C29   C37   S    
C39   O17   D    
O5    Zn1   S    
C37   O15   D    
C11   H5    S    
C15   O7    A    
C10   N2    A    
C5    C7    A    
C19   C32   S    
C40   H20   S    
C6    C8    A    
C31   H3    S    
C34   H12   S    
C5    H17   S    
C28   C36   S    
C6    C14   A    
C4    C22   A    
C2    O4    A    
C24   C34   S    
C2    C26   S    
C8    N2    A    
C9    C11   A    
C15   O5    A    
C10   C12   A    
C16   O6    A    
C38   O16   D    
C32   H4    S    
C12   C14   A    
C21   C23   A    
O7    Zn2   S    
C22   C24   A    
O2    Zn2   S    
O8    Zn1   S    
C3    C4    S    
C16   O8    A    
C1    O1    A    
C21   H9    S    
C2    O2    A    
C23   C33   S    
N1    Zn2   S    
N2    Zn1   S    
C38   H16   S    
C30   C38   S    
C1    C25   S    
C6    H18   S    
C25   C27   A    
C26   C28   A    
C22   H10   S    
O3    Zn2   S    
C28   C30   A    
O4    Zn1   S    
C11   C13   A    
C33   H11   S    
C17   C19   D    
C40   O18   D    
C18   C20   D    
C23   C25   A    
C37   H15   S    
C3    C21   A    
C9    H1    S    
C35   H13   S    
C10   H2    S    
O6    Zn2   S    
C16   C18   S    
C8    C40   S    
C27   C35   S    
C15   C17   S    
C17   H8    S    
C4    C30   A    
