data_mof_unit_63323.cif
_audit_creation_date              2012-12-10T16:42:45-0500
_audit_creation_method            fapswitch 2.2
_symmetry_space_group_name_H-M    P1
_symmetry_Int_Tables_number       1
_space_group_crystal_system       triclinic
_cell_length_a                    19.017327
_cell_length_b                    18.957739
_cell_length_c                    18.948277
_cell_angle_alpha                 109.324555
_cell_angle_beta                  109.630112
_cell_angle_gamma                 109.458143
_cell_volume                      5258.79311482

loop_
_atom_site_label
_atom_site_type_symbol
_atom_type_description
_atom_site_fract_x
_atom_site_fract_y
_atom_site_fract_z
_atom_type_partial_charge
C1    C     C_R   0.384483 0.382215 0.501722 0.838503
C2    C     C_R   0.755802 0.580065 0.757944 0.072557
C3    C     C_R   0.812479 0.500096 0.812748 -0.157626
C4    C     C_R   0.744501 0.420986 0.737790 0.066264
C5    C     C_R   0.676107 0.420779 0.677839 0.067424
C6    C     C_R   0.684314 0.500513 0.685559 -0.171463
C7    C     C_R   0.742481 0.341471 0.721385 -0.143753
C8    C     C_R   0.670231 0.263441 0.652805 -0.138685
C9    C     C_R   0.598725 0.262776 0.599551 -0.141347
C10   C     C_R   0.601146 0.340321 0.611711 -0.140556
C11   C     C_2   0.256800 0.250721 0.574526 -0.154695
C12   C     C_R   0.618212 0.500431 0.618308 0.788230
C13   C     C_2   0.180705 0.189703 0.503113 -0.313463
C14   C     C_2   0.317518 0.323601 0.574580 -0.154350
C15   C     C_2   0.322431 0.313456 0.503291 -0.319364
C16   C     C_2   0.174892 0.425653 0.180637 -0.152245
C17   C     C_2   0.184185 0.496954 0.175877 -0.312243
C18   C     C_2   0.248173 0.425633 0.241337 -0.152575
C19   C     C_2   0.309846 0.496839 0.317456 -0.312202
C20   C     C_2   0.743568 0.817996 0.494403 -0.155537
C21   C     C_2   0.819438 0.822587 0.509242 -0.312192
C22   C     C_2   0.682972 0.757350 0.506664 -0.158084
C23   C     C_R   0.615711 0.617316 0.497984 0.842415
C24   C     C_2   0.677926 0.681112 0.491597 -0.313505
C25   C     C_R   0.995341 0.382221 0.878085 0.836367
C26   C     C_R   0.878984 0.499784 0.878677 0.788292
C27   C     C_R   0.997934 0.617378 0.115584 0.834588
C28   C     C_R   0.115241 0.498351 0.113195 0.849603
C29   C     C_R   0.001628 0.119375 0.617152 0.840923
C30   C     C_R   0.117118 0.119328 0.501548 0.839256
C31   C     C_R   0.002014 0.884385 0.382774 0.850168
C32   C     C_R   0.882913 0.884502 0.502284 0.848969
C33   C     C_2   0.992802 0.250592 0.674807 -0.155276
C34   C     C_R   0.379967 0.498239 0.381798 0.848534
C35   C     C_2   0.008369 0.189929 0.685746 -0.313002
C36   C     C_2   0.004432 0.323471 0.747158 -0.154635
C37   C     C_2   0.989160 0.313447 0.808242 -0.319296
C38   C     C_2   0.073488 0.817380 0.321931 -0.153691
C39   C     C_2   0.002567 0.821902 0.313504 -0.327125
C40   C     C_2   0.072066 0.756886 0.247735 -0.165989
C41   C     C_2   0.000299 0.681225 0.186384 -0.335057
C42   C     C_R   0.769549 0.660871 0.765010 -0.237618
C43   C     C_R   0.833457 0.737874 0.841401 -0.180569
C44   C     C_R   0.885219 0.737394 0.913273 0.504617
C45   C     C_R   0.877753 0.657939 0.904103 -0.277711
C46   C     C_R   0.815736 0.579255 0.825400 0.027625
Cu1   Cu    Cu3+1 0.500390 0.438990 0.439360 0.949962
Cu2   Cu    Cu3+1 0.499610 0.561010 0.560640 0.947273
Cu3   Cu    Cu3+1 0.935830 0.439030 0.996840 0.949437
Cu4   Cu    Cu3+1 0.057850 0.561040 0.996790 0.950855
Cu5   Cu    Cu3+1 0.061410 0.000010 0.561410 0.954530
Cu6   Cu    Cu3+1 0.938590 0.999990 0.438590 0.948646
H1    H     H_    0.541478 0.202005 0.547974 0.134880
H2    H     H_    0.160570 0.195607 0.445486 0.155084
H3    H     H_    0.361658 0.384494 0.634891 0.164229
H4    H     H_    0.285153 0.250109 0.445776 0.153475
H5    H     H_    0.114284 0.365217 0.136176 0.161743
H6    H     H_    0.247201 0.554770 0.213506 0.153108
H7    H     H_    0.248485 0.365218 0.225399 0.161939
H8    H     H_    0.304449 0.554593 0.337535 0.153477
H9    H     H_    0.727581 0.862278 0.477626 0.162459
H10   H     H_    0.839566 0.785156 0.535307 0.155315
H11   H     H_    0.638928 0.773497 0.523352 0.161776
H12   H     H_    0.732026 0.666159 0.711831 0.173755
H13   H     H_    0.715181 0.660913 0.465680 0.156441
H14   H     H_    0.975829 0.249491 0.613541 0.164745
H15   H     H_    0.034523 0.196177 0.749417 0.155696
H16   H     H_    0.020882 0.384215 0.747373 0.164939
H17   H     H_    0.963416 0.250202 0.802739 0.154262
H18   H     H_    0.134362 0.861759 0.382240 0.163044
H19   H     H_    0.944355 0.784579 0.250619 0.150241
H20   H     H_    0.131788 0.772641 0.246306 0.164326
H21   H     H_    0.943219 0.661134 0.192675 0.160203
H22   H     H_    0.841507 0.798605 0.845309 0.158500
H23   H     H_    0.920336 0.658122 0.958743 0.139769
H24   H     H_    0.796386 0.338333 0.760787 0.144353
H25   H     H_    0.669201 0.203247 0.641946 0.135268
H26   H     H_    0.543149 0.335865 0.569331 0.148370
H27   H     H_    0.272859 0.249972 0.634873 0.164318
O1    O     O_R   0.411310 0.359450 0.448800 -0.597554
O2    O     O_R   0.048900 0.462510 0.908320 -0.575993
O3    O     O_R   0.855710 0.448510 0.907250 -0.589229
O4    O     O_R   0.958760 0.551540 0.907200 -0.584159
O5    O     O_R   0.944780 0.537560 0.085320 -0.579433
O6    O     O_R   0.047820 0.640590 0.085270 -0.592625
O7    O     O_R   0.034920 0.448530 0.086440 -0.578922
O8    O     O_R   0.137970 0.551560 0.086390 -0.587257
O9    O     O_R   0.051300 0.089020 0.640330 -0.588705
O10   O     O_R   0.947570 0.089010 0.536620 -0.583586
O11   O     O_R   0.140880 0.089030 0.551840 -0.583475
O12   O     O_R   0.410660 0.462490 0.551220 -0.575932
O13   O     O_R   0.037150 0.089020 0.448130 -0.589984
O14   O     O_R   0.052430 0.910990 0.463380 -0.577805
O15   O     O_R   0.948700 0.910980 0.359670 -0.589607
O16   O     O_R   0.962850 0.910980 0.551870 -0.585241
O17   O     O_R   0.859120 0.910970 0.448160 -0.580164
O18   O     O_R   0.589930 0.448490 0.538390 -0.587895
O19   O     O_R   0.589280 0.551530 0.640800 -0.589403
O20   O     O_R   0.589340 0.537510 0.448780 -0.581878
O21   O     O_R   0.588690 0.640550 0.551200 -0.589195
O22   O     O_R   0.410720 0.448470 0.359200 -0.579202
O23   O     O_R   0.410070 0.551510 0.461610 -0.587813
O24   O     O_R   0.945860 0.359480 0.908360 -0.597255
O25   O     O_3   0.946814 0.816713 0.987941 -0.582577
C47   C     C_3   0.960417 0.812316 0.064151 0.057084
H28   H     H_    0.006289 0.788353 0.080067 0.165382
H29   H     H_    0.898983 0.770344 0.058252 0.132669
C48   C     C_3   0.000450 0.902452 0.138938 -0.760484
H30   H     H_    0.956155 0.928508 0.125751 0.246274
H31   H     H_    0.012482 0.900049 0.199409 0.207905
H32   H     H_    0.062652 0.946038 0.147808 0.249163

loop_
_geom_bond_atom_site_label_1
_geom_bond_atom_site_label_2
_ccdc_geom_bond_type
C8    C9    A    
C23   O20   A    
C38   H18   S    
C26   O4    A    
Cu1   O22   S    
C37   H17   S    
C30   O11   A    
C29   O10   A    
C44   O25   S    
Cu6   O17   S    
C7    C8    A    
C45   C46   A    
C2    C46   A    
C47   H29   S    
C34   O23   A    
Cu3   O5    S    
C36   C37   D    
Cu5   O11   S    
C6    C12   S    
C38   C39   D    
C11   C14   S    
C33   C36   S    
Cu1   O20   S    
C48   H30   S    
C18   C19   D    
C20   H9    S    
C27   O6    A    
C29   O9    A    
Cu4   O6    S    
C25   C37   S    
C22   H11   S    
C48   H31   S    
C16   C17   D    
Cu2   O12   S    
Cu4   O4    S    
C23   C24   S    
Cu6   O15   S    
C1    C15   S    
C9    C10   A    
C12   O19   A    
C17   H6    S    
C43   H22   S    
C14   H3    S    
C26   O3    A    
C25   O2    A    
Cu6   O10   S    
C2    C6    A    
Cu1   O1    S    
C4    C7    A    
O25   C47   S    
C21   C32   S    
C33   H14   S    
C10   H26   S    
Cu2   O21   S    
C47   C48   S    
C34   O22   A    
Cu5   Cu6   S    
C13   C30   S    
C30   O13   A    
C25   O24   A    
C31   O14   A    
Cu3   O3    S    
C43   C44   A    
C27   C41   S    
Cu1   Cu2   S    
C35   H15   S    
Cu2   O23   S    
C28   O8    A    
C12   O18   A    
C21   H10   S    
C11   H27   S    
C24   H13   S    
Cu5   O14   S    
Cu4   O8    S    
C40   C41   D    
C32   O17   A    
C20   C22   S    
C28   O7    A    
C8    H25   S    
C22   C24   D    
Cu6   O13   S    
C9    H1    S    
C42   C43   A    
C3    C4    A    
C42   H12   S    
C44   C45   A    
C13   H2    S    
C27   O5    A    
C40   H20   S    
C17   C28   S    
Cu3   O7    S    
C3    C26   S    
C4    C5    A    
C19   C34   S    
Cu5   O9    S    
Cu3   O24   S    
C36   H16   S    
C7    H24   S    
C19   H8    S    
C31   O15   A    
Cu2   O19   S    
C47   H28   S    
C29   C35   S    
C3    C46   A    
Cu1   O18   S    
C48   H32   S    
C45   H23   S    
C15   H4    S    
C5    C10   A    
C38   C40   S    
C11   C13   D    
C5    C6    A    
C2    C42   A    
C33   C35   D    
C31   C39   S    
C23   O21   A    
C16   H5    S    
C41   H21   S    
C18   H7    S    
C32   O16   A    
C20   C21   D    
C16   C18   S    
Cu3   Cu4   S    
C1    O12   A    
C1    O1    A    
C39   H19   S    
C14   C15   D    
Cu4   O2    S    
Cu5   O16   S    
