data_mof_unit_18175.cif
_audit_creation_date              2012-12-10T20:27:14-0500
_audit_creation_method            fapswitch 2.2
_symmetry_space_group_name_H-M    P1
_symmetry_Int_Tables_number       1
_space_group_crystal_system       triclinic
_cell_length_a                    10.775193
_cell_length_b                    10.682218
_cell_length_c                    9.896736
_cell_angle_alpha                 90.134197
_cell_angle_beta                  103.535486
_cell_angle_gamma                 90.915513
_cell_volume                      1107.34101823

loop_
_atom_site_label
_atom_site_type_symbol
_atom_type_description
_atom_site_fract_x
_atom_site_fract_y
_atom_site_fract_z
_atom_type_partial_charge
C1    C     C_R   0.494909 0.259859 0.498188 0.939038
C2    C     C_R   0.576708 0.581296 0.089176 0.214515
C3    C     C_R   0.576140 0.579808 0.945779 -0.134189
C4    C     C_R   0.259238 0.503806 0.442174 0.812605
C5    C     C_R   0.432856 0.410495 0.911814 0.133406
C6    C     C_3   0.292190 0.387204 0.871589 0.429129
C7    C     C_3   0.292744 0.385949 0.025142 -0.492216
C8    C     C_R   0.494501 0.739860 0.498759 0.940856
C9    C     C_R   0.740982 0.504406 0.557762 0.941090
C10   C     C_2   0.123089 0.518986 0.409026 0.477742
C11   C     C_2   0.068377 0.553680 0.510341 -0.278152
C12   C     C_R   0.471191 0.128141 0.490127 -0.217556
C13   C     C_2   0.877690 0.521819 0.589993 -0.343605
C14   C     C_2   0.932306 0.551658 0.486737 -0.082608
C15   C     C_R   0.455443 0.063944 0.607330 -0.032912
C16   C     C_3   0.662793 0.678700 0.174716 -0.795513
C17   C     C_3   0.435491 0.877934 0.850799 -0.850684
C18   C     C_R   0.458044 0.062448 0.363705 0.631677
C19   C     C_R   0.457830 0.933112 0.365246 -0.292525
C20   C     C_R   0.469795 0.870422 0.491915 -0.173653
C21   C     C_R   0.452552 0.936033 0.607999 0.024430
C22   C     C_3   0.519301 0.931976 0.758982 0.737162
C23   C     C_3   0.524738 0.074449 0.756710 -0.410226
C24   C     C_R   0.433028 0.410314 0.054165 0.163055
F1    F     F_    0.262380 0.271049 0.809194 -0.633903
F2    F     F_    0.053667 0.495184 0.277437 -0.660366
F3    F     F_    0.457064 0.121048 0.241793 -0.653290
F4    F     F_    0.639012 0.879120 0.782433 -0.651133
H1    H     H_    0.877004 0.563346 0.380836 0.225262
H2    H     H_    0.466586 0.120892 0.820822 0.235109
H3    H     H_    0.672142 0.671425 0.286392 0.275057
H4    H     H_    0.760530 0.670640 0.157303 0.235897
H5    H     H_    0.627107 0.773328 0.141934 0.225657
H6    H     H_    0.483606 0.892433 0.961854 0.247809
H7    H     H_    0.341269 0.924192 0.829829 0.233605
H8    H     H_    0.418764 0.776301 0.830175 0.235755
H9    H     H_    0.623120 0.113710 0.770025 0.212835
H10   H     H_    0.635252 0.645542 0.904689 0.220329
H11   H     H_    0.237919 0.465342 0.813336 0.077934
H12   H     H_    0.240166 0.465249 0.057060 0.195657
H13   H     H_    0.269588 0.292664 0.063297 0.271528
H14   H     H_    0.123810 0.573266 0.615142 0.143632
H15   H     H_    0.933419 0.509199 0.695735 0.172392
H16   H     H_    0.458430 0.883589 0.269732 0.197027
N1    N     N_R   0.499160 0.499140 0.142600 -0.110322
N2    N     N_R   0.499160 0.499180 0.856960 -0.164722
O1    O     O_R   0.500020 0.316790 0.614700 -0.597185
O2    O     O_R   0.500000 0.316760 0.385350 -0.545563
O3    O     O_R   0.317820 0.500020 0.571850 -0.653798
O4    O     O_R   0.317800 0.499980 0.342510 -0.584783
O5    O     O_R   0.500000 0.683240 0.614650 -0.597176
O6    O     O_R   0.499980 0.683210 0.385300 -0.650585
O7    O     O_R   0.682200 0.500020 0.657490 -0.597243
O8    O     O_R   0.682180 0.499980 0.428150 -0.625466
Zn1   Zn    Zn3+2 0.500010 0.500020 0.653140 0.982176
Zn2   Zn    Zn3+2 0.499990 0.499980 0.346860 0.997007

loop_
_geom_bond_atom_site_label_1
_geom_bond_atom_site_label_2
_ccdc_geom_bond_type
N2    Zn1   S    
C7    H12   S    
C1    O2    A    
C6    C7    S    
C17   H8    S    
C13   C14   D    
C16   H5    S    
C16   H4    S    
C2    C16   S    
C5    N2    A    
C8    O6    A    
C3    N2    A    
C17   C22   S    
N1    Zn2   S    
C12   C15   A    
C13   H15   S    
C4    O3    A    
O3    Zn1   S    
C10   F2    S    
C19   C20   A    
C15   C23   S    
C2    C3    A    
C22   F4    S    
C21   C22   S    
C20   C21   A    
C16   H3    S    
C5    C24   A    
C8    O5    A    
C8    C20   S    
C1    C12   S    
C24   N1    A    
O5    Zn1   S    
O7    Zn1   S    
C2    N1    A    
C5    C6    S    
C11   C14   S    
O8    Zn2   S    
C6    F1    S    
C9    O7    A    
C10   C11   D    
C14   H1    S    
C4    C10   S    
C7    C24   S    
C23   H2    S    
C15   C21   A    
C19   H16   S    
C3    H10   S    
C11   H14   S    
O1    Zn1   S    
C18   C19   A    
C17   H6    S    
C12   C18   A    
O2    Zn2   S    
C9    C13   S    
C6    H11   S    
C1    O1    A    
C9    O8    A    
C17   H7    S    
C23   H9    S    
C22   C23   S    
O4    Zn2   S    
C18   F3    S    
O6    Zn2   S    
C7    H13   S    
C4    O4    A    
