data_mof_unit_47018.cif
_audit_creation_date              2013-03-05T15:41:59-0500
_audit_creation_method            fapswitch 2.2
_symmetry_space_group_name_H-M    P1
_symmetry_Int_Tables_number       1
_space_group_crystal_system       triclinic
_cell_length_a                    11.134173
_cell_length_b                    11.141172
_cell_length_c                    18.677174
_cell_angle_alpha                 90.151841
_cell_angle_beta                  89.907171
_cell_angle_gamma                 120.843167
_cell_volume                      1989.18938945

loop_
_atom_site_label
_atom_site_type_symbol
_atom_site_description
_atom_site_fract_x
_atom_site_fract_y
_atom_site_fract_z
_atom_type_partial_charge
O1    O     O_R   0.910960 0.572410 0.171010 -0.476104
O2    O     O_R   0.427590 0.338550 0.171010 -0.477087
O3    O     O_R   0.661450 0.089040 0.171010 -0.484584
O4    O     O_R   0.572410 0.910960 0.828990 -0.479392
O5    O     O_R   0.338550 0.427590 0.828990 -0.476986
O6    O     O_R   0.089040 0.661450 0.828990 -0.486753
O7    O     O_R   0.639750 0.528530 0.175600 -0.480621
O8    O     O_R   0.471470 0.111220 0.175600 -0.485116
O9    O     O_R   0.888780 0.360250 0.175600 -0.478256
O10   O     O_R   0.528530 0.639750 0.824400 -0.463292
O11   O     O_R   0.111220 0.471470 0.824400 -0.465646
O12   O     O_R   0.360250 0.888780 0.824400 -0.460710
C1    C     C_R   0.520578 0.455041 0.145914 0.627629
C2    C     C_R   0.544885 0.065672 0.146007 0.611949
C3    C     C_R   0.934160 0.479756 0.146011 0.623245
C4    C     C_R   0.459739 0.518855 0.851962 0.608206
C5    C     C_R   0.059524 0.540369 0.852016 0.589661
C6    C     C_R   0.481762 0.940694 0.851933 0.605002
O13   O     O_R   0.909330 0.572400 0.331540 -0.512472
O14   O     O_R   0.427600 0.336930 0.331540 -0.483810
O15   O     O_R   0.663070 0.090670 0.331540 -0.521180
O16   O     O_R   0.572400 0.909330 0.668460 -0.515090
O17   O     O_R   0.336930 0.427600 0.668460 -0.475363
O18   O     O_R   0.090670 0.663070 0.668460 -0.517034
O19   O     O_R   0.638240 0.528520 0.324410 -0.485752
O20   O     O_R   0.471480 0.109720 0.324410 -0.522541
O21   O     O_R   0.890280 0.361760 0.324410 -0.456577
O22   O     O_R   0.528520 0.638240 0.675590 -0.496530
O23   O     O_R   0.109720 0.471480 0.675590 -0.522476
O24   O     O_R   0.361760 0.890280 0.675590 -0.468408
C7    C     C_R   0.545652 0.419957 0.362056 0.522874
C8    C     C_R   0.536851 0.051056 0.349534 0.541818
C9    C     C_R   0.881764 0.456910 0.362555 0.528197
C10   C     C_R   0.424563 0.544471 0.637670 0.511131
C11   C     C_R   0.047732 0.536015 0.651472 0.530258
C12   C     C_R   0.458574 0.884136 0.637500 0.527829
Cr1   Cr    Cr6+3 0.768550 0.541320 0.250660 1.102170
Cr2   Cr    Cr6+3 0.458680 0.227230 0.250660 1.097126
Cr3   Cr    Cr6+3 0.772770 0.231450 0.250660 1.109987
Cr4   Cr    Cr6+3 0.541320 0.768550 0.749340 1.121052
Cr5   Cr    Cr6+3 0.227230 0.458680 0.749340 1.128705
Cr6   Cr    Cr6+3 0.231450 0.772770 0.749340 1.126268
O25   O     O_3   0.666667 0.333333 0.250630 -0.345242
O26   O     O_3   0.333333 0.666667 0.749370 -0.340195
H1    H     H_    0.737775 0.095184 0.053622 0.145470
H2    H     H_    0.901842 0.638659 0.052823 0.144290
H3    H     H_    0.360137 0.260311 0.052481 0.142588
H4    H     H_    0.944298 0.658642 0.927852 0.191280
H5    H     H_    0.716031 0.051617 0.928890 0.190069
H6    H     H_    0.337762 0.283044 0.927616 0.188671
C13   C     C_R   0.504615 0.009696 0.921796 0.053717
C14   C     C_R   0.990513 0.493028 0.921887 0.054855
C15   C     C_R   0.506671 0.497125 0.921620 0.054565
C16   C     C_R   0.978625 0.496447 0.071302 0.039972
C17   C     C_R   0.516928 0.021250 0.071226 0.043819
C18   C     C_R   0.505015 0.482415 0.071067 0.038142
C19   C     C_R   0.391264 0.001372 0.961334 -0.028524
C20   C     C_R   0.000707 0.390170 0.962025 -0.026782
C21   C     C_R   0.611842 0.611490 0.961614 -0.028792
C22   C     C_R   0.019280 0.408637 0.037484 -0.037010
C23   C     C_R   0.388545 0.982291 0.036764 -0.035700
C24   C     C_R   0.594704 0.612234 0.037161 -0.036796
C25   C     C_R   0.635841 0.056399 0.029902 -0.160265
C26   C     C_R   0.941730 0.577026 0.029444 -0.161770
C27   C     C_R   0.422571 0.363080 0.029148 -0.163846
C28   C     C_R   0.954900 0.580847 0.956562 -0.131385
C29   C     C_R   0.627534 0.043027 0.957068 -0.132543
C30   C     C_R   0.417427 0.372376 0.956308 -0.130002
C31   C     C_R   0.276579 0.001038 0.928042 0.205465
C32   C     C_R   0.003217 0.276192 0.929399 0.207372
C33   C     C_R   0.727011 0.728708 0.928705 0.207732
C34   C     C_R   0.073539 0.335805 0.075465 0.216621
C35   C     C_R   0.259163 0.928783 0.073982 0.219998
C36   C     C_R   0.670417 0.741287 0.075023 0.222698
C37   C     C_R   0.151686 0.947684 0.965666 -0.191980
C38   C     C_R   0.058129 0.208471 0.967731 -0.192307
C39   C     C_R   0.797891 0.853209 0.966937 -0.193571
C40   C     C_R   0.089283 0.234670 0.039835 -0.174999
C41   C     C_R   0.143299 0.914839 0.037659 -0.176432
C42   C     C_R   0.772829 0.859300 0.039116 -0.175695
H7    H     H_    0.059792 0.930406 0.938330 0.166149
H8    H     H_    0.077633 0.135073 0.941021 0.160308
H9    H     H_    0.872495 0.946543 0.939925 0.164533
H10   H     H_    0.128443 0.177008 0.067955 0.160264
H11   H     H_    0.044540 0.875586 0.065063 0.160002
H12   H     H_    0.832354 0.957817 0.067059 0.160333
H13   H     H_    0.296643 0.969019 0.426830 0.115006
H14   H     H_    0.837876 0.246473 0.453619 0.150600
H15   H     H_    0.728459 0.625632 0.450616 0.149592
H16   H     H_    0.897343 0.268952 0.584617 0.133606
H17   H     H_    0.282822 0.925461 0.556641 0.166161
H18   H     H_    0.675827 0.683216 0.568794 0.156884
C43   C     C_R   0.473470 0.919448 0.560236 -0.007299
C44   C     C_R   0.945197 0.481263 0.590700 0.013031
C45   C     C_R   0.456520 0.524521 0.564536 -0.004666
C46   C     C_R   0.911582 0.467181 0.440904 -0.008848
C47   C     C_R   0.478750 0.954900 0.411225 0.013362
C48   C     C_R   0.524423 0.441522 0.437375 -0.010184
C49   C     C_R   0.580094 0.920636 0.516899 0.016664
C50   C     C_R   0.923062 0.578103 0.554489 0.035261
C51   C     C_R   0.351497 0.415589 0.523616 0.035512
C52   C     C_R   0.947399 0.590324 0.480381 0.014884
C53   C     C_R   0.561100 0.907562 0.442150 0.026376
C54   C     C_R   0.390548 0.357318 0.469095 0.053898
C55   C     C_R   0.372175 0.951020 0.452130 -0.154614
C56   C     C_R   0.877207 0.345799 0.480656 -0.163950
C57   C     C_R   0.625876 0.560580 0.473446 -0.148164
C58   C     C_R   0.904260 0.355700 0.555157 -0.160713
C59   C     C_R   0.366433 0.928424 0.525850 -0.148187
C60   C     C_R   0.594118 0.597101 0.538900 -0.125795
C61   C     C_R   0.710826 0.947361 0.542427 -0.119248
C62   C     C_R   0.914964 0.683360 0.591642 -0.073586
C63   C     C_R   0.208385 0.362821 0.535441 -0.077825
C64   C     C_R   0.014916 0.726553 0.451855 -0.103765
C65   C     C_R   0.643793 0.873239 0.399485 -0.045546
C66   C     C_R   0.287670 0.225386 0.442153 -0.073893
C67   C     C_R   0.803836 0.937653 0.496697 -0.171082
C68   C     C_R   0.983906 0.816725 0.564011 -0.123953
C69   C     C_R   0.108091 0.247938 0.497285 -0.112598
C70   C     C_R   0.037127 0.838202 0.494829 -0.171421
C71   C     C_R   0.767257 0.890999 0.426811 -0.110049
C72   C     C_R   0.147716 0.180941 0.449439 -0.113935
H19   H     H_    0.751641 0.989469 0.594550 0.170223
H20   H     H_    0.879057 0.668368 0.646697 0.175902
H21   H     H_    0.174817 0.414868 0.570796 0.142261
H22   H     H_    0.063742 0.751942 0.399826 0.178033
H23   H     H_    0.620802 0.848156 0.343196 0.189061
H24   H     H_    0.313580 0.163898 0.408495 0.142344
H25   H     H_    0.906493 0.972112 0.515459 0.118474
H26   H     H_    0.001985 0.903815 0.597575 0.141274
H27   H     H_    0.999436 0.206751 0.505493 0.113237
H28   H     H_    0.099414 0.941697 0.475223 0.104251
H29   H     H_    0.838485 0.878224 0.392592 0.136172
H30   H     H_    0.070033 0.094299 0.417993 0.118128
N1    N     N_R   0.288330 0.064129 0.858887 0.076870
O27   O     O_R   0.409350 0.161979 0.835086 -0.322471
O28   O     O_R   0.177058 0.030830 0.821374 -0.278511
N2    N     N_R   0.940535 0.220769 0.860322 0.074852
O29   O     O_R   0.842155 0.239658 0.835578 -0.334443
O30   O     O_R   0.976404 0.144952 0.823285 -0.281558
N3    N     N_R   0.780095 0.720222 0.859354 0.074498
O31   O     O_R   0.757734 0.601038 0.834655 -0.338780
O32   O     O_R   0.858158 0.832803 0.822264 -0.288130
N4    N     N_R   0.128685 0.373614 0.146842 0.093240
O33   O     O_R   0.205054 0.504534 0.164861 -0.243618
O34   O     O_R   0.119145 0.278481 0.190731 -0.309082
N5    N     N_R   0.238101 0.872423 0.145124 0.089450
O35   O     O_R   0.291111 0.796660 0.163478 -0.259289
O36   O     O_R   0.150913 0.880736 0.188439 -0.323785
N6    N     N_R   0.634121 0.759535 0.146465 0.088830
O37   O     O_R   0.503503 0.706285 0.164230 -0.258626
O38   O     O_R   0.730827 0.846165 0.190340 -0.336727

loop_
_geom_bond_atom_site_label_1
_geom_bond_atom_site_label_2
_geom_bond_distance
_ccdc_geom_bond_type
O14   Cr2   2.077890 S    
O19   C7    1.320492 A    
C49   C53   1.408311 A    
O20   C8    1.291374 A    
C65   C71   1.382817 A    
C46   C52   1.421095 A    
O18   Cr6   2.065470 S    
N5    O35   1.300526 A    
C33   C39   1.389547 A    
C15   C21   1.421469 A    
N1    O27   1.302346 A    
C16   C22   1.418031 A    
O21   C9    1.318789 A    
C44   C58   1.395593 A    
O8    Cr2   1.958222 S    
C35   N5    1.437785 S    
C68   H26   1.082522 S    
N5    O36   1.301811 A    
C38   C40   1.383738 A    
C62   H20   1.084519 S    
C43   C59   1.402784 A    
N3    O32   1.301291 A    
C64   H22   1.077924 S    
C39   C42   1.384768 A    
C63   H21   1.063653 S    
C39   H9    1.068425 S    
C20   C22   1.423792 A    
C18   C27   1.403084 A    
O9    Cr3   1.948635 S    
C65   H23   1.083903 S    
C8    C47   1.478941 S    
O10   Cr4   1.960940 S    
C7    C48   1.465565 S    
O2    C1    1.264859 A    
C15   C30   1.387577 A    
C67   C71   1.385949 A    
C4    C15   1.468964 S    
C72   H30   1.080453 S    
O5    C4    1.277273 A    
O12   Cr6   1.946486 S    
O13   Cr1   2.075370 S    
O19   Cr1   1.950687 S    
C54   C66   1.413283 A    
N1    O28   1.301388 A    
C12   C43   1.483273 S    
O4    Cr4   2.067906 S    
O21   Cr3   1.940221 S    
C17   C25   1.403089 A    
C69   H27   1.062158 S    
O5    Cr5   2.078033 S    
C31   C37   1.390079 A    
O1    C3    1.273108 A    
C67   H25   1.061735 S    
C43   C49   1.430212 A    
Cr4   O26   1.988935 S    
O1    Cr1   2.068611 S    
C33   N3    1.445739 S    
C1    C18   1.460995 S    
O4    C6    1.285580 A    
C27   C30   1.368179 A    
C2    C17   1.460268 S    
C49   C61   1.411329 A    
C31   N1    1.445490 S    
C36   C42   1.394126 A    
Cr6   O26   2.014757 S    
O24   Cr6   1.942113 S    
C5    C14   1.468480 S    
C6    C13   1.467491 S    
C35   C41   1.394763 A    
O15   C8    1.282969 A    
C25   C29   1.366186 A    
O18   C11   1.279517 A    
C61   H19   1.074573 S    
C3    C16   1.459949 S    
C10   C45   1.455920 S    
N4    O34   1.302099 A    
O13   C9    1.297599 A    
C38   H8    1.069727 S    
O3    Cr3   2.060019 S    
C20   C32   1.420158 A    
Cr3   O25   2.014723 S    
C23   C35   1.425557 A    
H1    C25   1.081141 S    
C48   C57   1.396663 A    
H2    C26   1.081616 S    
C26   C28   1.367307 A    
Cr1   O25   1.990221 S    
C53   C65   1.409244 A    
O22   Cr4   1.950197 S    
C52   C64   1.409119 A    
H14   C56   1.082680 S    
O2    Cr2   2.079121 S    
H13   C55   1.070266 S    
C44   C50   1.399740 A    
O17   C10   1.295216 A    
O16   Cr4   2.077515 S    
H15   C57   1.078379 S    
C50   C52   1.403467 A    
O7    Cr1   1.959125 S    
C63   C69   1.387547 A    
C47   C53   1.397005 A    
O3    C2    1.274813 A    
C14   C20   1.423470 A    
C13   C19   1.422691 A    
C32   N2    1.445586 S    
C51   C54   1.389945 A    
C46   C56   1.414297 A    
C32   C38   1.390288 A    
Cr5   O26   1.989510 S    
N6    O38   1.302119 A    
C37   C41   1.384846 A    
C66   H24   1.071207 S    
O12   C6    1.275819 A    
C9    C46   1.492119 S    
C41   H11   1.081030 S    
C14   C28   1.388366 A    
C19   C31   1.419459 A    
C66   C72   1.378541 A    
C11   C44   1.500082 S    
C34   N4    1.437393 S    
O6    C5    1.288707 A    
C55   C59   1.395833 A    
O11   C5    1.279278 A    
C21   C24   1.424107 A    
O8    C2    1.285898 A    
H5    C29   1.076530 S    
O23   Cr5   1.956458 S    
C70   H28   1.061150 S    
C69   C72   1.372312 A    
O15   Cr3   2.067867 S    
O20   Cr2   1.957847 S    
N4    O33   1.300161 A    
C45   C60   1.399888 A    
C19   C23   1.423280 A    
N2    O30   1.301313 A    
C37   H7    1.069489 S    
O16   C12   1.286896 A    
O23   C11   1.306826 A    
C42   H12   1.080982 S    
O17   Cr5   2.078131 S    
O24   C12   1.321231 A    
C61   C67   1.387490 A    
H4    C28   1.077155 S    
H17   C59   1.079496 S    
O9    C3    1.283205 A    
C36   N6    1.437405 S    
C47   C55   1.392211 A    
Cr2   O25   1.988258 S    
O10   C4    1.269017 A    
N3    O31   1.302361 A    
C62   C68   1.377162 A    
H18   C60   1.078747 S    
C50   C62   1.403112 A    
C13   C29   1.387615 A    
C56   C58   1.416164 A    
C48   C54   1.420969 A    
C17   C23   1.418200 A    
C57   C60   1.388736 A    
O11   Cr5   1.958542 S    
C18   C24   1.418437 A    
O22   C10   1.300603 A    
C51   C63   1.404434 A    
C68   C70   1.389873 A    
N2    O29   1.302397 A    
H16   C58   1.081253 S    
C40   H10   1.080929 S    
O7    C1    1.274518 A    
C16   C26   1.403145 A    
O6    Cr6   2.061825 S    
C34   C40   1.393324 A    
C22   C34   1.426082 A    
N6    O37   1.300723 A    
C24   C36   1.425387 A    
C71   H29   1.082263 S    
H6    C30   1.076113 S    
H3    C27   1.081502 S    
C64   C70   1.390172 A    
C45   C51   1.402560 A    
C21   C33   1.418518 A    
O14   C7    1.288835 A    
