data_mof_unit_59777.cif
_audit_creation_date              2012-12-10T17:05:03-0500
_audit_creation_method            fapswitch 2.2
_symmetry_space_group_name_H-M    P1
_symmetry_Int_Tables_number       1
_space_group_crystal_system       triclinic
_cell_length_a                    15.175889
_cell_length_b                    15.143329
_cell_length_c                    19.447537
_cell_angle_alpha                 89.219702
_cell_angle_beta                  89.953181
_cell_angle_gamma                 89.840663
_cell_volume                      4468.87306092

loop_
_atom_site_label
_atom_site_type_symbol
_atom_type_description
_atom_site_fract_x
_atom_site_fract_y
_atom_site_fract_z
_atom_type_partial_charge
C1    C     C_R   0.485749 0.259773 0.509550 0.526204
C2    C     C_2   0.538959 0.488988 0.017968 0.029351
C3    C     C_2   0.469545 0.523336 0.981604 0.015788
C4    C     C_R   0.514334 0.738556 0.489590 0.584938
C5    C     C_R   0.476288 0.524862 0.761571 -0.075922
C6    C     C_R   0.486770 0.162879 0.516274 -0.052469
C7    C     C_R   0.519993 0.833420 0.484243 -0.075105
C8    C     C_R   0.553368 0.962629 0.414968 0.261320
C9    C     C_R   0.565332 0.872028 0.428338 0.017397
C10   C     C_R   0.475337 0.885753 0.532431 0.002819
C11   C     C_R   0.487466 0.977962 0.529402 -0.069923
C12   C     C_R   0.538914 0.489970 0.093915 -0.033330
C13   C     C_R   0.518089 0.017682 0.467168 -0.069969
C14   C     C_R   0.512144 0.110708 0.459565 0.018239
C15   C     C_R   0.470113 0.122875 0.580830 0.237563
C16   C     C_R   0.259784 0.514584 0.490938 0.549654
C17   C     C_R   0.470454 0.030923 0.587343 0.317613
C18   C     C_R   0.163039 0.526513 0.495711 -0.052201
C19   C     C_R   0.833348 0.478134 0.513099 -0.053546
C20   C     C_R   0.962445 0.395147 0.547513 0.277016
C21   C     C_R   0.871654 0.398077 0.534304 -0.020266
C22   C     C_R   0.884997 0.549400 0.489823 0.261858
C23   C     C_R   0.551323 0.411139 0.131858 0.296718
C24   C     C_R   0.977770 0.544133 0.495462 -0.046502
C25   C     C_R   0.017152 0.465747 0.523650 -0.055679
C26   C     C_R   0.110300 0.458985 0.526030 0.242881
C27   C     C_R   0.123927 0.607402 0.475706 -0.002384
C28   C     C_R   0.738691 0.485516 0.511306 0.552256
C29   C     C_R   0.031700 0.615911 0.473736 0.254906
C30   C     C_R   0.487341 0.513426 0.687042 0.544760
C31   C     C_R   0.511536 0.490200 0.312556 0.551257
C32   C     C_R   0.523367 0.490431 0.237569 -0.000812
C33   C     C_R   0.509015 0.568835 0.199095 0.211508
C34   C     C_R   0.551216 0.413141 0.203762 0.217054
C35   C     C_R   0.522791 0.568977 0.128188 -0.139010
C36   C     C_3   0.399300 0.668812 0.216889 0.031454
C37   C     C_3   0.371115 0.745412 0.262290 -0.231680
C38   C     C_3   0.274984 0.770764 0.250055 -0.470904
C39   C     C_3   0.349495 0.367246 0.924452 0.022096
C40   C     C_3   0.313104 0.299662 0.874180 -0.251391
C41   C     C_3   0.335208 0.205519 0.897290 -0.503713
C42   C     C_2   0.527405 0.154475 0.392030 0.662232
C43   C     C_3   0.518453 0.209947 0.668734 0.028091
C44   C     C_3   0.487615 0.255053 0.734137 -0.260711
C45   C     C_R   0.540650 0.567970 0.870002 0.243946
C46   C     C_3   0.562755 0.302524 0.769867 -0.478240
C47   C     C_3   0.520098 0.973141 0.300959 0.031017
C48   C     C_3   0.548649 0.013218 0.232110 -0.242376
C49   C     C_3   0.490648 0.981160 0.173468 -0.497330
C50   C     C_3   0.537345 0.983199 0.687521 0.003777
C51   C     C_3   0.552957 0.886114 0.706818 -0.243718
C52   C     C_3   0.631666 0.875182 0.755029 -0.488975
C53   C     C_2   0.624709 0.820018 0.382356 0.577959
C54   C     C_2   0.407892 0.846161 0.579906 0.612753
C55   C     C_3   0.171895 0.391230 0.621353 0.064927
C56   C     C_R   0.546368 0.560137 0.799037 -0.131535
C57   C     C_3   0.237965 0.319730 0.644272 -0.231026
C58   C     C_3   0.211137 0.227044 0.622640 -0.342073
C59   C     C_2   0.178225 0.687555 0.464705 0.610140
C60   C     C_3   0.960674 0.306291 0.648798 0.007119
C61   C     C_3   0.933468 0.388710 0.690460 -0.307125
C62   C     C_3   0.918811 0.365061 0.766129 -0.461247
C63   C     C_3   0.003569 0.721595 0.388891 0.037646
C64   C     C_3   0.022601 0.820472 0.382269 -0.232309
C65   C     C_3   0.028149 0.849911 0.307031 -0.482916
C66   C     C_2   0.817637 0.316601 0.542472 0.592328
C67   C     C_R   0.397124 0.501929 0.796112 0.033799
C68   C     C_3   0.797926 0.610114 0.399767 0.031824
C69   C     C_3   0.840340 0.544444 0.349196 -0.311912
C70   C     C_3   0.792593 0.546374 0.280138 -0.467763
C71   C     C_2   0.310579 0.501774 0.759790 0.601201
C72   C     C_2   0.387871 0.556306 0.015818 0.572952
C73   C     C_3   0.487419 0.295225 0.076175 0.007744
C74   C     C_3   0.450511 0.230690 0.129989 -0.255231
C75   C     C_3   0.370360 0.181866 0.102608 -0.492314
C76   C     C_3   0.583016 0.698879 0.914026 0.006463
C77   C     C_3   0.659904 0.749452 0.945305 -0.247489
C78   C     C_R   0.399139 0.491762 0.868092 0.247056
C79   C     C_3   0.679036 0.719068 0.018999 -0.394294
C80   C     C_3   0.666713 0.329894 0.244486 0.061975
C81   C     C_3   0.695616 0.238495 0.220565 -0.247810
C82   C     C_3   0.794617 0.225099 0.229726 -0.464842
C83   C     C_2   0.616008 0.445599 0.984544 0.653856
C84   C     C_R   0.470516 0.527038 0.905443 0.032597
H1    H     H_    0.605354 0.583523 0.773276 0.163730
H2    H     H_    0.317787 0.355964 0.975297 0.161457
H3    H     H_    0.421557 0.355730 0.932003 0.120897
H4    H     H_    0.240364 0.306984 0.870543 0.205728
H5    H     H_    0.341763 0.311807 0.822457 0.167881
H6    H     H_    0.407708 0.196670 0.901591 0.145436
H7    H     H_    0.309712 0.158279 0.858987 0.163357
H8    H     H_    0.304132 0.190684 0.947835 0.149149
H9    H     H_    0.474015 0.208628 0.306433 0.345639
H10   H     H_    0.550122 0.260154 0.634775 0.142057
H11   H     H_    0.568785 0.159427 0.682532 0.100308
H12   H     H_    0.515834 0.630171 0.099258 0.123962
H13   H     H_    0.435240 0.303752 0.720906 0.180813
H14   H     H_    0.459296 0.204811 0.769931 0.167170
H15   H     H_    0.613843 0.254457 0.787068 0.148821
H16   H     H_    0.536061 0.336923 0.815339 0.186397
H17   H     H_    0.593051 0.352313 0.734745 0.162792
H18   H     H_    0.452805 0.997901 0.313556 0.141758
H19   H     H_    0.517578 0.900294 0.295435 0.137575
H20   H     H_    0.544031 0.086119 0.234930 0.165570
H21   H     H_    0.618259 0.994855 0.221449 0.191578
H22   H     H_    0.497602 0.908591 0.167723 0.157316
H23   H     H_    0.354870 0.611654 0.227782 0.148789
H24   H     H_    0.511118 0.013773 0.124560 0.146990
H25   H     H_    0.420477 0.997502 0.183547 0.150315
H26   H     H_    0.532344 0.021670 0.735628 0.152398
H27   H     H_    0.596324 0.007858 0.658647 0.095705
H28   H     H_    0.493292 0.858603 0.732353 0.204681
H29   H     H_    0.566330 0.848154 0.659495 0.195379
H30   H     H_    0.691847 0.903740 0.731086 0.161631
H31   H     H_    0.643561 0.803874 0.765432 0.157285
H32   H     H_    0.618548 0.908381 0.804600 0.137149
H33   H     H_    0.733174 0.820011 0.322076 0.317591
H34   H     H_    0.392062 0.689598 0.162032 0.137111
H35   H     H_    0.288799 0.859172 0.625024 0.359857
H36   H     H_    0.113394 0.385384 0.654258 0.133507
H37   H     H_    0.200504 0.456938 0.632494 0.161033
H38   H     H_    0.303748 0.334782 0.622743 0.228167
H39   H     H_    0.244175 0.320404 0.701148 0.115548
H40   H     H_    0.145454 0.209883 0.643771 0.153821
H41   H     H_    0.259795 0.178344 0.642806 0.177637
H42   H     H_    0.209756 0.222320 0.565721 0.216913
H43   H     H_    0.223923 0.800849 0.503845 0.348913
H44   H     H_    0.010638 0.269327 0.679332 0.138008
H45   H     H_    0.380073 0.726527 0.317278 0.232729
H46   H     H_    0.904577 0.259916 0.645180 0.171252
H47   H     H_    0.984410 0.440951 0.686798 0.154503
H48   H     H_    0.870903 0.416651 0.670057 0.174758
H49   H     H_    0.867209 0.313500 0.771342 0.153519
H50   H     H_    0.896918 0.424630 0.794184 0.172718
H51   H     H_    0.981033 0.340522 0.789708 0.153106
H52   H     H_    0.940542 0.709090 0.362425 0.147052
H53   H     H_    0.055295 0.683743 0.361032 0.122065
H54   H     H_    0.969232 0.858199 0.407933 0.200558
H55   H     H_    0.085780 0.835931 0.408146 0.201252
H56   H     H_    0.413179 0.803496 0.250679 0.147050
H57   H     H_    0.081262 0.813278 0.280276 0.152398
H58   H     H_    0.043050 0.921601 0.304001 0.161773
H59   H     H_    0.964434 0.837994 0.280691 0.149967
H60   H     H_    0.709479 0.258221 0.582631 0.320300
H61   H     H_    0.792041 0.675017 0.372964 0.164869
H62   H     H_    0.728844 0.591377 0.410974 0.156331
H63   H     H_    0.910791 0.560838 0.340779 0.150387
H64   H     H_    0.836567 0.476105 0.370413 0.162076
H65   H     H_    0.823196 0.497611 0.245240 0.147333
H66   H     H_    0.722026 0.529159 0.287287 0.159944
H67   H     H_    0.265056 0.792144 0.195742 0.141085
H68   H     H_    0.797445 0.612996 0.255843 0.155419
H69   H     H_    0.182446 0.465744 0.760254 0.312193
H70   H     H_    0.297287 0.540464 0.091002 0.335218
H71   H     H_    0.501839 0.258512 0.028365 0.154072
H72   H     H_    0.436338 0.345516 0.062545 0.138598
H73   H     H_    0.502352 0.182076 0.144275 0.172967
H74   H     H_    0.430866 0.267258 0.176708 0.194094
H75   H     H_    0.318411 0.229600 0.086414 0.154146
H76   H     H_    0.343136 0.138145 0.143629 0.157584
H77   H     H_    0.389389 0.140686 0.058131 0.143415
H78   H     H_    0.256759 0.826230 0.284075 0.166608
H79   H     H_    0.524762 0.703749 0.948705 0.149769
H80   H     H_    0.566453 0.731319 0.863858 0.117338
H81   H     H_    0.643728 0.821091 0.945327 0.109540
H82   H     H_    0.719749 0.740132 0.913179 0.181610
H83   H     H_    0.621830 0.733731 0.052598 0.134179
H84   H     H_    0.737232 0.754979 0.038777 0.133391
H85   H     H_    0.693301 0.647109 0.021087 0.217266
H86   H     H_    0.686361 0.337649 0.299106 0.186090
H87   H     H_    0.703699 0.380715 0.213849 0.114414
H88   H     H_    0.660440 0.186899 0.250617 0.209792
H89   H     H_    0.231209 0.713861 0.261855 0.176342
H90   H     H_    0.678698 0.230523 0.165479 0.201046
H91   H     H_    0.831596 0.275050 0.198980 0.152079
H92   H     H_    0.813426 0.158267 0.211952 0.158350
H93   H     H_    0.812883 0.230805 0.284794 0.181765
H94   H     H_    0.662160 0.368910 0.908512 0.335953
O1    O     O_3   0.500000 0.500000 0.500000 -0.471684
O2    O     O_R   0.437070 0.459640 0.654640 -0.551798
O3    O     O_R   0.556790 0.436390 0.349710 -0.530381
O4    O     O_R   0.547170 0.557950 0.655150 -0.532177
O5    O     O_R   0.458970 0.546010 0.340500 -0.507386
O6    O     O_3   0.488040 0.646962 0.231497 -0.532219
O7    O     O_3   0.327967 0.454249 0.902244 -0.494392
O8    O     O_2   0.602482 0.172613 0.374026 -0.463420
O9    O     O_R   0.455535 0.177927 0.350749 -0.717518
O10   O     O_3   0.444135 0.172095 0.636844 -0.542106
O11   O     O_3   0.581198 0.997215 0.352340 -0.500578
O12   O     O_R   0.306870 0.560460 0.447950 -0.513062
O13   O     O_3   0.456320 0.992958 0.651725 -0.508823
O14   O     O_2   0.609239 0.742828 0.369388 -0.540873
O15   O     O_R   0.698559 0.860848 0.353002 -0.645989
O16   O     O_2   0.420265 0.774408 0.607915 -0.513978
O17   O     O_R   0.329205 0.891799 0.591881 -0.657414
O18   O     O_3   0.150089 0.382027 0.550684 -0.489058
O19   O     O_2   0.213293 0.701694 0.409019 -0.551169
O20   O     O_R   0.186988 0.747929 0.517873 -0.658770
O21   O     O_3   0.998817 0.322892 0.582431 -0.506834
O22   O     O_3   0.994643 0.698309 0.459523 -0.486254
O23   O     O_R   0.697260 0.434930 0.470830 -0.543303
O24   O     O_2   0.842683 0.247877 0.516429 -0.473397
O25   O     O_R   0.739689 0.317843 0.580924 -0.729948
O26   O     O_3   0.845912 0.625081 0.461665 -0.505611
O27   O     O_2   0.300125 0.548109 0.708431 -0.511922
O28   O     O_R   0.238837 0.455345 0.787068 -0.685902
O29   O     O_2   0.349724 0.621129 0.992142 -0.505565
O30   O     O_R   0.352820 0.511517 0.072931 -0.735838
O31   O     O_3   0.567644 0.332036 0.099269 -0.552090
O32   O     O_3   0.607677 0.609833 0.904694 -0.553249
O33   O     O_3   0.573565 0.337375 0.240430 -0.557663
O34   O     O_R   0.434240 0.306870 0.546470 -0.536860
O35   O     O_2   0.689076 0.451543 0.010549 -0.497701
O36   O     O_R   0.604832 0.395343 0.925521 -0.744336
O37   O     O_R   0.561630 0.697750 0.534750 -0.509084
O38   O     O_R   0.542340 0.296600 0.470110 -0.507699
O39   O     O_R   0.461800 0.698790 0.448670 -0.511921
O40   O     O_R   0.296600 0.461110 0.533510 -0.524213
O41   O     O_R   0.699270 0.543500 0.547710 -0.513903
Zn1   Zn    Zn3+2 0.433070 0.575010 0.435400 1.010304
Zn2   Zn    Zn3+2 0.418400 0.433070 0.557650 0.956650
Zn3   Zn    Zn3+2 0.575700 0.573520 0.558390 1.001367
Zn4   Zn    Zn3+2 0.572830 0.418400 0.448560 0.979675

loop_
_geom_bond_atom_site_label_1
_geom_bond_atom_site_label_2
_ccdc_geom_bond_type
C42   O9    S    
C75   H76   S    
C7    C10   A    
C46   H15   S    
C55   H37   S    
O5    Zn1   S    
C54   O16   D    
C21   C66   S    
O3    Zn4   S    
C53   O15   S    
C73   C74   S    
C5    C56   A    
C70   H66   S    
C39   H3    S    
C5    C67   A    
C2    C12   S    
C81   C82   S    
C56   H1    S    
C61   H47   S    
C72   O30   S    
C64   H54   S    
C35   H12   S    
C17   O13   S    
O39   Zn1   S    
C67   C78   A    
C12   C23   A    
C51   H29   S    
O1    Zn2   S    
C28   O23   A    
C62   H49   S    
C73   O31   S    
C36   C37   S    
C19   C21   A    
C2    C3    D    
O1    Zn1   S    
C68   O26   S    
C20   C25   A    
C59   O20   S    
C77   H81   S    
C48   H20   S    
C50   H26   S    
C43   H10   S    
C63   O22   S    
C73   H72   S    
C15   C17   A    
C81   H88   S    
C55   H36   S    
C24   C29   A    
C60   O21   S    
C57   H38   S    
C44   H14   S    
C71   O28   S    
C31   C32   S    
C45   C56   A    
C8    C9    A    
C37   H56   S    
C18   C26   A    
C43   H11   S    
O37   Zn3   S    
C16   O40   A    
C36   O6    S    
C80   H86   S    
C79   H84   S    
C72   O29   D    
C36   H34   S    
H35   O17   S    
C61   H48   S    
C14   C42   S    
C23   C34   A    
C77   C79   S    
C55   O18   S    
C6    C15   A    
C26   O18   S    
C4    O37   A    
C13   C14   A    
C31   O3    A    
C1    O34   A    
C30   O4    A    
C2    C83   S    
C69   C70   S    
C70   H65   S    
C1    O38   A    
C4    C7    S    
C83   O35   D    
C44   C46   S    
C49   H24   S    
O34   Zn2   S    
C52   H32   S    
C63   H53   S    
C46   H17   S    
O4    Zn3   S    
C47   H19   S    
C74   C75   S    
C74   H74   S    
O1    Zn3   S    
C51   C52   S    
C47   C48   S    
C60   H44   S    
C19   C22   A    
C70   H68   S    
C76   C77   S    
C34   O33   S    
C60   H46   S    
C39   C40   S    
H94   O36   S    
C68   C69   S    
C38   H89   S    
C23   O31   S    
C25   C26   A    
H69   O28   S    
C32   C33   A    
O1    Zn4   S    
C60   C61   S    
C32   C34   A    
C62   H51   S    
C47   O11   S    
C43   C44   S    
C20   O21   S    
C37   C38   S    
C19   C28   S    
C57   H39   S    
H60   O25   S    
C65   H57   S    
C44   H13   S    
C48   H21   S    
C51   H28   S    
C71   O27   D    
C8    O11   S    
C29   O22   S    
C73   H71   S    
C33   O6    S    
C50   C51   S    
O2    Zn2   S    
C78   O7    S    
C24   C25   A    
C12   C35   A    
C76   O32   S    
C50   O13   S    
C16   O12   A    
C80   O33   S    
C66   O25   S    
H9    O9    S    
C40   C41   S    
C41   H7    S    
C82   H92   S    
C58   H42   S    
C28   O41   A    
C55   C57   S    
C42   O8    D    
C69   H63   S    
C22   C24   A    
C76   H80   S    
C45   C84   A    
C9    C53   S    
O23   Zn4   S    
H43   O20   S    
C38   H67   S    
C83   O36   S    
C68   H62   S    
O40   Zn2   S    
C49   H25   S    
C5    C30   S    
C52   H31   S    
C75   H75   S    
C7    C9    A    
C46   H16   S    
C11   C17   A    
C54   O17   S    
C1    C6    S    
C74   H73   S    
C31   O5    A    
C18   C27   A    
C80   C81   S    
O12   Zn1   S    
C49   H22   S    
C52   H30   S    
C15   O10   S    
C40   H5    S    
C58   H40   S    
C45   O32   S    
C39   H2    S    
C22   O26   S    
C75   H77   S    
C66   O24   D    
C81   H90   S    
C79   H85   S    
C3    C72   S    
C77   H82   S    
O38   Zn4   S    
C6    C14   A    
C27   C59   S    
C63   H52   S    
O41   Zn3   S    
C65   H58   S    
C11   C13   A    
C62   H50   S    
C57   C58   S    
C27   C29   A    
C43   O10   S    
C59   O19   D    
C48   C49   S    
C82   H93   S    
C50   H27   S    
C33   C35   A    
C37   H45   S    
C41   H6    S    
C67   C71   S    
C68   H61   S    
C61   C62   S    
C10   C54   S    
C53   O14   D    
H33   O15   S    
C10   C11   A    
C64   C65   S    
C63   C64   S    
C39   O7    S    
C8    C13   A    
C78   C84   A    
C38   H78   S    
C41   H8    S    
C20   C21   A    
C58   H41   S    
C16   C18   S    
C4    O39   A    
C3    C84   S    
C47   H18   S    
C69   H64   S    
C30   O2    A    
C76   H79   S    
C82   H91   S    
C80   H87   S    
C79   H83   S    
C65   H59   S    
H70   O30   S    
C40   H4    S    
C36   H23   S    
C64   H55   S    
