data_mof_unit_55219.cif
_audit_creation_date              2013-03-05T15:55:35-0500
_audit_creation_method            fapswitch 2.2
_symmetry_space_group_name_H-M    P1
_symmetry_Int_Tables_number       1
_space_group_crystal_system       triclinic
_cell_length_a                    12.381203
_cell_length_b                    13.238051
_cell_length_c                    15.911563
_cell_angle_alpha                 76.971143
_cell_angle_beta                  101.016689
_cell_angle_gamma                 117.191266
_cell_volume                      2248.31666711

loop_
_atom_site_label
_atom_site_type_symbol
_atom_site_description
_atom_site_fract_x
_atom_site_fract_y
_atom_site_fract_z
_atom_type_partial_charge
O1    O     O_R   0.972520 0.318130 0.524690 -0.552771
O2    O     O_R   0.806530 0.359650 0.491530 -0.529922
C1    C     C_R   0.855072 0.286124 0.511569 0.937471
O3    O     O_R   0.083030 0.479240 0.637150 -0.601819
O4    O     O_R   0.917040 0.520750 0.603990 -0.569492
C2    C     C_R   0.000369 0.500680 0.659327 0.810055
Cu1   Cu    Cu3+1 0.098280 0.475420 0.519630 1.065767
Cu2   Cu    Cu3+1 0.901720 0.524580 0.480370 1.069166
O5    O     O_R   0.193470 0.640350 0.508470 -0.540689
O6    O     O_R   0.027480 0.681870 0.475310 -0.552992
O7    O     O_R   0.082960 0.479250 0.396010 -0.524428
O8    O     O_R   0.916970 0.520760 0.362850 -0.518497
C3    C     C_R   0.145253 0.713402 0.489382 0.809630
C4    C     C_R   0.000607 0.500574 0.340656 0.837117
C5    C     C_3   0.130454 0.566619 0.958519 -0.501287
C6    C     C_3   0.939127 0.371970 0.964243 0.465638
C7    C     C_3   0.948105 0.370228 0.066704 0.413927
H1    H     H_    0.184319 0.522622 0.093290 0.243113
H2    H     H_    0.190257 0.527583 0.952434 0.243911
C8    C     C_1   0.001069 0.500698 0.251297 -0.026039
C9    C     C_3   0.998726 0.500978 0.916454 -0.110517
C10   C     C_3   0.129028 0.567537 0.055736 0.172320
C11   C     C_3   0.994680 0.500000 0.082606 -0.128138
C12   C     C_3   0.910835 0.558687 0.024451 0.490693
C13   C     C_3   0.919472 0.562280 0.925143 0.002712
C14   C     C_1   0.999426 0.500647 0.175659 0.276405
C15   C     C_1   0.001524 0.502655 0.824115 0.195524
C16   C     C_1   0.001445 0.502277 0.748723 -0.024955
H3    H     H_    0.826082 0.512127 0.895782 0.230303
H4    H     H_    0.175578 0.654635 0.922400 0.247184
C17   C     C_R   0.283572 0.019014 0.381578 0.440879
H5    H     H_    0.103856 0.881683 0.379953 0.219247
H6    H     H_    0.482792 0.183667 0.308359 0.164828
C18   C     C_R   0.228514 0.836195 0.477309 -0.232096
C19   C     C_R   0.799954 0.099771 0.610033 0.214105
C20   C     C_R   0.704708 0.019909 0.658349 -0.123279
C21   C     C_R   0.584388 0.996056 0.626563 0.486173
C22   C     C_R   0.556018 0.032422 0.537088 -0.032902
C23   C     C_R   0.651824 0.120926 0.489988 -0.005862
C24   C     C_R   0.435634 0.987885 0.494360 0.002646
C25   C     C_R   0.406809 0.052693 0.416990 -0.055858
C26   C     C_R   0.502029 0.141860 0.372254 -0.215648
C27   C     C_R   0.624109 0.170414 0.404849 0.479986
C28   C     C_R   0.346897 0.875920 0.521621 0.340015
C29   C     C_R   0.195919 0.910731 0.412160 -0.175482
C30   C     C_R   0.772608 0.162771 0.531373 -0.162328
H7    H     H_    0.724487 0.982561 0.723927 0.229088
C31   C     C_R   0.370450 0.378261 0.663331 0.384804
H8    H     H_    0.186403 0.345345 0.670991 0.211575
N1    N     N_R   0.246300 0.438200 0.549400 -0.239443
C32   C     C_R   0.759489 0.642513 0.379625 0.647925
C33   C     C_R   0.666231 0.678859 0.356019 -0.310794
C34   C     C_R   0.567015 0.631312 0.403974 -0.175669
C35   C     C_R   0.557604 0.545382 0.476213 -0.012783
C36   C     C_R   0.658166 0.516198 0.502520 0.066726
C37   C     C_R   0.454196 0.489587 0.526006 -0.168329
C38   C     C_R   0.470952 0.437744 0.612766 -0.155631
C39   C     C_R   0.587508 0.443814 0.644434 0.228119
C40   C     C_R   0.658105 0.445982 0.584434 0.312374
C41   C     C_R   0.335857 0.484012 0.494616 0.587807
C42   C     C_R   0.261116 0.384640 0.630881 0.057380
N2    N     N_R   0.754300 0.561180 0.451130 -0.218112
H9    H     H_    0.501836 0.667472 0.386176 0.219214
H10   H     H_    0.671435 0.745796 0.301105 0.180882
O9    O     O_3   0.190486 0.678785 0.078208 -0.645507
H11   H     H_    0.175341 0.734140 0.030072 0.405107
O10   O     O_3   0.788763 0.493190 0.044350 -0.641445
H12   H     H_    0.747053 0.426420 0.013043 0.369662
O11   O     O_3   0.246048 0.086038 0.314437 -0.669889
H13   H     H_    0.302081 0.167921 0.317124 0.336181
O12   O     O_3   0.381442 0.801693 0.583601 -0.668079
H14   H     H_    0.313478 0.754164 0.620337 0.340709
N3    N     N_R   0.923465 0.124849 0.645953 0.143368
O13   O     O_R   0.953604 0.124395 0.728954 -0.260009
O14   O     O_R   0.000042 0.128099 0.598474 -0.316803
O15   O     O_3   0.500169 0.947375 0.686595 -0.649472
H15   H     H_    0.433007 0.970513 0.664173 0.344869
O16   O     O_3   0.717252 0.245491 0.354240 -0.716977
H16   H     H_    0.682451 0.276190 0.298800 0.365261
N4    N     N_R   0.630361 0.439764 0.735273 0.142329
O17   O     O_R   0.721124 0.413725 0.765549 -0.299829
O18   O     O_R   0.594543 0.482775 0.784353 -0.261824
O19   O     O_3   0.372467 0.308424 0.741759 -0.617324
H17   H     H_    0.427567 0.273307 0.740540 0.368152
O20   O     O_3   0.306209 0.518889 0.409027 -0.696942
H18   H     H_    0.339736 0.488634 0.373962 0.316191
O21   O     O_3   0.860151 0.692213 0.333756 -0.682063
H19   H     H_    0.850517 0.749523 0.284458 0.329825
N5    N     N_R   0.653836 0.336138 0.586510 0.124720
O22   O     O_R   0.711058 0.293889 0.650972 -0.332464
O23   O     O_R   0.563867 0.265963 0.540445 -0.414729
O24   O     O_3   0.814785 0.324204 0.930295 -0.701935
H20   H     H_    0.779806 0.239174 0.942566 0.408550
N6    N     N_R   0.998678 0.305736 0.944131 0.137048
O25   O     O_R   0.111736 0.327295 0.972185 -0.305489
O26   O     O_R   0.942622 0.232718 0.889835 -0.251577
O27   O     O_3   0.036244 0.332112 0.111849 -0.710523
H21   H     H_    0.004506 0.248546 0.111206 0.400322
N7    N     N_R   0.829813 0.288384 0.102062 0.136285
O28   O     O_R   0.784331 0.314446 0.156690 -0.326906
O29   O     O_R   0.784554 0.180130 0.094877 -0.313803
N8    N     N_R   0.958036 0.677792 0.872061 0.171042
O30   O     O_R   0.061533 0.763513 0.890208 -0.315030
O31   O     O_R   0.885790 0.695542 0.805506 -0.255895
N9    N     N_R   0.944093 0.675491 0.041498 0.206434
O32   O     O_R   0.879782 0.729139 0.998454 -0.199059
O33   O     O_R   0.008996 0.712096 0.112265 -0.311432

loop_
_geom_bond_atom_site_label_1
_geom_bond_atom_site_label_2
_geom_bond_distance
_ccdc_geom_bond_type
O21   H19   0.991825 S    
C25   C26   1.399993 A    
C6    C9    1.586353 S    
C36   C40   1.419953 A    
N3    O13   1.301379 A    
C19   C20   1.392845 A    
O27   H21   0.992263 S    
C31   C42   1.387048 A    
Cu1   Cu2   2.723879 S    
C34   C35   1.403315 A    
C27   O16   1.383015 S    
Cu1   O7    1.931015 S    
N9    O33   1.301069 A    
C7    C11   1.607066 S    
C20   H7    1.083318 S    
H6    C26   1.082062 S    
C20   C21   1.388828 A    
O11   H13   0.990149 S    
O4    C2    1.306962 A    
O7    C4    1.304915 A    
C13   N8    1.477902 S    
C36   N2    1.394488 A    
C37   C38   1.418899 A    
C28   O12   1.380958 S    
C40   N5    1.423762 S    
C11   C14   1.472334 S    
O5    C3    1.307565 A    
C3    C18   1.464713 S    
C12   O10   1.413440 S    
C5    C10   1.553186 S    
C2    C16   1.424777 S    
N7    O28   1.300590 A    
C6    C7    1.608395 S    
C11   C12   1.607265 S    
N5    O23   1.300115 A    
C39   N4    1.439277 S    
N6    O26   1.302558 A    
C9    C15   1.471213 S    
O1    Cu1   1.943138 S    
N3    O14   1.301265 A    
N8    O30   1.300190 A    
C32   N2    1.367579 A    
O3    Cu1   1.929024 S    
C13   H3    1.108078 S    
C35   C37   1.439463 A    
H8    C42   1.081558 S    
C32   C33   1.402244 A    
C4    C8    1.422562 S    
C31   C38   1.420293 A    
C18   C28   1.410593 A    
C12   C13   1.592659 S    
O3    C2    1.304283 A    
C33   H10   1.083074 S    
C32   O21   1.378615 S    
O16   H16   0.991017 S    
C23   C27   1.417661 A    
C39   C40   1.399974 A    
O20   H18   0.992594 S    
O10   H12   0.989521 S    
O1    C1    1.303234 A    
C5    H2    1.106469 S    
C10   O9    1.408896 S    
C21   C22   1.427042 A    
O19   H17   0.990389 S    
C24   C28   1.412834 A    
Cu2   O8    1.929024 S    
C18   C29   1.397833 A    
O15   H15   0.991319 S    
N8    O31   1.301792 A    
C7    N7    1.491735 S    
C23   C30   1.416997 A    
N4    O18   1.301671 A    
C24   C25   1.419384 A    
N7    O29   1.302396 A    
C21   O15   1.379844 S    
O8    C4    1.305242 A    
C6    O24   1.417103 S    
C26   C27   1.401113 A    
C33   C34   1.386525 A    
C5    H4    1.107197 S    
Cu1   O5    1.934171 S    
C9    C13   1.571859 S    
C35   C36   1.429053 A    
C19   N3    1.436282 S    
C17   C25   1.416818 A    
H1    C10   1.111163 S    
O2    Cu2   1.934171 S    
Cu1   N1    2.052819 S    
N4    O17   1.298454 A    
O6    C3    1.308334 A    
O4    Cu2   1.931014 S    
C41   O20   1.372194 S    
N9    O32   1.302506 A    
C1    C30   1.474957 S    
C6    N6    1.490769 S    
C31   O19   1.378986 S    
N1    C41   1.368800 A    
O2    C1    1.315952 A    
O12   H14   0.991930 S    
C22   C24   1.421874 A    
C34   H9    1.079438 S    
C38   C39   1.406160 A    
C22   C23   1.419540 A    
C5    C9    1.553344 S    
C8    C14   1.199944 T    
O24   H20   0.990166 S    
N6    O25   1.301401 A    
H5    C29   1.083867 S    
C37   C41   1.428199 A    
C17   O11   1.379869 S    
Cu2   O6    1.943138 S    
O9    H11   0.988132 S    
C17   C29   1.391017 A    
C15   C16   1.200554 T    
N1    C42   1.353051 A    
C10   C11   1.577759 S    
C12   N9    1.482759 S    
N5    O22   1.300988 A    
C19   C30   1.414975 A    
C7    O27   1.414817 S    
Cu2   N2    2.040769 S    
