data_mof_unit_23353.cif
_audit_creation_date              2013-03-05T15:50:56-0500
_audit_creation_method            fapswitch 2.2
_symmetry_space_group_name_H-M    P1
_symmetry_Int_Tables_number       1
_space_group_crystal_system       triclinic
_cell_length_a                    12.123795
_cell_length_b                    12.767797
_cell_length_c                    15.763396
_cell_angle_alpha                 92.504394
_cell_angle_beta                  86.454371
_cell_angle_gamma                 94.69117
_cell_volume                      2425.42054719

loop_
_atom_site_label
_atom_site_type_symbol
_atom_site_description
_atom_site_fract_x
_atom_site_fract_y
_atom_site_fract_z
_atom_type_partial_charge
O1    O     O_R   0.421690 0.658830 0.504140 -0.598234
O2    O     O_R   0.609320 0.646410 0.494190 -0.641874
C1    C     C_R   0.523383 0.700931 0.494040 0.887710
O3    O     O_R   0.406150 0.506210 0.627840 -0.573099
O4    O     O_R   0.593770 0.493790 0.617880 -0.622013
C2    C     C_R   0.500365 0.501151 0.661252 0.898446
Zn1   Zn    Zn3+2 0.374720 0.508290 0.506640 1.103483
Zn2   Zn    Zn3+2 0.625280 0.491710 0.493360 1.074653
O5    O     O_R   0.390680 0.353590 0.505810 -0.582090
O6    O     O_R   0.578310 0.341170 0.495860 -0.555923
O7    O     O_R   0.406230 0.506210 0.382120 -0.558523
O8    O     O_R   0.593850 0.493790 0.372160 -0.563983
C3    C     C_R   0.477194 0.301118 0.512353 0.977059
C4    C     C_R   0.500019 0.500519 0.338713 0.924449
C5    C     C_3   0.391416 0.566621 0.955483 -0.001491
C6    C     C_3   0.610017 0.585633 0.947851 0.054860
C7    C     C_3   0.604676 0.605109 0.048867 0.333998
H1    H     H_    0.675795 0.531527 0.932769 0.211802
C8    C     C_1   0.501459 0.508284 0.250530 0.070439
C9    C     C_3   0.502534 0.519248 0.916864 -0.182378
C10   C     C_3   0.384784 0.552471 0.057514 -0.318752
C11   C     C_3   0.505452 0.523736 0.084159 -0.196166
C12   C     C_3   0.524698 0.409146 0.045924 -0.033759
C13   C     C_3   0.505385 0.403764 0.948815 -0.034216
C14   C     C_1   0.503875 0.516375 0.175784 0.226000
C15   C     C_1   0.502949 0.513384 0.824863 0.137892
C16   C     C_1   0.501877 0.507235 0.749746 0.021188
H2    H     H_    0.421689 0.363565 0.941319 0.090069
H3    H     H_    0.460134 0.352220 0.074790 0.150414
C17   C     C_R   0.461355 0.191045 0.535358 -0.178677
C18   C     C_R   0.540038 0.814945 0.486729 -0.074858
C19   C     C_R   0.652820 0.981047 0.494516 -0.093371
C20   C     C_R   0.645614 0.870908 0.480813 -0.100301
C21   C     C_R   0.444678 0.868793 0.490427 -0.113855
C22   C     C_R   0.448580 0.976107 0.507067 0.064086
C23   C     C_R   0.553763 0.032019 0.515614 0.061343
C24   C     C_R   0.555426 0.136963 0.545505 -0.088704
C25   C     C_R   0.355771 0.136120 0.538955 0.226222
C26   C     C_R   0.348964 0.026765 0.523669 -0.138740
H4    H     H_    0.365638 0.824740 0.485182 0.225872
N1    N     N_R   0.207800 0.519340 0.515510 -0.163107
N2    N     N_R   0.792190 0.480660 0.484490 -0.186317
C27   C     C_R   0.953367 0.426805 0.402149 -0.243348
C28   C     C_R   0.837721 0.429554 0.414578 0.411107
C29   C     C_R   0.858489 0.536658 0.540869 0.015532
C30   C     C_R   0.977076 0.540657 0.528873 0.027613
C31   C     C_R   0.023527 0.474289 0.464605 -0.065499
C32   C     C_R   0.138486 0.457330 0.464710 0.055938
C33   C     C_R   0.165659 0.591568 0.572419 0.367830
C34   C     C_R   0.051267 0.606715 0.578486 -0.168161
C35   C     C_2   0.338240 0.648395 0.104832 0.734044
H5    H     H_    0.283147 0.695086 0.073511 0.120595
O9    O     O_2   0.347696 0.666060 0.180912 -0.493527
C36   C     C_2   0.288892 0.509454 0.916138 0.441675
H6    H     H_    0.295882 0.443228 0.871156 0.082549
O10   O     O_2   0.196702 0.538900 0.934490 -0.459683
C37   C     C_2   0.299536 0.461361 0.084898 0.439957
H7    H     H_    0.277525 0.395774 0.041609 0.079179
O11   O     O_2   0.261010 0.455757 0.158230 -0.440344
N3    N     N_R   0.630573 0.371214 0.068721 0.271826
O12   O     O_R   0.720761 0.381919 0.019646 -0.240557
O13   O     O_R   0.631988 0.317517 0.136892 -0.268066
C38   C     C_2   0.641458 0.181458 0.604141 0.567445
H8    H     H_    0.709327 0.136273 0.618507 0.070109
O14   O     O_2   0.633368 0.266049 0.642319 -0.516261
N4    N     N_R   0.258502 0.189904 0.565304 0.201410
O15   O     O_R   0.163636 0.163038 0.533051 -0.419048
O16   O     O_R   0.261783 0.257589 0.629475 -0.356153
C39   C     C_2   0.761864 0.041737 0.477311 0.408412
H9    H     H_    0.838612 0.009663 0.490893 0.084985
O17   O     O_2   0.767263 0.127498 0.445526 -0.497551
C40   C     C_2   0.238431 0.967130 0.528146 0.576379
H10   H     H_    0.185226 0.971968 0.585904 0.124170
O18   O     O_2   0.204109 0.916878 0.466174 -0.512765
C41   C     C_2   0.747151 0.817085 0.454580 0.459388
H11   H     H_    0.820795 0.831281 0.490293 0.095807
O19   O     O_2   0.750135 0.759239 0.390830 -0.460384
C42   C     C_2   0.176040 0.359172 0.422996 0.586154
H12   H     H_    0.121421 0.287822 0.426947 0.076008
O20   O     O_2   0.260592 0.357464 0.377546 -0.495443
N5    N     N_R   0.391256 0.677701 0.929736 0.248839
O21   O     O_R   0.356794 0.697419 0.855789 -0.243764
O22   O     O_R   0.434035 0.757039 0.974352 -0.310876
N6    N     N_R   0.237011 0.648095 0.630467 0.210603
O23   O     O_R   0.241359 0.612185 0.706024 -0.325795
O24   O     O_R   0.266088 0.746989 0.619198 -0.421398
C43   C     C_2   0.997672 0.385155 0.318477 0.516316
H13   H     H_    0.958695 0.314015 0.289443 0.129551
O25   O     O_2   0.074470 0.433192 0.279501 -0.436678
C44   C     C_2   0.016421 0.699841 0.629858 0.537122
H14   H     H_    0.046031 0.716432 0.692987 0.157740
O26   O     O_2   0.959619 0.762091 0.599981 -0.598327
N7    N     N_R   0.768288 0.385373 0.349734 0.206178
O27   O     O_R   0.776912 0.424997 0.274735 -0.286650
O28   O     O_R   0.711222 0.295848 0.360312 -0.293804
C45   C     C_2   0.803933 0.585517 0.616818 0.566960
H15   H     H_    0.743591 0.642182 0.610171 0.082302
O29   O     O_2   0.825027 0.561505 0.687851 -0.506658
N8    N     N_R   0.649832 0.678766 0.898650 0.275647
O30   O     O_R   0.589903 0.718380 0.844388 -0.284579
O31   O     O_R   0.754305 0.711737 0.898735 -0.232459
N9    N     N_R   0.585730 0.714828 0.077050 0.247048
O32   O     O_R   0.557495 0.734269 0.156786 -0.297432
O33   O     O_R   0.638603 0.792670 0.037286 -0.201324
N10   N     N_R   0.712511 0.584732 0.082403 0.238788
O34   O     O_R   0.723194 0.587831 0.164122 -0.260200
O35   O     O_R   0.803458 0.593342 0.033864 -0.238072
N11   N     N_R   0.580892 0.335422 0.899678 0.274975
O36   O     O_R   0.569392 0.234603 0.910658 -0.263514
O37   O     O_R   0.658180 0.371909 0.845244 -0.291409

loop_
_geom_bond_atom_site_label_1
_geom_bond_atom_site_label_2
_geom_bond_distance
_ccdc_geom_bond_type
N4    O16   1.301770 A    
C43   H13   1.085348 S    
C38   O14   1.221274 D    
N7    O27   1.301119 A    
C22   C23   1.420520 A    
C7    N9    1.482619 S    
N5    O21   1.303757 A    
C44   H14   1.085049 S    
C5    N5    1.492306 S    
C29   C30   1.435492 A    
Zn1   O7    1.975807 S    
N10   O35   1.302487 A    
C15   C16   1.184071 T    
C21   H4    1.076594 S    
C12   H3    1.113476 S    
C33   N6    1.429887 S    
C23   C24   1.399759 A    
N6    O24   1.299687 A    
C39   H9    1.083483 S    
O4    C2    1.294099 A    
N9    O33   1.300815 A    
O7    C4    1.295898 A    
C42   O20   1.214918 D    
C37   O11   1.222491 D    
N11   O36   1.301355 A    
C17   C25   1.407569 A    
N3    O13   1.301424 A    
C21   C22   1.381265 A    
C32   C42   1.481429 S    
C39   O17   1.219214 D    
O5    C3    1.301533 A    
C28   N7    1.431784 S    
N5    O22   1.298720 A    
C36   H6    1.084814 S    
C20   C41   1.486344 S    
C9    C13   1.582513 S    
C6    C7    1.599039 S    
C11   C14   1.450315 S    
C45   O29   1.221231 D    
C26   C40   1.485471 S    
C18   C20   1.413880 A    
C13   N11   1.477581 S    
C2    C16   1.394900 S    
C6    C9    1.586493 S    
N4    O15   1.300576 A    
N7    O28   1.298470 A    
C10   C11   1.621269 S    
C5    C9    1.597185 S    
N2    C28   1.365949 A    
O3    Zn1   1.972851 S    
N1    C33   1.365390 A    
C24   C38   1.497138 S    
C34   C44   1.484483 S    
C12   N3    1.478277 S    
C36   O10   1.222091 D    
C35   H5    1.084869 S    
C5    C36   1.539415 S    
C25   N4    1.442820 S    
C3    C17   1.461261 S    
N6    O23   1.300395 A    
C40   O18   1.221044 D    
C42   H12   1.083255 S    
C17   C24   1.401485 A    
N3    O12   1.301094 A    
O1    C1    1.307347 A    
N2    C29   1.373291 A    
C22   C26   1.421023 A    
C41   H11   1.083388 S    
C10   C37   1.549127 S    
C7    N10   1.486445 S    
C44   O26   1.220701 D    
C31   C32   1.427958 A    
Zn2   O8    1.972852 S    
C45   H15   1.082714 S    
C18   C21   1.389573 A    
C1    C18   1.461793 S    
C41   O19   1.221332 D    
O3    C2    1.294504 A    
N8    O31   1.301713 A    
O8    C4    1.293673 A    
C43   O25   1.220382 D    
C27   C28   1.406733 A    
C19   C23   1.426872 A    
C10   C35   1.534883 S    
Zn1   O5    1.999721 S    
C30   C31   1.412090 A    
O1    Zn1   1.960862 S    
C4    C8    1.396839 S    
Zn2   O6    1.960862 S    
O2    Zn2   1.999721 S    
C13   H2    1.109671 S    
Zn2   N2    2.035759 S    
C40   H10   1.085280 S    
O6    C3    1.304453 A    
O4    Zn2   1.975807 S    
C6    N8    1.479484 S    
C19   C39   1.492720 S    
N10   O34   1.301169 A    
C30   C34   1.427346 A    
C7    C11   1.612260 S    
N8    O30   1.300051 A    
C27   C43   1.486191 S    
C19   C20   1.409774 A    
O2    C1    1.299681 A    
C37   H7    1.083572 S    
C25   C26   1.403045 A    
C9    C15   1.448624 S    
N1    C32   1.375964 A    
N11   O37   1.302075 A    
Zn1   N1    2.035881 S    
N9    O32   1.300791 A    
C8    C14   1.185622 T    
C12   C13   1.560537 S    
C38   H8    1.083173 S    
C5    C10   1.622636 S    
C6    H1    1.105446 S    
C33   C34   1.412725 A    
C11   C12   1.587337 S    
C35   O9    1.221240 D    
C29   C45   1.471135 S    
C27   C31   1.423882 A    
