data_mof_unit_9699.cif
_audit_creation_date              2013-03-05T16:12:15-0500
_audit_creation_method            fapswitch 2.2
_symmetry_space_group_name_H-M    P1
_symmetry_Int_Tables_number       1
_space_group_crystal_system       triclinic
_cell_length_a                    10.730689
_cell_length_b                    9.430924
_cell_length_c                    27.798541
_cell_angle_alpha                 90.119681
_cell_angle_beta                  89.990174
_cell_angle_gamma                 89.417642
_cell_volume                      2813.06953179

loop_
_atom_site_label
_atom_site_type_symbol
_atom_site_description
_atom_site_fract_x
_atom_site_fract_y
_atom_site_fract_z
_atom_type_partial_charge
O1    O     O_R   0.317570 0.620260 0.500030 -0.592713
O2    O     O_R   0.317570 0.379740 0.500030 -0.589070
C1    C     C_R   0.260880 0.501025 0.505355 0.778987
O3    O     O_R   0.499900 0.620250 0.430280 -0.585485
O4    O     O_R   0.499900 0.379750 0.430280 -0.590276
C2    C     C_R   0.499924 0.499779 0.407479 0.828542
Cu1   Cu    Cu3+1 0.499860 0.642410 0.500020 0.893272
Cu2   Cu    Cu3+1 0.499860 0.357590 0.500020 0.895220
O5    O     O_R   0.682190 0.620260 0.500010 -0.589612
O6    O     O_R   0.682190 0.379740 0.500010 -0.589140
O7    O     O_R   0.499860 0.620280 0.569750 -0.601387
O8    O     O_R   0.499860 0.379720 0.569750 -0.590649
C3    C     C_R   0.739038 0.499361 0.504882 0.777038
C4    C     C_R   0.499966 0.500272 0.592512 0.762386
C5    C     C_R   0.389390 0.501200 0.178017 0.520785
O9    O     O_2   0.281421 0.501266 0.202934 -0.537583
N1    N     N_R   0.500430 0.499428 0.202073 -0.472497
C6    C     C_R   0.611565 0.500734 0.178081 0.520668
C7    C     C_R   0.501128 0.366180 0.278620 0.187345
C8    C     C_R   0.500937 0.369260 0.329271 -0.206346
C9    C     C_R   0.499303 0.626502 0.328802 -0.228355
C10   C     C_R   0.499420 0.625102 0.278788 -0.119399
C11   C     C_R   0.500325 0.496485 0.253634 0.313203
C12   C     C_R   0.500652 0.502401 0.101900 -0.043904
C13   C     C_R   0.387399 0.502299 0.127531 -0.018304
C14   C     C_R   0.274886 0.503665 0.102389 -0.147764
C15   C     C_R   0.613781 0.502046 0.127596 -0.018246
C16   C     C_R   0.500043 0.498710 0.354479 -0.092961
H1    H     H_    0.498602 0.727699 0.347312 0.153712
H2    H     H_    0.498803 0.724420 0.259321 0.138234
H3    H     H_    0.186512 0.505422 0.121265 0.186679
C17   C     C_R   0.500232 0.501906 0.645413 -0.085389
C18   C     C_R   0.386015 0.494839 0.974304 0.043537
C19   C     C_R   0.615853 0.510976 0.974366 0.043634
C20   C     C_R   0.500977 0.502931 0.949077 0.065645
C21   C     C_R   0.274966 0.480965 0.947233 -0.205840
C22   C     C_R   0.276414 0.479959 0.897293 -0.148558
C23   C     C_R   0.388417 0.491957 0.872211 -0.018011
C24   C     C_R   0.501055 0.502991 0.897902 -0.043958
C25   C     C_R   0.613776 0.514002 0.872266 -0.017408
C26   C     C_R   0.611719 0.514280 0.821778 0.519531
N2    N     N_R   0.501068 0.504662 0.797731 -0.472034
C27   C     C_R   0.390541 0.492750 0.821726 0.520971
C28   C     C_R   0.495327 0.636095 0.720855 0.187050
C29   C     C_R   0.495292 0.631778 0.670268 -0.214139
C30   C     C_R   0.505466 0.374728 0.671334 -0.238425
C31   C     C_R   0.505848 0.377265 0.721340 -0.124469
C32   C     C_R   0.500920 0.506437 0.746171 0.315494
O10   O     O_2   0.283154 0.482297 0.796749 -0.540451
C33   C     C_R   0.385679 0.499822 0.025436 0.043553
C34   C     C_R   0.500771 0.502819 0.050725 0.065669
C35   C     C_R   0.615975 0.506105 0.025500 0.043638
C36   C     C_R   0.273736 0.502813 0.052448 -0.205496
H4    H     H_    0.491181 0.728921 0.649806 0.160751
H5    H     H_    0.188686 0.469538 0.878370 0.186659
H6    H     H_    0.184633 0.468357 0.963386 0.135481
H7    H     H_    0.182708 0.506729 0.036248 0.134833
O11   O     O_2   0.719416 0.500279 0.203061 -0.537570
C37   C     C_R   0.726404 0.501864 0.102516 -0.147858
H8    H     H_    0.814692 0.500026 0.121437 0.186693
C38   C     C_R   0.727034 0.524380 0.947347 -0.205656
C39   C     C_R   0.725742 0.525452 0.897406 -0.148675
O12   O     O_2   0.719208 0.524404 0.796851 -0.541507
C40   C     C_R   0.727792 0.503517 0.052578 -0.205312
H9    H     H_    0.817382 0.536504 0.963532 0.135338
H10   H     H_    0.509408 0.273263 0.653038 0.155347
H11   H     H_    0.813546 0.535733 0.878529 0.186486
H12   H     H_    0.818924 0.500437 0.036441 0.134773
C41   C     C_3   0.068491 0.648609 0.531848 -0.013237
C42   C     C_3   0.077301 0.375619 0.543606 -0.020341
H13   H     H_    0.085262 0.725170 0.502012 0.155975
H14   H     H_    0.115591 0.277008 0.526862 0.146011
C43   C     C_3   0.921985 0.638970 0.536952 -0.013263
C44   C     C_3   0.930427 0.364206 0.538735 -0.014029
H15   H     H_    0.884381 0.729639 0.515669 0.141212
H16   H     H_    0.914540 0.275146 0.513022 0.156156
H17   H     H_    0.111323 0.561712 0.434790 0.183344
H18   H     H_    0.098524 0.375510 0.445875 0.183199
H19   H     H_    0.902628 0.596283 0.440159 0.182679
H20   H     H_    0.890086 0.407173 0.438303 0.184018
C45   C     C_3   0.071287 0.482190 0.459883 -0.477141
C46   C     C_3   0.122709 0.502877 0.511574 -0.018268
C47   C     C_3   0.877144 0.499241 0.511268 -0.017133
C48   C     C_3   0.929586 0.496921 0.459300 -0.481190
C49   C     C_3   0.611256 0.082001 0.476113 -0.191054
C50   C     C_3   0.614426 0.914851 0.478283 -0.183977
H21   H     H_    0.698051 0.123049 0.492089 0.142024
H22   H     H_    0.698427 0.881247 0.498745 0.134052
H23   H     H_    0.612056 0.116657 0.437875 0.137226
H24   H     H_    0.625794 0.870815 0.441373 0.141587
C51   C     C_3   0.497641 0.083815 0.550559 -0.193035
C52   C     C_3   0.495196 0.916812 0.550522 -0.199000
C53   C     C_3   0.389587 0.084769 0.475829 -0.185925
C54   C     C_3   0.393670 0.917604 0.473399 -0.192437
N3    N     N_3   0.500250 0.143650 0.501060 -0.110359
N4    N     N_3   0.500250 0.856350 0.501060 -0.109657
H25   H     H_    0.302587 0.118093 0.494613 0.135010
H26   H     H_    0.304491 0.875123 0.486594 0.150290
H27   H     H_    0.383419 0.128760 0.438810 0.141884
H28   H     H_    0.399968 0.883591 0.435113 0.137627
H29   H     H_    0.414371 0.124759 0.570126 0.146939
H30   H     H_    0.410451 0.879709 0.569312 0.147925
C55   C     C_3   0.502170 0.228314 0.249986 -0.370129
C56   C     C_3   0.503290 0.091653 0.279566 -0.872946
H31   H     H_    0.588179 0.085497 0.302363 0.250613
H32   H     H_    0.418421 0.085555 0.302326 0.250073
H33   H     H_    0.504146 0.998991 0.254859 0.250743
H34   H     H_    0.418525 0.226685 0.226437 0.220187
H35   H     H_    0.585807 0.226435 0.226407 0.220166
H36   H     H_    0.510004 0.278433 0.741052 0.138828
C57   C     C_3   0.137504 0.715196 0.575928 -0.345835
C58   C     C_3   0.130283 0.877274 0.575478 -0.925294
H37   H     H_    0.139826 0.918821 0.612685 0.253172
H38   H     H_    0.205505 0.922259 0.553510 0.229685
H39   H     H_    0.041396 0.914969 0.559645 0.262320
H40   H     H_    0.101073 0.678530 0.610693 0.207043
H41   H     H_    0.237337 0.685294 0.576978 0.207602
C59   C     C_3   0.135722 0.383069 0.595383 -0.341334
C60   C     C_3   0.162705 0.239650 0.618868 -0.844992
H42   H     H_    0.195677 0.161184 0.591958 0.236444
H43   H     H_    0.237361 0.251756 0.646227 0.248748
H44   H     H_    0.079920 0.200423 0.638232 0.267403
H45   H     H_    0.227551 0.435486 0.593527 0.182863
H46   H     H_    0.080531 0.448644 0.620462 0.192024
C61   C     C_3   0.862855 0.653305 0.588615 -0.330953
C62   C     C_3   0.836450 0.804779 0.605509 -0.856419
H47   H     H_    0.918473 0.850124 0.623768 0.274399
H48   H     H_    0.806711 0.872277 0.575067 0.234989
H49   H     H_    0.759863 0.804780 0.632437 0.239297
H50   H     H_    0.770458 0.602145 0.589062 0.187940
H51   H     H_    0.917073 0.597688 0.616499 0.190252
C63   C     C_3   0.858019 0.320507 0.585258 -0.356886
C64   C     C_3   0.851824 0.160263 0.591181 -0.910580
H52   H     H_    0.792227 0.114607 0.562954 0.231887
H53   H     H_    0.944993 0.111373 0.587551 0.268673
H54   H     H_    0.812125 0.133526 0.626890 0.257282
H55   H     H_    0.897209 0.364936 0.618545 0.213991
H56   H     H_    0.760282 0.358803 0.584421 0.203590
H57   H     H_    0.579761 0.120534 0.571161 0.149636
H58   H     H_    0.575501 0.876456 0.571886 0.149741
C65   C     C_3   0.489160 0.774727 0.748999 -0.369652
C66   C     C_3   0.481257 0.910300 0.718902 -0.879088
H59   H     H_    0.565370 0.920808 0.695918 0.246029
H60   H     H_    0.395942 0.910617 0.696258 0.252889
H61   H     H_    0.476405 0.003672 0.743250 0.251724
H62   H     H_    0.406222 0.772633 0.772925 0.218104
H63   H     H_    0.573224 0.781845 0.772170 0.221896
H64   H     H_    0.501517 0.271574 0.349501 0.160065

loop_
_geom_bond_atom_site_label_1
_geom_bond_atom_site_label_2
_geom_bond_distance
_ccdc_geom_bond_type
C53   C54   1.577993 S    
C44   C63   1.566678 S    
C49   N3    1.490572 S    
C26   N2    1.366432 A    
C20   C24   1.422606 A    
C57   C58   1.529800 S    
C12   C15   1.408601 A    
C44   C47   1.587808 S    
H20   C48   1.114479 S    
C56   H32   1.110866 S    
C45   C46   1.551959 S    
Cu1   Cu2   2.686115 S    
C49   C50   1.577682 S    
Cu1   O7    1.950029 S    
Cu1   N4    2.017845 S    
C37   C40   1.388394 A    
C62   H47   1.105488 S    
C44   H16   1.116193 S    
C39   H11   1.083700 S    
C47   C48   1.550316 S    
C40   H12   1.075912 S    
C21   C22   1.388355 A    
C30   H10   1.083175 S    
O4    C2    1.298514 A    
O7    C4    1.297793 A    
C50   H22   1.109783 S    
C5    C13   1.403681 A    
C54   H26   1.104130 S    
C63   H56   1.106027 S    
C5    O9    1.349739 S    
C52   N4    1.488180 S    
C18   C21   1.416500 A    
C25   C39   1.395061 A    
C5    N1    1.366429 A    
C19   C20   1.421780 A    
C17   C29   1.405513 A    
C41   H13   1.116566 S    
O5    C3    1.295002 A    
C59   C60   1.528164 S    
C58   H37   1.110371 S    
C41   C46   1.589170 S    
C18   C33   1.422073 A    
C7    C55   1.523028 S    
C61   H50   1.107127 S    
C6    O11   1.349733 S    
C2    C16   1.473353 S    
C7    C8    1.408250 A    
C28   C65   1.523078 S    
C42   C44   1.586607 S    
C64   H54   1.110646 S    
C8    H64   1.080327 S    
C41   C43   1.582027 S    
C57   H40   1.100163 S    
C54   H28   1.112789 S    
C53   H27   1.112104 S    
C52   H30   1.108737 S    
C12   C34   1.422596 A    
C49   H21   1.105132 S    
C61   C62   1.526579 S    
C37   H8    1.083690 S    
C53   N3    1.490795 S    
C9    C10   1.390343 A    
C43   H15   1.113197 S    
C66   H61   1.110324 S    
Cu2   N3    2.017881 S    
C51   H29   1.111460 S    
O3    Cu1   1.949468 S    
C58   H38   1.101056 S    
C56   H31   1.110867 S    
N1    C6    1.366443 A    
C60   H43   1.111269 S    
C33   C36   1.416509 A    
C34   C35   1.421791 A    
C12   C13   1.408650 A    
O3    C2    1.299828 A    
C50   H24   1.112321 S    
C51   C52   1.575479 S    
C49   H23   1.112785 S    
C27   O10   1.349797 S    
C59   H46   1.099940 S    
C8    C16   1.406322 A    
C62   H49   1.111560 S    
C63   H55   1.100353 S    
C9    H1    1.083256 S    
C19   C38   1.416567 A    
O1    C1    1.292686 A    
C7    C11   1.412816 A    
C22   C23   1.395071 A    
C21   H6    1.076007 S    
C61   H51   1.100040 S    
C31   C32   1.399454 A    
N1    C11   1.433662 S    
H17   C45   1.114558 S    
Cu2   O8    1.949162 S    
C1    C46   1.492605 S    
C33   C34   1.421696 A    
N2    C32   1.433407 S    
C54   N4    1.490538 S    
C55   H34   1.111235 S    
C50   N4    1.490414 S    
C65   H62   1.111332 S    
C51   H57   1.109047 S    
C25   C26   1.403677 A    
C9    C16   1.401939 A    
O8    C4    1.299988 A    
C29   H4    1.079900 S    
C35   C40   1.416573 A    
C64   H52   1.102009 S    
C66   H60   1.111081 S    
N2    C27   1.366365 A    
C26   O12   1.349795 S    
C52   H58   1.111124 S    
C14   C36   1.388365 A    
C53   H25   1.111824 S    
C24   C25   1.408631 A    
C45   C48   1.525565 S    
C28   C29   1.406755 A    
C60   H44   1.105951 S    
Cu1   O5    1.965534 S    
C30   C31   1.390274 A    
C62   H48   1.105166 S    
C10   H2    1.082698 S    
H19   C48   1.114246 S    
O1    Cu1   1.969331 S    
C17   C30   1.401137 A    
C10   C11   1.398779 A    
O2    Cu2   1.965108 S    
C6    C15   1.403712 A    
C4    C17   1.470642 S    
O6    C3    1.294810 A    
C36   H7    1.075999 S    
O4    Cu2   1.950337 S    
C60   H42   1.106637 S    
C31   H36   1.082737 S    
C3    C47   1.492596 S    
C19   C35   1.422286 A    
C55   H35   1.111236 S    
C57   H41   1.105409 S    
O2    C1    1.298241 A    
C13   C14   1.395098 A    
C23   C27   1.403644 A    
C15   C37   1.395085 A    
C65   C66   1.531093 S    
C41   C57   1.565521 S    
H18   C45   1.114281 S    
C23   C24   1.408663 A    
C42   C59   1.571751 S    
C43   C61   1.574993 S    
C18   C20   1.421704 A    
C63   C64   1.522658 S    
C59   H45   1.108161 S    
C58   H39   1.106244 S    
C38   C39   1.388404 A    
C42   C46   1.576988 S    
C65   H63   1.111030 S    
C51   N3    1.488673 S    
C22   H5    1.083696 S    
C38   H9    1.075925 S    
C14   H3    1.083688 S    
Cu2   O6    1.969757 S    
C55   C56   1.530195 S    
C64   H53   1.101228 S    
C66   H59   1.111117 S    
C42   H14   1.113871 S    
C43   C47   1.576977 S    
C56   H33   1.110312 S    
C28   C32   1.412878 A    
