data_mof_unit_23284.cif
_audit_creation_date              2013-03-05T15:40:57-0500
_audit_creation_method            fapswitch 2.2
_symmetry_space_group_name_H-M    P1
_symmetry_Int_Tables_number       1
_space_group_crystal_system       triclinic
_cell_length_a                    7.846184
_cell_length_b                    8.568958
_cell_length_c                    13.812867
_cell_angle_alpha                 93.479353
_cell_angle_beta                  93.186862
_cell_angle_gamma                 94.241112
_cell_volume                      922.75349033

loop_
_atom_site_label
_atom_site_type_symbol
_atom_site_description
_atom_site_fract_x
_atom_site_fract_y
_atom_site_fract_z
_atom_type_partial_charge
O1    O     O_R   0.891570 0.738930 0.506190 -0.621575
O2    O     O_R   0.108430 0.261070 0.493810 -0.621574
O3    O     O_R   0.174650 0.711050 0.490030 -0.603090
O4    O     O_R   0.825350 0.288950 0.509970 -0.603092
C1    C     C_R   0.045153 0.794643 0.497579 0.949336
C2    C     C_R   0.954847 0.205356 0.502421 0.949334
O5    O     O_R   0.909850 0.521900 0.644940 -0.561687
O6    O     O_R   0.090150 0.478100 0.355060 -0.561683
O7    O     O_R   0.192930 0.494020 0.628780 -0.600382
O8    O     O_R   0.807070 0.505980 0.371220 -0.600385
C3    C     C_R   0.063320 0.512701 0.681834 0.870430
C4    C     C_R   0.936680 0.487300 0.318166 0.870434
Zn1   Zn    Zn3+2 0.810990 0.518620 0.510790 1.040559
Zn2   Zn    Zn3+2 0.189010 0.481380 0.489210 1.040561
C5    C     C_R   0.096377 0.535523 0.786088 -0.075015
C6    C     C_R   0.903625 0.464482 0.213911 -0.075008
C7    C     C_R   0.061055 0.674887 0.939707 -0.176556
C8    C     C_R   0.938950 0.325125 0.060291 -0.176557
C9    C     C_R   0.006153 0.638131 0.842824 -0.176499
C10   C     C_R   0.993850 0.361877 0.157174 -0.176498
C11   C     C_R   0.237788 0.469865 0.826087 -0.174378
C12   C     C_R   0.762214 0.530143 0.173913 -0.174376
C13   C     C_R   0.311598 0.526186 0.916576 0.110202
C14   C     C_R   0.688405 0.473825 0.083423 0.110201
C15   C     C_R   0.213657 0.619202 0.976979 0.106428
C16   C     C_R   0.786347 0.380810 0.023019 0.106429
C17   C     C_R   0.476114 0.486704 0.949693 -0.090660
C18   C     C_R   0.523890 0.513308 0.050307 -0.090660
C19   C     C_R   0.405270 0.578221 0.113810 0.297623
C20   C     C_R   0.594733 0.421792 0.886189 0.297625
C21   C     C_R   0.262170 0.645011 0.075019 -0.286079
C22   C     C_R   0.737834 0.355004 0.924979 -0.286081
H1    H     H_    0.177859 0.701897 0.123248 0.181421
H2    H     H_    0.822145 0.298119 0.876750 0.181416
H3    H     H_    0.708924 0.622995 0.215998 0.177598
H4    H     H_    0.291079 0.377011 0.784003 0.177605
H5    H     H_    0.104700 0.309880 0.187651 0.195238
H6    H     H_    0.895304 0.690128 0.812347 0.195240
H7    H     H_    0.986263 0.748109 0.984856 0.146071
H8    H     H_    0.013742 0.251905 0.015141 0.146071
C23   C     C_2   0.068565 0.958416 0.496138 -0.357809
C24   C     C_2   0.931435 0.041584 0.503862 -0.357811
H9    H     H_    0.197713 0.009950 0.488734 0.192288
H10   H     H_    0.802287 0.990050 0.511266 0.192288
N1    N     N_2   0.440860 0.456490 0.474790 -0.113025
N2    N     N_2   0.559140 0.543510 0.525210 -0.113024
H11   H     H_    0.486901 0.368800 0.431746 0.224916
H12   H     H_    0.513099 0.631200 0.568254 0.224918
N3    N     N_R   0.413235 0.557479 0.216245 0.186194
O9    O     O_R   0.437498 0.420035 0.247307 -0.433384
O10   O     O_R   0.373165 0.668744 0.277234 -0.408173
N4    N     N_R   0.586767 0.442534 0.783754 0.186194
O11   O     O_R   0.626804 0.331256 0.722763 -0.408174
O12   O     O_R   0.562511 0.579979 0.752692 -0.433386

loop_
_geom_bond_atom_site_label_1
_geom_bond_atom_site_label_2
_geom_bond_distance
_ccdc_geom_bond_type
C15   C21   1.386208 A    
O5    Zn1   1.966391 S    
O5    C3    1.290966 A    
O7    Zn2   1.922731 S    
C21   H1    1.084565 S    
C16   C22   1.386208 A    
C10   H5    1.082392 S    
C9    H6    1.082391 S    
C13   C17   1.416915 A    
C23   H9    1.087706 S    
C23   C24   1.339354 D    
C8    C16   1.404340 A    
O6    C4    1.290965 A    
C6    C10   1.399455 A    
C7    C15   1.404340 A    
N1    H11   1.028795 S    
C19   C21   1.393081 A    
C11   H4    1.079772 S    
C19   N3    1.435215 S    
N1    N2    1.290380 D    
C17   C20   1.432881 A    
C20   C22   1.393076 A    
C12   H3    1.079773 S    
O7    C3    1.299821 A    
C14   C16   1.415320 A    
O2    C2    1.277469 A    
O3    Zn2   1.978941 S    
C24   H10   1.087706 S    
O1    C1    1.277469 A    
O8    C4    1.299823 A    
C18   C19   1.432883 A    
C7    C9    1.392946 A    
N4    O12   1.301088 A    
Zn2   N1    2.022603 S    
C8    C10   1.392946 A    
C13   C15   1.415316 A    
C11   C13   1.391237 A    
C7    H7    1.083799 S    
Zn1   N2    2.022604 S    
O2    Zn2   1.951961 S    
C12   C14   1.391236 A    
O1    Zn1   1.951962 S    
N2    H12   1.028794 S    
C14   C18   1.416917 A    
C5    C11   1.383760 A    
C8    H8    1.083801 S    
N4    O11   1.301496 A    
O4    C2    1.291009 A    
N3    O9    1.301090 A    
C2    C24   1.403293 S    
C17   C18   1.419483 A    
C1    C23   1.403293 S    
O6    Zn2   1.966393 S    
O3    C1    1.291009 A    
C5    C9    1.399454 A    
C3    C5    1.447777 S    
C4    C6    1.447776 S    
O4    Zn1   1.978940 S    
C6    C12   1.383759 A    
C20   N4    1.435211 S    
N3    O10   1.301485 A    
O8    Zn1   1.922732 S    
C22   H2    1.084566 S    
