data_mof_unit_20669.cif
_audit_creation_date              2012-12-10T17:02:16-0500
_audit_creation_method            fapswitch 2.2
_symmetry_space_group_name_H-M    P1
_symmetry_Int_Tables_number       1
_space_group_crystal_system       triclinic
_cell_length_a                    10.818372
_cell_length_b                    10.57437
_cell_length_c                    10.122989
_cell_angle_alpha                 88.326676
_cell_angle_beta                  89.213168
_cell_angle_gamma                 90.907487
_cell_volume                      1157.28855187

loop_
_atom_site_label
_atom_site_type_symbol
_atom_type_description
_atom_site_fract_x
_atom_site_fract_y
_atom_site_fract_z
_atom_type_partial_charge
C1    C     C_R   0.516135 0.263849 0.502441 0.852022
C2    C     C_R   0.062844 0.560155 0.621380 -0.001390
C3    C     C_R   0.128276 0.531963 0.503554 -0.104788
C4    C     C_R   0.065139 0.518257 0.385493 -0.218587
C5    C     C_R   0.938428 0.516434 0.384877 -0.232162
C6    C     C_R   0.871444 0.536161 0.500888 -0.106097
C7    C     C_2   0.593700 0.931737 0.423992 -0.314243
C8    C     C_2   0.496676 0.872565 0.484810 0.402227
C9    C     C_2   0.598467 0.070105 0.409989 0.231150
C10   C     C_2   0.560704 0.135501 0.515088 0.045545
C11   C     C_2   0.506095 0.602356 0.922380 0.478017
C12   C     C_R   0.260417 0.509058 0.501074 0.894330
C13   C     C_2   0.539777 0.593410 0.068370 0.160568
C14   C     C_R   0.498154 0.737895 0.497196 0.837218
C15   C     C_R   0.739379 0.510965 0.499673 0.859409
C16   C     C_R   0.121614 0.583331 0.742916 0.155507
C17   C     C_R   0.053963 0.556376 0.859809 0.184294
C18   C     C_R   0.927879 0.577802 0.857302 -0.292310
C19   C     C_R   0.872419 0.606092 0.736795 0.201027
C20   C     C_R   0.933292 0.568354 0.618638 0.035569
H1    H     H_    0.113539 0.500797 0.294040 0.180341
H2    H     H_    0.530968 0.418932 0.896665 0.142076
H3    H     H_    0.876657 0.583655 0.948495 0.153337
H4    H     H_    0.893390 0.492369 0.294216 0.169431
H5    H     H_    0.669582 0.877693 0.384450 0.115634
N1    N     N_2   0.501340 0.501330 0.852150 -0.232432
N2    N     N_2   0.501380 0.501360 0.147810 -0.058951
O1    O     O_R   0.499980 0.319060 0.613040 -0.620185
O2    O     O_R   0.500020 0.319100 0.386900 -0.600328
O3    O     O_R   0.316750 0.499980 0.613090 -0.589967
O4    O     O_R   0.316790 0.500020 0.386950 -0.637112
O5    O     O_R   0.499980 0.680900 0.613100 -0.507499
O6    O     O_R   0.500020 0.680940 0.386960 -0.663633
O7    O     O_R   0.683210 0.499980 0.613050 -0.599240
O8    O     O_R   0.683250 0.500020 0.386910 -0.627098
Zn1   Zn    Zn3+2 0.499970 0.499970 0.650990 0.986079
Zn2   Zn    Zn3+2 0.500030 0.500030 0.349010 0.927965
N3    N     N_2   0.567856 0.079722 0.645488 -0.273932
H6    H     H_    0.490381 0.093483 0.703578 0.259780
C21   C     C_3   0.680798 0.110534 0.713476 -0.851535
H7    H     H_    0.684067 0.054875 0.808081 0.246091
H8    H     H_    0.684744 0.212767 0.735754 0.256147
H9    H     H_    0.762749 0.087026 0.652094 0.247982
O9    O     O_3   0.496563 0.718864 0.855395 -0.562113
C22   C     C_3   0.451838 0.816581 0.934247 -0.360181
H10   H     H_    0.530258 0.870302 0.975530 0.183357
H11   H     H_    0.384659 0.782640 0.012325 0.132017
H12   H     H_    0.403420 0.885467 0.869955 0.199256
N4    N     N_2   0.610483 0.694933 0.119459 -0.307001
H13   H     H_    0.563908 0.757949 0.176450 0.237145
C23   C     C_3   0.737565 0.672827 0.152810 -0.750386
H14   H     H_    0.798071 0.736421 0.090366 0.221042
H15   H     H_    0.762450 0.572873 0.137442 0.229900
H16   H     H_    0.753314 0.696310 0.257366 0.244838
N5    N     N_2   0.404124 0.430216 0.101638 -0.299053
H17   H     H_    0.322160 0.449949 0.148619 0.248235
C24   C     C_3   0.426535 0.295804 0.099348 -0.722375
H18   H     H_    0.381742 0.256306 0.011265 0.210076
H19   H     H_    0.385671 0.246862 0.188497 0.256116
H20   H     H_    0.527051 0.276896 0.092860 0.249468
N6    N     N_2   0.217898 0.676426 0.746031 -0.252739
H21   H     H_    0.267158 0.673809 0.831923 0.246507
C25   C     C_3   0.176495 0.803109 0.713714 -0.752949
H22   H     H_    0.255212 0.870800 0.715881 0.279303
H23   H     H_    0.105666 0.832371 0.786843 0.214486
H24   H     H_    0.136859 0.807753 0.613106 0.243866
N7    N     N_2   0.112399 0.518455 0.979236 -0.310152
H25   H     H_    0.207372 0.520813 0.973057 0.214830
C26   C     C_3   0.065949 0.398438 0.034157 -0.813233
H26   H     H_    0.121354 0.368276 0.120354 0.226860
H27   H     H_    0.072845 0.323780 0.959397 0.245558
H28   H     H_    0.968266 0.406617 0.067480 0.241602
N8    N     N_2   0.767512 0.685607 0.735830 -0.243215
H29   H     H_    0.729786 0.699366 0.828189 0.258351
C27   C     C_3   0.784857 0.803511 0.661925 -0.779871
H30   H     H_    0.698000 0.856915 0.666346 0.279137
H31   H     H_    0.807140 0.786449 0.556697 0.219618
H32   H     H_    0.860114 0.860832 0.705570 0.226764
O10   O     O_3   0.390936 0.935883 0.521240 -0.625480
C28   C     C_3   0.307247 0.933168 0.415654 -0.378816
H33   H     H_    0.275842 0.834674 0.396662 0.169804
H34   H     H_    0.348035 0.978441 0.324008 0.175870
H35   H     H_    0.224542 0.987849 0.442971 0.193944
N9    N     N_2   0.637090 0.132562 0.288323 -0.302123
H36   H     H_    0.689013 0.214167 0.299398 0.233231
C29   C     C_3   0.678957 0.056252 0.180641 -0.837210
H37   H     H_    0.698557 0.117850 0.091875 0.233996
H38   H     H_    0.605859 0.986818 0.155344 0.246496
H39   H     H_    0.765115 0.006650 0.207886 0.244965

loop_
_geom_bond_atom_site_label_1
_geom_bond_atom_site_label_2
_ccdc_geom_bond_type
N5    H17   S    
C25   H23   S    
N8    H29   S    
C19   C20   A    
C14   O6    A    
C7    C8    D    
C22   H10   S    
O5    Zn1   S    
O8    Zn2   S    
N9    C29   S    
C5    C6    A    
C29   H38   S    
C24   H19   S    
C26   H27   S    
C18   C19   A    
N6    C25   S    
C3    C12   S    
C6    C15   S    
C21   H9    S    
C16   C17   A    
N4    C23   S    
C1    O1    A    
C2    C16   A    
C9    C10   D    
C15   O7    A    
C21   H8    S    
C25   H24   S    
N8    C27   S    
N6    H21   S    
C28   H35   S    
C15   O8    A    
C22   H11   S    
C17   N7    S    
C2    C20   A    
C23   H14   S    
C19   N8    S    
N9    H36   S    
C28   H34   S    
C29   H37   S    
C4    C5    A    
C24   H20   S    
C11   N1    D    
O6    Zn2   S    
C18   H3    S    
N7    C26   S    
C26   H28   S    
C27   H30   S    
C8    O10   S    
C1    O2    A    
C17   C18   A    
C11   O9    S    
N7    H25   S    
C27   H31   S    
C13   N4    S    
N1    Zn1   S    
C21   H7    S    
N5    C24   S    
C12   O4    A    
O10   C28   S    
C16   N6    S    
C3    C4    A    
O9    C22   S    
C22   H12   S    
C7    C9    S    
C8    C14   S    
C12   O3    A    
C1    C10   S    
C14   O5    A    
C28   H33   S    
C29   H39   S    
C6    C20   A    
N2    N5    S    
C7    H5    S    
O3    Zn1   S    
C10   N3    S    
C23   H16   S    
C2    C3    A    
N3    C21   S    
C4    H1    S    
C11   C13   S    
C24   H18   S    
N3    H6    S    
C5    H4    S    
N2    Zn2   S    
O7    Zn1   S    
C26   H26   S    
C27   H32   S    
C9    N9    S    
C25   H22   S    
O4    Zn2   S    
O1    Zn1   S    
N4    H13   S    
H2    N1    S    
O2    Zn2   S    
C13   N2    D    
C23   H15   S    
