data_mof_unit_29055.cif
_audit_creation_date              2013-03-05T16:45:55-0500
_audit_creation_method            fapswitch 2.2
_symmetry_space_group_name_H-M    P1
_symmetry_Int_Tables_number       1
_space_group_crystal_system       triclinic
_cell_length_a                    9.877282
_cell_length_b                    10.667721
_cell_length_c                    16.657084
_cell_angle_alpha                 88.394199
_cell_angle_beta                  93.550522
_cell_angle_gamma                 89.745668
_cell_volume                      1751.03480234

loop_
_atom_site_label
_atom_site_type_symbol
_atom_site_description
_atom_site_fract_x
_atom_site_fract_y
_atom_site_fract_z
_atom_type_partial_charge
O1    O     O_R   0.614690 0.316790 0.499990 -0.620118
O2    O     O_R   0.385350 0.316760 0.500000 -0.620851
C1    C     C_R   0.500517 0.260375 0.500869 0.888483
O3    O     O_R   0.627460 0.498860 0.616130 -0.617827
O4    O     O_R   0.398120 0.498820 0.616130 -0.614675
C2    C     C_R   0.516662 0.494854 0.653673 0.860943
Zn1   Zn    Zn3+2 0.653130 0.500020 0.499990 0.944458
Zn2   Zn    Zn3+2 0.346870 0.499980 0.500010 0.935942
O5    O     O_R   0.614650 0.683240 0.500000 -0.615369
O6    O     O_R   0.385310 0.683210 0.500010 -0.621079
O7    O     O_R   0.601880 0.501180 0.383870 -0.610979
O8    O     O_R   0.372540 0.501140 0.383870 -0.623762
C3    C     C_R   0.499227 0.739855 0.496098 0.890007
C4    C     C_R   0.482809 0.494644 0.346557 0.867980
C5    C     C_R   0.523998 0.469526 0.739930 -0.031653
C6    C     C_R   0.407981 0.486284 0.782573 -0.241200
C7    C     C_R   0.409226 0.450523 0.863015 -0.159318
C8    C     C_R   0.527128 0.396477 0.902155 0.320186
C9    C     C_R   0.642286 0.378710 0.859124 -0.210226
C10   C     C_R   0.641307 0.415471 0.778397 -0.216913
C11   C     C_R   0.566217 0.373791 0.146725 -0.193912
C12   C     C_R   0.580599 0.411007 0.225739 -0.236794
C13   C     C_R   0.439826 0.386527 0.102738 0.266968
N1    N     N_2   0.539111 0.375847 0.986345 -0.216507
N2    N     N_2   0.428347 0.379211 0.018058 -0.204648
C14   C     C_R   0.470172 0.462319 0.262026 -0.030564
H1    H     H_    0.677695 0.398094 0.258570 0.160901
H2    H     H_    0.655091 0.338795 0.119421 0.156410
H3    H     H_    0.733371 0.337415 0.888375 0.129544
H4    H     H_    0.731043 0.399252 0.745822 0.154607
C15   C     C_R   0.342256 0.466472 0.220535 -0.267002
C16   C     C_R   0.325599 0.427972 0.141239 -0.002859
H5    H     H_    0.254282 0.498161 0.250190 0.164191
H6    H     H_    0.318899 0.468206 0.894726 0.156826
H7    H     H_    0.316080 0.527049 0.753759 0.160697
C17   C     C_R   0.607853 0.060708 0.532931 0.117759
C18   C     C_R   0.502054 0.129288 0.494685 -0.118610
C19   C     C_R   0.405798 0.072108 0.443113 -0.263462
H8    H     H_    0.331801 0.128841 0.407374 0.158851
C20   C     C_R   0.404611 0.942099 0.438266 0.080745
C21   C     C_R   0.500325 0.872503 0.488678 -0.124119
C22   C     C_R   0.605901 0.933229 0.530462 0.086973
C23   C     C_3   0.656443 0.916754 0.616462 -0.469298
C24   C     C_3   0.657902 0.058601 0.619556 -0.497341
H9    H     H_    0.580471 0.872350 0.654644 0.197921
H10   H     H_    0.759437 0.873767 0.622648 0.203284
H11   H     H_    0.582699 0.097308 0.659452 0.201602
H12   H     H_    0.761865 0.096752 0.628425 0.202599
C25   C     C_R   0.077682 0.440229 0.560633 0.217669
N3    N     N_R   0.142860 0.499130 0.500540 -0.109620
C26   C     C_R   0.067305 0.568396 0.444537 -0.182701
H13   H     H_    0.118055 0.620818 0.398818 0.144822
C27   C     C_R   0.923824 0.570248 0.444626 0.002350
N4    N     N_R   0.857210 0.499170 0.500530 -0.125361
C28   C     C_R   0.935306 0.440168 0.560604 0.200403
C29   C     C_3   0.932681 0.304115 0.582940 -0.525891
C30   C     C_3   0.086444 0.304028 0.582882 -0.498718
H14   H     H_    0.895087 0.287616 0.643829 0.190539
H15   H     H_    0.883376 0.246973 0.534687 0.221808
H16   H     H_    0.137319 0.286923 0.643632 0.200843
H17   H     H_    0.125976 0.246873 0.534552 0.220845
C31   C     C_3   0.304669 0.883907 0.377910 -0.410640
C32   C     C_3   0.378283 0.834605 0.306857 -0.315391
C33   C     C_3   0.277840 0.789984 0.240904 -0.912865
H18   H     H_    0.210262 0.717500 0.265520 0.256905
H19   H     H_    0.214973 0.869798 0.215312 0.262300
H20   H     H_    0.334369 0.749501 0.192078 0.254699
H21   H     H_    0.440888 0.910465 0.281267 0.221081
H22   H     H_    0.446597 0.755695 0.327348 0.222971
H23   H     H_    0.245818 0.808902 0.406577 0.217100
H24   H     H_    0.228429 0.955059 0.354374 0.197175
C34   C     C_R   0.850890 0.649509 0.382405 0.181296
C35   C     C_R   0.835582 0.608968 0.302975 -0.153743
C36   C     C_R   0.773107 0.686879 0.242574 -0.135859
C37   C     C_R   0.730414 0.807393 0.260568 -0.142266
C38   C     C_R   0.752176 0.850812 0.338680 -0.177495
C39   C     C_R   0.814387 0.772844 0.399145 -0.113903
H25   H     H_    0.872161 0.517216 0.288043 0.117692
H26   H     H_    0.758369 0.654042 0.181809 0.136973
H27   H     H_    0.682071 0.867656 0.213803 0.131091
H28   H     H_    0.721437 0.945002 0.352296 0.139538
H29   H     H_    0.834022 0.808398 0.458985 0.129897
C40   C     C_R   0.188607 0.435346 0.099075 0.121823
C41   C     C_R   0.109116 0.544652 0.102138 -0.172938
C42   C     C_R   0.977566 0.549418 0.066286 -0.135369
C43   C     C_R   0.923744 0.445184 0.027214 -0.123265
C44   C     C_R   0.002018 0.336375 0.022974 -0.153955
C45   C     C_R   0.134021 0.331266 0.058695 -0.135881
H30   H     H_    0.148764 0.626375 0.132041 0.135707
H31   H     H_    0.917198 0.633921 0.068991 0.127318
H32   H     H_    0.821285 0.449097 0.000530 0.137628
H33   H     H_    0.959996 0.255627 0.992610 0.126952
H34   H     H_    0.192500 0.245482 0.056264 0.129650

loop_
_geom_bond_atom_site_label_1
_geom_bond_atom_site_label_2
_geom_bond_distance
_ccdc_geom_bond_type
C28   C29   1.488917 S    
C21   C22   1.390275 A    
C17   C22   1.361865 A    
C9    C10   1.389542 A    
C23   C24   1.515605 S    
C3    C21   1.417134 S    
C25   C30   1.490180 S    
C10   H4    1.083257 S    
C27   N4    1.384103 A    
Zn1   O7    1.968488 S    
C31   C32   1.531064 S    
C40   C41   1.406732 A    
C8    N1    1.411014 S    
C17   C18   1.384831 A    
C18   C19   1.395465 A    
C43   H32   1.079979 S    
C6    H7    1.083639 S    
C42   C43   1.394822 A    
O4    C2    1.292748 A    
O7    C4    1.298835 A    
C5    C6    1.398483 A    
C20   C31   1.512636 S    
C29   C30   1.518822 S    
C31   H23   1.105983 S    
C8    C9    1.396480 A    
C35   C36   1.398392 A    
O5    C3    1.285005 A    
C2    C5    1.451822 S    
N4    C28   1.362820 A    
C32   H22   1.109390 S    
C22   C23   1.492899 S    
C6    C7    1.382169 A    
C35   H25   1.082615 S    
C15   H5    1.083173 S    
C37   H27   1.082230 S    
C24   H11   1.112505 S    
C40   C45   1.406453 A    
C14   C15   1.401989 A    
C11   C12   1.384441 A    
O3    Zn1   1.966310 S    
N3    C26   1.357709 A    
C38   C39   1.398443 A    
C5    C10   1.402519 A    
C36   C37   1.397465 A    
C26   H13   1.081592 S    
C33   H20   1.110633 S    
N1    N2    1.244813 D    
O3    C2    1.293933 A    
C45   H34   1.083049 S    
C43   C44   1.397664 A    
C30   H16   1.111591 S    
C25   C28   1.406252 A    
C4    C14   1.457014 S    
O1    C1    1.281298 A    
C33   H19   1.111047 S    
C37   C38   1.397725 A    
C34   C39   1.402716 A    
C15   C16   1.394436 A    
Zn2   O8    1.966311 S    
C7    C8    1.411585 A    
C41   C42   1.396118 A    
C23   H9    1.112363 S    
C20   C21   1.417961 A    
C11   H2    1.082991 S    
O8    C4    1.289557 A    
C36   H26   1.081873 S    
C11   C13   1.411895 A    
C12   C14   1.396256 A    
C17   C24   1.495536 S    
C7    H6    1.083065 S    
C9    H3    1.082135 S    
Zn2   N3    2.015690 S    
Zn1   O5    1.989500 S    
C16   C40   1.486147 S    
C32   H21   1.112085 S    
O1    Zn1   1.992835 S    
O2    Zn2   1.989501 S    
C34   C35   1.402956 A    
O6    C3    1.283884 A    
C38   H28   1.082511 S    
O4    Zn2   1.968488 S    
C42   H31   1.082138 S    
C30   H17   1.112032 S    
C29   H15   1.111920 S    
C12   H1    1.080483 S    
C13   C16   1.407403 A    
O2    C1    1.283515 A    
C33   H18   1.110080 S    
C19   C20   1.391559 A    
C19   H8    1.084833 S    
C39   H29   1.083007 S    
C29   H14   1.111185 S    
C31   H24   1.112919 S    
C13   N2    1.412430 S    
C23   H10   1.111770 S    
C32   C33   1.521918 S    
C1    C18   1.405144 S    
C44   C45   1.399447 A    
Zn2   O6    1.992835 S    
C25   N3    1.363593 A    
C41   H30   1.079213 S    
Zn1   N4    2.015199 S    
C26   C27   1.417345 A    
C44   H33   1.082433 S    
C27   C34   1.470051 S    
C24   H12   1.109151 S    
