data_mof_unit_64836.cif
_audit_creation_date              2012-10-26T20:44:36-0400
_audit_creation_method            fapswitch 2.2
_symmetry_space_group_name_H-M    P1
_symmetry_Int_Tables_number       1
_space_group_crystal_system       triclinic
_cell_length_a                    13.134004
_cell_length_b                    14.431026
_cell_length_c                    17.331357
_cell_angle_alpha                 89.99716
_cell_angle_beta                  86.378116
_cell_angle_gamma                 90.007994
_cell_volume                      3278.37493775

loop_
_atom_site_label
_atom_site_type_symbol
_atom_type_description
_atom_site_fract_x
_atom_site_fract_y
_atom_site_fract_z
_atom_type_partial_charge
C1    C     C_R   0.500005 0.671305 0.499999 0.554896
C2    C     C_1   0.173603 0.500002 0.500013 0.215632
C3    C     C_1   0.949317 0.499999 0.499996 0.030454
C4    C     C_1   0.050683 0.500001 0.500004 0.030454
C5    C     C_R   0.487833 0.497935 0.652141 0.620607
C6    C     C_R   0.512168 0.502063 0.347859 0.620617
C7    C     C_R   0.481819 0.488102 0.736349 -0.066576
C8    C     C_R   0.518183 0.511902 0.263652 -0.066563
C9    C     C_R   0.567110 0.455777 0.773401 0.352299
C10   C     C_R   0.432903 0.544250 0.226600 0.352302
C11   C     C_R   0.562476 0.445765 0.853359 0.246121
C12   C     C_R   0.499995 0.328695 0.500001 0.554894
C13   C     C_R   0.437542 0.554270 0.146644 0.246123
C14   C     C_R   0.472636 0.469668 0.897272 -0.041728
C15   C     C_R   0.527376 0.530353 0.102731 -0.041716
C16   C     C_R   0.385846 0.498566 0.860283 0.249176
C17   C     C_R   0.614158 0.501435 0.139719 0.249171
C18   C     C_R   0.390629 0.507734 0.780006 0.341829
C19   C     C_R   0.609370 0.492257 0.219994 0.341830
C20   C     C_2   0.471241 0.469685 0.981712 0.471824
C21   C     C_2   0.528772 0.530338 0.018291 0.471838
C22   C     C_1   0.500011 0.772879 0.499988 0.010011
C23   C     C_1   0.499989 0.227121 0.500012 0.010010
C24   C     C_1   0.500008 0.857692 0.499987 0.011652
C25   C     C_1   0.499991 0.142308 0.500013 0.011652
C26   C     C_1   0.500003 0.957594 0.499995 0.051979
C27   C     C_1   0.499997 0.042406 0.500005 0.051979
C28   C     C_1   0.826397 0.499998 0.499987 0.215633
Cl1   Cl    Cl    0.271174 0.527102 0.913338 -0.262248
Cl2   Cl    Cl    0.728825 0.472886 0.086664 -0.262259
Cl3   Cl    Cl    0.330044 0.598987 0.103132 -0.297586
Cl4   Cl    Cl    0.669989 0.401075 0.896872 -0.297559
Cu1   Cu    Cu3+1 0.407320 0.500000 0.500010 1.134055
Cu2   Cu    Cu3+1 0.592680 0.500000 0.499990 1.134052
F1    F     F_    0.654611 0.432344 0.731929 -0.538866
F2    F     F_    0.345410 0.567699 0.268074 -0.538872
F3    F     F_    0.692902 0.462014 0.254995 -0.538480
F4    F     F_    0.307084 0.537950 0.745004 -0.538474
F5    F     F_    0.591342 0.590783 0.977849 -0.556928
F6    F     F_    0.408670 0.409242 0.022155 -0.556937
N1    N     N_1   0.731930 0.500000 0.499980 -0.137284
N2    N     N_1   0.268070 0.500000 0.500020 -0.137284
O1    O     O_R   0.421720 0.623950 0.500010 -0.471108
O2    O     O_R   0.578280 0.376050 0.499990 -0.471110
O3    O     O_R   0.578280 0.623950 0.499990 -0.492320
O4    O     O_R   0.421720 0.376050 0.500010 -0.492319
O5    O     O_R   0.412660 0.500000 0.613600 -0.445520
O6    O     O_R   0.587340 0.500000 0.386400 -0.445527
O7    O     O_R   0.569190 0.500000 0.613590 -0.441912
O8    O     O_R   0.430810 0.500000 0.386410 -0.441915

loop_
_geom_bond_atom_site_label_1
_geom_bond_atom_site_label_2
_ccdc_geom_bond_type
C2    C4    S    
C5    C7    S    
Cu1   O4    S    
C14   C20   S    
C25   C27   S    
C9    C11   A    
C21   F5    S    
C7    C18   A    
C5    O7    A    
C23   C25   T    
Cu1   Cu2   S    
C18   F4    S    
C1    C22   S    
C12   O2    A    
Cu2   O3    S    
C6    O8    A    
C17   Cl2   S    
C5    O5    A    
C12   C23   S    
C1    O3    A    
C26   C27   T    
Cu2   N1    S    
C6    O6    A    
C2    N2    T    
Cu1   O5    S    
Cu1   N2    S    
C8    C10   A    
C3    C28   S    
C17   C19   A    
C24   C26   S    
C11   Cl4   S    
C22   C24   T    
C13   C15   A    
C20   F6    S    
C11   C14   A    
C14   C16   A    
C8    C19   A    
Cu2   O6    S    
C9    F1    S    
C3    C4    T    
Cu1   O1    S    
C7    C9    A    
C28   N1    T    
C15   C21   S    
Cu2   O2    S    
C20   C21   D    
C16   Cl1   S    
C12   O4    A    
C15   C17   A    
C13   Cl3   S    
Cu2   O7    S    
C6    C8    S    
C19   F3    S    
Cu1   O8    S    
C1    O1    A    
C16   C18   A    
C10   F2    S    
C10   C13   A    
