data_mof_unit_34663.cif
_audit_creation_date              2012-10-26T21:00:16-0400
_audit_creation_method            fapswitch 2.2
_symmetry_space_group_name_H-M    P1
_symmetry_Int_Tables_number       1
_space_group_crystal_system       triclinic
_cell_length_a                    19.268719
_cell_length_b                    8.662567
_cell_length_c                    7.433457
_cell_angle_alpha                 103.268036
_cell_angle_beta                  93.780053
_cell_angle_gamma                 92.224577
_cell_volume                      1203.15967148

loop_
_atom_site_label
_atom_site_type_symbol
_atom_type_description
_atom_site_fract_x
_atom_site_fract_y
_atom_site_fract_z
_atom_type_partial_charge
C1    C     C_R   0.497888 0.199540 0.452979 0.537572
C2    C     C_R   0.816788 0.422076 0.362593 -0.123766
C3    C     C_R   0.147110 0.535256 0.507438 0.029961
C4    C     C_R   0.854688 0.530454 0.508314 0.031091
C5    C     C_R   0.186750 0.621742 0.405845 -0.007060
C6    C     C_R   0.819508 0.627585 0.648934 -0.007431
C7    C     C_R   0.258844 0.606654 0.409172 -0.139408
C8    C     C_R   0.746790 0.613827 0.638290 -0.137011
C9    C     C_R   0.291959 0.508175 0.509760 0.012939
C10   C     C_R   0.708582 0.505616 0.492567 0.007819
C11   C     C_R   0.930701 0.534316 0.510526 0.322326
C12   C     C_R   0.502561 0.800491 0.546977 0.546728
C13   C     C_R   0.070881 0.536638 0.505857 0.316945
C14   C     C_3   0.283722 0.305207 0.713472 -0.249834
C15   C     C_3   0.303339 0.153481 0.578855 -0.295259
C16   C     C_3   0.330562 0.032768 0.683055 -0.440162
C17   C     C_3   0.706992 0.281976 0.194476 -0.247863
C18   C     C_3   0.679786 0.138488 0.263018 -0.287132
C19   C     C_3   0.641417 0.013854 0.105183 -0.435823
C20   C     C_3   0.154469 0.726157 0.288400 -0.246225
C21   C     C_3   0.112476 0.626911 0.114865 -0.287857
C22   C     C_3   0.075154 0.732907 0.006474 -0.435684
C23   C     C_2   0.496923 0.031420 0.426596 -0.168809
C24   C     C_3   0.856802 0.740243 0.817016 -0.247679
C25   C     C_3   0.853714 0.912995 0.799863 -0.292751
C26   C     C_3   0.889300 0.027740 0.971080 -0.438340
C27   C     C_2   0.504498 0.968672 0.573206 -0.168145
C28   C     C_R   0.367562 0.498998 0.503061 0.537757
C29   C     C_R   0.632462 0.498633 0.496491 0.537456
C30   C     C_R   0.252339 0.421078 0.610307 -0.019019
C31   C     C_R   0.743939 0.407436 0.352014 -0.021524
C32   C     C_R   0.180351 0.436791 0.607865 -0.127698
Cu1   Cu    Cu3+1 0.507710 0.517380 0.684380 0.927074
Cu2   Cu    Cu3+1 0.492290 0.482620 0.315620 0.923580
H1    H     H_    0.149414 0.369700 0.683465 0.121349
H2    H     H_    0.289517 0.995796 0.765136 0.153991
H3    H     H_    0.345725 0.925978 0.582449 0.147978
H4    H     H_    0.256758 0.098848 0.486571 0.159045
H5    H     H_    0.344118 0.181976 0.490966 0.170927
H6    H     H_    0.329431 0.362394 0.806238 0.161798
H7    H     H_    0.245758 0.271128 0.806010 0.132532
H8    H     H_    0.595696 0.064801 0.045751 0.168481
H9    H     H_    0.676792 0.970677 0.994440 0.142501
H10   H     H_    0.622771 0.911365 0.158846 0.137630
H11   H     H_    0.724329 0.083654 0.322622 0.156223
H12   H     H_    0.844647 0.347165 0.256823 0.116666
H13   H     H_    0.643737 0.176330 0.373242 0.175088
H14   H     H_    0.664394 0.333403 0.123619 0.180583
H15   H     H_    0.743474 0.238935 0.086162 0.127191
H16   H     H_    0.040849 0.811972 0.096156 0.161499
H17   H     H_    0.113536 0.806020 0.951881 0.160589
H18   H     H_    0.042255 0.657390 0.888690 0.174750
H19   H     H_    0.148144 0.552759 0.024171 0.157964
H20   H     H_    0.072780 0.546155 0.152626 0.188463
H21   H     H_    0.121815 0.813228 0.372697 0.176225
H22   H     H_    0.195678 0.798592 0.242230 0.125170
H23   H     H_    0.289794 0.671964 0.331662 0.117492
H24   H     H_    0.862777 0.018149 0.096660 0.153474
H25   H     H_    0.944929 0.001480 0.989871 0.168234
H26   H     H_    0.886579 0.151427 0.953936 0.147213
H27   H     H_    0.879926 0.927819 0.675590 0.193231
H28   H     H_    0.798543 0.943822 0.783259 0.149347
H29   H     H_    0.831664 0.726274 0.943311 0.137737
H30   H     H_    0.911815 0.711012 0.838226 0.162077
H31   H     H_    0.719622 0.688217 0.746214 0.117923
H32   H     H_    0.489805 0.959053 0.285600 0.132172
H33   H     H_    0.511661 0.041071 0.714190 0.125147
H34   H     H_    0.446280 0.376790 0.948453 0.231410
H35   H     H_    0.554282 0.622026 0.051394 0.234966
H36   H     H_    0.376923 0.084600 0.777476 0.153052
N1    N     N_R   0.032785 0.398228 0.487752 -0.242509
N2    N     N_R   0.968573 0.672957 0.528055 -0.247571
N3    N     N_R   0.963876 0.396947 0.488992 -0.240549
N4    N     N_R   0.037595 0.674070 0.526379 -0.256272
N5    N     N_2   0.480680 0.456420 0.038530 -0.259574
N6    N     N_2   0.519320 0.543580 0.961470 -0.258191
O1    O     O_R   0.505010 0.286130 0.619770 -0.503777
O2    O     O_R   0.494990 0.713870 0.380230 -0.502183
O3    O     O_R   0.491990 0.256780 0.308370 -0.502221
O4    O     O_R   0.508010 0.743220 0.691630 -0.497740
O5    O     O_R   0.406650 0.514660 0.655750 -0.502003
O6    O     O_R   0.593350 0.485340 0.344250 -0.508312
O7    O     O_R   0.393640 0.485310 0.344340 -0.502355
O8    O     O_R   0.606360 0.514690 0.655660 -0.503628

loop_
_geom_bond_atom_site_label_1
_geom_bond_atom_site_label_2
_ccdc_geom_bond_type
C21   H19   S    
C1    O1    A    
C17   H14   S    
C20   H22   S    
C18   H13   S    
C5    C20   S    
C2    H12   S    
H34   N5    S    
C23   H32   S    
C22   H18   S    
C21   H20   S    
C15   C16   S    
H35   N6    S    
C18   C19   S    
C10   C31   A    
C12   O2    A    
C23   C27   D    
C26   H25   S    
C3    C13   S    
C19   H8    S    
C16   H3    S    
C22   H16   S    
C8    H31   S    
C24   H30   S    
C21   C22   S    
C28   O7    A    
C14   C30   S    
C20   H21   S    
C19   H9    S    
C17   C18   S    
C12   C27   S    
C32   H1    S    
C16   H36   S    
C24   C25   S    
C29   O8    A    
C4    C6    A    
C11   N3    A    
C17   H15   S    
N1    N3    A    
C11   N2    A    
C6    C8    A    
C13   N1    A    
C25   C26   S    
C2    C31   A    
C2    C4    A    
N5    N6    D    
C15   H4    S    
Cu2   O3    S    
Cu1   N6    S    
C6    C24   S    
Cu1   Cu2   S    
C25   H27   S    
C13   N4    A    
C4    C11   S    
C26   H24   S    
C15   H5    S    
C9    C30   A    
C14   H7    S    
N2    N4    A    
C1    C23   S    
C24   H29   S    
C1    O3    A    
Cu2   O7    S    
C18   H11   S    
C19   H10   S    
C5    C7    A    
C7    C9    A    
C28   O5    A    
C3    C5    A    
Cu1   O4    S    
Cu2   N5    S    
C29   O6    A    
Cu2   O2    S    
C30   C32   A    
C10   C29   S    
Cu1   O1    S    
Cu1   O5    S    
C17   C31   S    
C12   O4    A    
C25   H28   S    
C3    C32   A    
Cu1   O8    S    
C27   H33   S    
C14   H6    S    
C20   C21   S    
C8    C10   A    
C14   C15   S    
Cu2   O6    S    
C26   H26   S    
C7    H23   S    
C16   H2    S    
C9    C28   S    
C22   H17   S    
