data_mof_unit_55568.cif
_audit_creation_date              2012-12-11T14:56:28-0500
_audit_creation_method            fapswitch 2.2
_symmetry_space_group_name_H-M    P1
_symmetry_Int_Tables_number       1
_space_group_crystal_system       triclinic
_cell_length_a                    10.70386
_cell_length_b                    10.820452
_cell_length_c                    17.272703
_cell_angle_alpha                 79.885799
_cell_angle_beta                  89.597841
_cell_angle_gamma                 119.958874
_cell_volume                      1695.74321537

loop_
_atom_site_label
_atom_site_type_symbol
_atom_type_description
_atom_site_fract_x
_atom_site_fract_y
_atom_site_fract_z
_atom_type_partial_charge
C1    C     C_R   0.229997 0.858562 0.129969 0.541236
C2    C     C_R   0.795018 0.424865 0.263206 -0.133980
C3    C     C_R   0.787206 0.414876 0.184336 -0.030930
C4    C     C_R   0.649579 0.341519 0.157352 0.005816
C5    C     C_1   0.682172 0.833052 0.202257 -0.033074
C6    C     C_1   0.701648 0.810578 0.270474 -0.033381
C7    C     C_1   0.186552 0.829406 0.212341 -0.046058
C8    C     C_1   0.154273 0.822844 0.280251 -0.034950
C9    C     C_1   0.648877 0.322374 0.777958 -0.070234
C10   C     C_1   0.656725 0.345429 0.707599 -0.089866
C11   C     C_R   0.507490 0.732035 0.790576 0.010553
C12   C     C_R   0.635451 0.278163 0.086971 0.540210
C13   C     C_R   0.541061 0.699650 0.722033 -0.051849
C14   C     C_R   0.639095 0.821648 0.660868 -0.001200
C15   C     C_R   0.694722 0.965397 0.670604 -0.064372
C16   C     C_R   0.684708 0.991314 0.745891 -0.172535
C17   C     C_R   0.600526 0.873705 0.807669 -0.002059
C18   C     C_R   0.086016 0.899315 0.791242 -0.021842
C19   C     C_R   0.092296 0.914960 0.708212 -0.033908
C20   C     C_R   0.115687 0.814097 0.673561 0.025295
C21   C     C_R   0.140737 0.712208 0.723191 -0.036039
C22   C     C_R   0.139646 0.707800 0.803880 -0.144929
C23   C     C_R   0.641766 0.856286 0.124817 0.566653
C24   C     C_R   0.133217 0.812319 0.835752 -0.015627
C25   C     C_R   0.710138 0.775073 0.353171 0.560713
C26   C     C_R   0.689840 0.397085 0.394877 0.555660
C27   C     C_R   0.102927 0.810845 0.359090 0.552813
C28   C     C_R   0.675963 0.794996 0.586691 0.554896
C29   C     C_R   0.680268 0.383759 0.624510 0.549655
C30   C     C_R   0.083639 0.798252 0.591384 0.547710
C31   C     C_R   0.212575 0.857358 0.904242 0.530503
C32   C     C_R   0.637970 0.282532 0.860713 0.535311
C33   C     C_R   0.597865 0.893142 0.889555 0.568779
C34   C     C_R   0.523128 0.301258 0.207564 -0.049220
C35   C     C_R   0.533318 0.309182 0.287427 -0.048025
C36   C     C_R   0.669332 0.367554 0.315584 -0.006690
Cr1   Cr    Cr6+3 0.402240 0.783890 0.019450 1.011031
Cr2   Cr    Cr6+3 0.382360 0.097900 0.991800 1.043808
Cr3   Cr    Cr6+3 0.715380 0.118170 0.988700 1.031186
Cr4   Cr    Cr6+3 0.936650 0.882420 0.465510 1.021380
Cr5   Cr    Cr6+3 0.605770 0.565620 0.493360 1.000802
Cr6   Cr    Cr6+3 0.921340 0.550490 0.496380 1.012674
H1    H     H_    0.146744 0.623956 0.842580 0.163956
H2    H     H_    0.901491 0.481503 0.283257 0.144790
H3    H     H_    0.736104 0.101252 0.756140 0.131813
O1    O     O_R   0.521780 0.757110 0.108900 -0.505950
O2    O     O_R   0.513330 0.228330 0.898660 -0.518567
O3    O     O_R   0.739230 0.266130 0.888050 -0.528308
O4    O     O_R   0.712580 0.991850 0.918770 -0.465821
O5    O     O_3   0.499990 0.999980 0.999980 -0.289502
O6    O     O_R   0.083770 0.911170 0.376030 -0.484744
O7    O     O_R   0.808770 0.880340 0.383890 -0.483919
O8    O     O_R   0.584340 0.689460 0.394160 -0.498088
O9    O     O_R   0.614320 0.443940 0.423590 -0.508471
O10   O     O_R   0.805020 0.410040 0.421340 -0.496478
O11   O     O_R   0.049240 0.685450 0.403290 -0.509594
O12   O     O_R   0.275160 0.783810 0.101120 -0.521998
O13   O     O_R   0.077520 0.903010 0.551800 -0.535017
O14   O     O_R   0.802980 0.872780 0.546830 -0.518914
O15   O     O_R   0.578090 0.681300 0.569920 -0.540130
O16   O     O_R   0.608530 0.436370 0.586530 -0.524360
O17   O     O_R   0.798770 0.401880 0.597100 -0.500827
O18   O     O_R   0.043450 0.677890 0.566230 -0.508308
O19   O     O_3   0.821250 0.666180 0.485090 -0.285564
O20   O     O_R   0.237900 0.972600 0.090980 -0.477109
O21   O     O_R   0.511190 0.220540 0.061620 -0.489958
O22   O     O_R   0.736920 0.257720 0.063840 -0.525613
O23   O     O_R   0.710450 0.984050 0.081720 -0.488375
O24   O     O_R   0.524090 0.765520 0.933110 -0.499049
O25   O     O_R   0.277300 0.791600 0.938160 -0.527639
O26   O     O_R   0.240210 0.981010 0.915190 -0.516927
C37   C     C_1   0.381713 0.251436 0.179281 0.246814
N1    N     N_1   0.268394 0.212033 0.157660 -0.280401
C38   C     C_3   0.061370 0.030334 0.660756 -0.226314
C39   C     C_3   0.186741 0.154024 0.598060 -0.264972
C40   C     C_3   0.130808 0.206051 0.525712 -0.380180
H4    H     H_    0.077988 0.122277 0.489626 0.225261
H5    H     H_    0.051204 0.234031 0.544067 0.139532
H6    H     H_    0.222228 0.306092 0.488436 0.147462
H7    H     H_    0.251351 0.252232 0.621471 0.126621
H8    H     H_    0.265084 0.123009 0.579557 0.200336
H9    H     H_    0.961260 0.972430 0.634428 0.198271
H10   H     H_    0.028745 0.083224 0.698696 0.111556
C41   C     C_3   0.171625 0.606892 0.693714 -0.247750
C42   C     C_3   0.041697 0.453042 0.717904 -0.276653
C43   C     C_3   0.047666 0.358749 0.665254 -0.426178
H11   H     H_    0.041392 0.401429 0.603034 0.193839
H12   H     H_    0.150412 0.359268 0.669387 0.128017
H13   H     H_    0.956387 0.246764 0.685089 0.150727
H14   H     H_    0.041609 0.405696 0.780517 0.169078
H15   H     H_    0.939933 0.454919 0.712965 0.207138
H16   H     H_    0.210344 0.639861 0.629821 0.171459
H17   H     H_    0.264124 0.608607 0.720451 0.137408
C44   C     C_1   0.403300 0.251528 0.340823 0.228725
N2    N     N_1   0.298956 0.204831 0.383111 -0.296164
C45   C     C_3   0.927895 0.487157 0.130527 -0.229393
C46   C     C_3   0.005537 0.399108 0.144647 -0.273935
C47   C     C_3   0.102836 0.427014 0.070935 -0.386456
H18   H     H_    0.186631 0.543913 0.053691 0.202294
H19   H     H_    0.157816 0.363074 0.082949 0.169031
H20   H     H_    0.037436 0.393341 0.020903 0.169074
H21   H     H_    0.072262 0.429483 0.194589 0.159193
H22   H     H_    0.925574 0.280219 0.161029 0.203017
H23   H     H_    0.909276 0.506858 0.067494 0.164132
H24   H     H_    0.998958 0.597133 0.142181 0.133848
C48   C     C_1   0.382553 0.618434 0.845668 0.213739
N3    N     N_1   0.289558 0.529862 0.893411 -0.353847
C49   C     C_3   0.475675 0.538853 0.712291 -0.257139
C50   C     C_3   0.387873 0.407509 0.781200 -0.316400
C51   C     C_3   0.338388 0.261493 0.759208 -0.442017
H25   H     H_    0.223384 0.212143 0.750869 0.144316
H26   H     H_    0.398845 0.269808 0.705136 0.156058
H27   H     H_    0.345257 0.184944 0.806894 0.218474
H28   H     H_    0.451189 0.418783 0.832765 0.205570
H29   H     H_    0.283338 0.399506 0.796211 0.188866
H30   H     H_    0.401280 0.518658 0.665622 0.176202
H31   H     H_    0.569944 0.531350 0.694365 0.191084
C52   C     C_1   0.749966 0.082895 0.602131 0.178705
N4    N     N_1   0.791203 0.173627 0.545620 -0.263798
C53   C     C_1   0.023195 0.964150 0.832962 0.196531
N5    N     N_1   0.974495 0.016773 0.866383 -0.268030

loop_
_geom_bond_atom_site_label_1
_geom_bond_atom_site_label_2
_ccdc_geom_bond_type
C45   H24   S    
Cr1   O24   S    
Cr3   O23   S    
C19   C20   A    
C40   H6    S    
Cr5   O16   S    
C38   H10   S    
C26   O10   A    
C46   C47   S    
C42   H15   S    
C7    C8    T    
C20   C30   S    
C42   C43   S    
C18   C24   A    
C40   H5    S    
C18   C19   A    
C5    C6    T    
C43   H12   S    
C28   O14   A    
C6    C25   S    
C48   N3    T    
C33   O4    A    
C15   C16   A    
C49   C50   S    
C34   C35   A    
C52   N4    T    
C9    C32   S    
Cr6   O11   S    
C51   H25   S    
C31   O25   A    
Cr2   O21   S    
C2    H2    S    
C16   C17   A    
C1    O20   A    
C21   C41   S    
C3    C45   S    
C13   C14   A    
C4    C12   S    
C39   H7    S    
Cr6   O17   S    
C46   H21   S    
C33   O24   A    
C31   O26   A    
Cr4   O14   S    
C1    C7    S    
C21   C22   A    
C32   O3    A    
Cr2   O26   S    
C17   C33   S    
C38   H9    S    
C13   C49   S    
C26   O9    A    
C27   O6    A    
C29   O16   A    
C28   O15   A    
C12   O22   A    
C4    C34   A    
Cr4   O13   S    
C38   C39   S    
C41   C42   S    
C43   H11   S    
C39   H8    S    
Cr4   O7    S    
C12   O21   A    
C35   C36   A    
C23   O23   A    
C39   C40   S    
C1    O12   A    
Cr6   O10   S    
C22   H1    S    
C5    C23   S    
Cr2   O20   S    
C45   C46   S    
C11   C48   S    
C40   H4    S    
C51   H27   S    
Cr5   O8    S    
Cr2   O2    S    
C46   H22   S    
C50   H28   S    
C26   C36   S    
Cr3   O4    S    
C47   H19   S    
C45   H23   S    
C32   O2    A    
C22   C24   A    
C3    C4    A    
C47   H20   S    
C18   C53   S    
C53   N5    T    
C9    C10   T    
C35   C44   S    
C2    C36   A    
C29   O17   A    
C11   C17   A    
C27   O11   A    
Cr3   O22   S    
C49   H31   S    
C19   C38   S    
Cr5   O15   S    
C25   O8    A    
C37   N1    T    
C43   H13   S    
C16   H3    S    
Cr6   O19   S    
C42   H14   S    
Cr2   O5    S    
Cr4   O6    S    
Cr4   O19   S    
C15   C52   S    
C49   H30   S    
C2    C3    A    
C24   C31   S    
C50   C51   S    
Cr1   O5    S    
C11   C13   A    
C10   C29   S    
C30   O13   A    
C30   O18   A    
C41   H17   S    
C44   N2    T    
C51   H26   S    
Cr5   O9    S    
C25   O7    A    
C50   H29   S    
C34   C37   S    
Cr3   O5    S    
C20   C21   A    
C47   H18   S    
C23   O1    A    
C8    C27   S    
C14   C15   A    
C41   H16   S    
Cr5   O19   S    
C14   C28   S    
Cr1   O1    S    
Cr1   O25   S    
Cr6   O18   S    
Cr1   O12   S    
Cr3   O3    S    
