data_mof_unit_19912.cif
_audit_creation_date              2013-03-05T16:12:09-0500
_audit_creation_method            fapswitch 2.2
_symmetry_space_group_name_H-M    P1
_symmetry_Int_Tables_number       1
_space_group_crystal_system       triclinic
_cell_length_a                    10.87746
_cell_length_b                    9.747295
_cell_length_c                    27.381074
_cell_angle_alpha                 91.488048
_cell_angle_beta                  89.150264
_cell_angle_gamma                 90.124667
_cell_volume                      2901.79774823

loop_
_atom_site_label
_atom_site_type_symbol
_atom_site_description
_atom_site_fract_x
_atom_site_fract_y
_atom_site_fract_z
_atom_type_partial_charge
O1    O     O_R   0.317570 0.620260 0.500030 -0.552543
O2    O     O_R   0.317570 0.379740 0.500030 -0.490345
C1    C     C_R   0.260913 0.500706 0.504664 0.843776
O3    O     O_R   0.499900 0.620250 0.430280 -0.547383
O4    O     O_R   0.499900 0.379750 0.430280 -0.563827
C2    C     C_R   0.500564 0.498820 0.407369 0.871572
Cu1   Cu    Cu3+1 0.499860 0.642410 0.500020 0.983925
Cu2   Cu    Cu3+1 0.499860 0.357590 0.500020 1.014549
O5    O     O_R   0.682190 0.620260 0.500010 -0.640548
O6    O     O_R   0.682190 0.379740 0.500010 -0.608241
O7    O     O_R   0.499860 0.620280 0.569750 -0.585040
O8    O     O_R   0.499860 0.379720 0.569750 -0.552026
C3    C     C_R   0.738921 0.499876 0.500067 0.702662
C4    C     C_R   0.505196 0.501578 0.592191 0.855187
C5    C     C_R   0.567879 0.619645 0.177195 0.598395
O9    O     O_2   0.527832 0.728530 0.204258 -0.421061
N1    N     N_R   0.591169 0.499739 0.199980 -0.484494
C6    C     C_R   0.631684 0.385780 0.174622 0.583445
C7    C     C_R   0.640326 0.572768 0.283888 -0.028676
C8    C     C_R   0.613406 0.575900 0.333706 -0.146855
C9    C     C_R   0.440882 0.422203 0.320478 -0.065256
C10   C     C_R   0.470209 0.417763 0.270302 -0.144124
C11   C     C_R   0.569326 0.493347 0.251881 0.314568
C12   C     C_R   0.635681 0.515488 0.099584 -0.109409
C13   C     C_R   0.584473 0.629122 0.126187 -0.110653
C14   C     C_R   0.546744 0.745335 0.100474 0.395135
C15   C     C_R   0.659979 0.391597 0.123971 -0.022575
C16   C     C_R   0.516591 0.498086 0.353268 -0.027491
H1    H     H_    0.411751 0.361879 0.244936 0.157310
C17   C     C_R   0.534989 0.505559 0.644528 0.007989
C18   C     C_R   0.650170 0.655733 0.972565 -0.010211
C19   C     C_R   0.725372 0.417087 0.969616 -0.021808
C20   C     C_R   0.684579 0.535407 0.945534 0.034889
C21   C     C_R   0.638098 0.779619 0.946418 0.352913
C22   C     C_R   0.627549 0.774930 0.895758 -0.132444
C23   C     C_R   0.641760 0.651395 0.869384 -0.095405
C24   C     C_R   0.678914 0.533890 0.893807 -0.048524
C25   C     C_R   0.709603 0.414671 0.866437 -0.060307
C26   C     C_R   0.688662 0.409963 0.815801 0.563546
N2    N     N_R   0.642721 0.522381 0.793278 -0.465313
C27   C     C_R   0.624369 0.643679 0.818704 0.577523
C28   C     C_R   0.483615 0.531903 0.730933 -0.166974
C29   C     C_R   0.446626 0.531257 0.682155 -0.010560
C30   C     C_R   0.658161 0.484056 0.656920 -0.189596
C31   C     C_R   0.694136 0.487843 0.705656 -0.050217
C32   C     C_R   0.606922 0.512243 0.742915 0.331328
O10   O     O_2   0.588099 0.756110 0.795058 -0.493174
C33   C     C_R   0.629481 0.646814 0.023836 0.004276
C34   C     C_R   0.658998 0.524685 0.048234 0.094514
C35   C     C_R   0.704842 0.409240 0.021147 0.052544
C36   C     C_R   0.565094 0.749743 0.050309 -0.196945
H2    H     H_    0.416799 0.551061 0.760078 0.140802
H3    H     H_    0.612564 0.869730 0.876908 0.225809
H4    H     H_    0.519921 0.831677 0.032061 0.226531
O11   O     O_2   0.642064 0.267470 0.198580 -0.445480
C37   C     C_R   0.703487 0.276378 0.096056 -0.014326
H5    H     H_    0.668490 0.640943 0.356701 0.140217
H6    H     H_    0.715486 0.634228 0.269970 0.170479
C38   C     C_R   0.784607 0.312020 0.940423 -0.022442
C39   C     C_R   0.765816 0.306093 0.889798 -0.084427
O12   O     O_2   0.711393 0.293357 0.789631 -0.498154
C40   C     C_R   0.716123 0.284781 0.045530 -0.266646
H7    H     H_    0.726988 0.465846 0.628594 0.119347
H8    H     H_    0.803046 0.220984 0.868076 0.223672
H9    H     H_    0.789938 0.473529 0.714388 0.154694
H10   H     H_    0.733455 0.190080 0.025541 0.188340
C41   C     C_3   0.063684 0.645603 0.522647 -0.186001
C42   C     C_3   0.064538 0.386294 0.538446 -0.154667
H11   H     H_    0.079938 0.716195 0.492503 0.240069
H12   H     H_    0.094899 0.287507 0.522487 0.250356
C43   C     C_3   0.922320 0.634949 0.526397 -0.360767
C44   C     C_3   0.922375 0.383761 0.534860 -0.458395
H13   H     H_    0.888237 0.637724 0.564929 0.199085
H14   H     H_    0.878270 0.395696 0.571622 0.160758
H15   H     H_    0.882476 0.726595 0.509570 0.209545
H16   H     H_    0.892038 0.281294 0.520901 0.180460
H17   H     H_    0.130488 0.541221 0.428808 0.268530
H18   H     H_    0.113830 0.366854 0.442430 0.229796
C45   C     C_3   0.080650 0.471310 0.453607 -0.352881
C46   C     C_3   0.121325 0.502461 0.506626 -0.096850
C47   C     C_3   0.877293 0.499524 0.501386 -0.011145
C48   C     C_3   0.938016 0.481797 0.448533 -0.134916
C49   C     C_3   0.614505 0.082680 0.477285 -0.224516
C50   C     C_3   0.624348 0.920865 0.487297 -0.160895
H19   H     H_    0.696205 0.131108 0.494023 0.164913
H20   H     H_    0.686764 0.912192 0.518760 0.113321
C51   C     C_3   0.498669 0.088313 0.552263 -0.138322
C52   C     C_3   0.473853 0.924394 0.551208 -0.232351
C53   C     C_3   0.387805 0.078991 0.477108 0.620125
C54   C     C_3   0.409953 0.919898 0.464796 0.631618
N3    N     N_3   0.500250 0.143650 0.501060 -0.291512
N4    N     N_3   0.500250 0.856350 0.501060 -0.286473
H21   H     H_    0.422102 0.136278 0.573754 0.256311
H22   H     H_    0.375276 0.906827 0.560011 0.206066
C55   C     C_2   0.322936 0.361051 0.335377 0.509296
H23   H     H_    0.284916 0.275159 0.314525 0.120770
O13   O     O_2   0.263116 0.411255 0.369220 -0.530937
C56   C     C_2   0.739661 0.143772 0.116802 0.535442
H24   H     H_    0.706705 0.048345 0.100333 0.102417
O14   O     O_2   0.814492 0.139565 0.149523 -0.451912
C57   C     C_2   0.882880 0.223619 0.959824 0.420598
H25   H     H_    0.926443 0.251136 0.994114 0.080704
O15   O     O_2   0.918216 0.120868 0.937350 -0.479759
C58   C     C_2   0.119373 0.716051 0.567105 0.470946
H26   H     H_    0.213975 0.749809 0.565682 0.154994
O16   O     O_2   0.059322 0.741689 0.604268 -0.522585
C59   C     C_2   0.103965 0.393006 0.590946 0.437758
H27   H     H_    0.067117 0.471509 0.615772 0.122532
O17   O     O_2   0.174982 0.308115 0.606366 -0.484653
C60   C     C_2   0.903017 0.602248 0.417443 0.559694
H28   H     H_    0.807497 0.615837 0.409935 0.014555
O18   O     O_2   0.977936 0.681889 0.400260 -0.446981
C61   C     C_2   0.893844 0.351045 0.422775 0.392378
H29   H     H_    0.912096 0.252550 0.438655 0.151229
O19   O     O_2   0.841914 0.353211 0.383485 -0.495651
C62   C     C_2   0.633053 0.121252 0.424055 0.514860
H30   H     H_    0.559730 0.154575 0.401557 0.160689
O20   O     O_2   0.733580 0.108887 0.404215 -0.466112
C63   C     C_2   0.699904 0.848249 0.448225 0.504579
H31   H     H_    0.660965 0.775382 0.423188 0.121779
O21   O     O_2   0.808801 0.876500 0.443538 -0.506612
C64   C     C_2   0.611489 0.130802 0.582427 0.439968
H32   H     H_    0.704552 0.108423 0.570308 0.033950
O22   O     O_2   0.597905 0.181382 0.623429 -0.499168
C65   C     C_2   0.541856 0.864071 0.593558 0.527201
H33   H     H_    0.636701 0.830874 0.589769 0.049524
O23   O     O_2   0.491061 0.855894 0.633479 -0.487488
Cl1   Cl    Cl    0.251375 0.100155 0.515837 -0.575619
Cl2   Cl    Cl    0.262617 0.844157 0.458854 -0.469890
Cl3   Cl    Cl    0.334803 0.163739 0.424447 -0.496704
Cl4   Cl    Cl    0.456143 0.891595 0.401394 -0.535273
Cl5   Cl    Cl    0.465690 0.886107 0.127145 -0.491241
C66   C     C_2   0.316249 0.560340 0.672814 0.454296
H34   H     H_    0.248944 0.558812 0.702478 0.082119
O24   O     O_2   0.282652 0.590385 0.632362 -0.580770
Cl6   Cl    Cl    0.661085 0.945137 0.972457 -0.638622

loop_
_geom_bond_atom_site_label_1
_geom_bond_atom_site_label_2
_geom_bond_distance
_ccdc_geom_bond_type
C42   C46   1.566845 S    
C51   C52   1.619421 S    
C57   H25   1.085141 S    
C10   H1    1.084155 S    
C51   N3    1.515048 S    
C22   H3    1.083858 S    
C55   H23   1.085629 S    
C12   C15   1.422160 A    
C37   C56   1.481607 S    
C44   H16   1.111302 S    
C15   C37   1.420019 A    
C45   C48   1.563559 S    
C58   O16   1.221627 D    
C47   C48   1.587329 S    
Cu1   Cu2   2.776224 S    
C31   C32   1.398929 A    
Cu1   O7    1.926987 S    
C52   C65   1.516647 S    
C48   C60   1.520374 S    
C23   C24   1.404357 A    
C50   H20   1.109793 S    
O4    C2    1.333506 A    
O7    C4    1.325858 A    
C5    C13   1.411008 A    
C5    O9    1.347902 S    
C3    C47   1.506118 S    
C62   H30   1.071079 S    
Cu1   O5    1.995466 S    
C21   C22   1.393121 A    
C28   C32   1.400281 A    
C9    C55   1.470192 S    
C29   C66   1.474199 S    
O5    C3    1.327023 A    
C60   H28   1.071309 S    
C54   Cl2   1.770971 S    
C33   C36   1.404537 A    
C2    C16   1.488828 S    
C52   N4    1.532853 S    
C41   C46   1.579920 S    
C59   H27   1.083730 S    
C18   C20   1.418490 A    
C42   C59   1.505970 S    
C53   N3    1.523919 S    
C44   C47   1.556662 S    
C42   C44   1.551045 S    
H17   C45   1.109427 S    
C65   H33   1.084605 S    
C38   C39   1.403843 A    
C57   O15   1.221536 D    
C9    C10   1.405390 A    
C59   O17   1.220769 D    
C17   C30   1.404458 A    
C23   C27   1.403327 A    
C4    C17   1.473427 S    
O3    Cu1   1.916146 S    
C1    C46   1.518639 S    
C58   H26   1.080138 S    
C41   C58   1.515565 S    
C63   O21   1.221185 D    
C7    H6    1.083048 S    
C26   O12   1.349111 S    
C52   H22   1.109432 S    
C40   H10   1.076404 S    
C38   C57   1.487280 S    
C12   C13   1.420004 A    
C44   H14   1.112103 S    
C26   N2    1.370169 A    
C43   H13   1.112762 S    
H18   C45   1.114773 S    
C8    C16   1.404312 A    
C13   C14   1.413961 A    
C20   C24   1.418272 A    
C53   Cl3   1.783931 S    
C61   O19   1.223160 D    
O1    C1    1.325191 A    
C22   C23   1.395597 A    
C7    C11   1.395014 A    
C24   C25   1.404467 A    
O4    Cu2   1.927293 S    
C54   N4    1.548507 S    
C49   C50   1.611966 S    
C21   Cl6   1.765655 S    
Cu2   O8    1.915854 S    
N1    C6    1.364975 A    
C27   O10   1.349875 S    
C18   C21   1.427018 A    
Cu2   N3    2.086284 S    
N1    C11   1.440278 S    
C19   C35   1.429274 A    
C6    O11   1.347220 S    
C25   C39   1.397393 A    
C54   Cl4   1.814414 S    
O3    C2    1.325091 A    
C33   C34   1.419793 A    
C49   H19   1.105294 S    
C9    C16   1.419923 A    
O8    C4    1.324625 A    
C56   H24   1.085636 S    
C56   O14   1.220908 D    
C18   C33   1.423322 A    
C31   H9    1.082732 S    
C66   H34   1.085755 S    
C35   C40   1.406280 A    
C34   C35   1.418833 A    
C37   C40   1.392749 A    
C17   C29   1.416443 A    
C28   C29   1.400432 A    
N2    C32   1.439342 S    
C64   O22   1.221460 D    
C53   C54   1.596403 S    
C14   Cl5   1.768493 S    
C30   C31   1.395753 A    
C65   O23   1.221845 D    
C61   H29   1.084094 S    
C12   C34   1.430091 A    
C5    N1    1.364997 A    
N2    C27   1.369884 A    
O1    Cu1   1.994102 S    
C49   C62   1.525033 S    
O2    Cu2   1.995035 S    
C6    C15   1.418704 A    
C48   C61   1.520943 S    
O6    C3    1.322440 A    
C51   C64   1.539396 S    
C63   H31   1.065753 S    
C55   O13   1.217171 D    
C49   N3    1.510184 S    
C39   H8    1.083812 S    
C36   H4    1.076391 S    
C19   C20   1.418510 A    
C7    C8    1.390459 A    
O2    C1    1.333876 A    
C8    H5    1.070608 S    
C14   C36   1.386827 A    
C43   H15   1.107735 S    
C25   C26   1.407944 A    
C50   C63   1.502715 S    
Cu1   N4    2.084787 S    
C51   H21   1.109659 S    
C62   O20   1.218554 D    
C41   C43   1.543038 S    
C60   O18   1.221855 D    
C45   C46   1.546291 S    
Cu2   O6    1.994534 S    
C30   H7    1.081542 S    
C66   O24   1.214679 D    
C42   H12   1.096562 S    
C10   C11   1.399756 A    
C50   N4    1.533987 S    
C19   C38   1.431072 A    
C41   H11   1.100269 S    
C64   H32   1.081497 S    
C28   H2    1.084248 S    
C43   C47   1.552909 S    
C53   Cl1   1.820086 S    
