data_mof_unit_19223.cif
_audit_creation_date              2012-12-11T16:50:48-0500
_audit_creation_method            fapswitch 2.2
_symmetry_space_group_name_H-M    P1
_symmetry_Int_Tables_number       1
_space_group_crystal_system       triclinic
_cell_length_a                    6.933167
_cell_length_b                    28.796365
_cell_length_c                    32.139083
_cell_angle_alpha                 100.743458
_cell_angle_beta                  89.608311
_cell_angle_gamma                 90.448742
_cell_volume                      6303.80882006

loop_
_atom_site_label
_atom_site_type_symbol
_atom_type_description
_atom_site_fract_x
_atom_site_fract_y
_atom_site_fract_z
_atom_type_partial_charge
O1    O     O_R   0.494350 0.453170 0.452520 -0.538633
O2    O     O_R   0.820980 0.455850 0.538220 -0.535030
O3    O     O_R   0.994300 0.546830 0.547480 -0.519056
C1    C     C_R   0.651515 0.445755 0.551815 0.718201
O4    O     O_R   0.823860 0.447590 0.452270 -0.543512
O5    O     O_R   0.997200 0.538510 0.460920 -0.538716
C2    C     C_R   0.654961 0.434700 0.436617 0.693044
O6    O     O_R   0.491440 0.461490 0.539080 -0.541562
O7    O     O_3   0.661790 0.529840 0.502940 -0.368162
V1    V     V_3+5 0.935470 0.494460 0.499450 1.422420
O8    O     O_R   0.327090 0.544150 0.461780 -0.539521
C3    C     C_R   0.159024 0.554218 0.448313 0.715612
O9    O     O_R   0.324210 0.552410 0.547730 -0.553661
C4    C     C_R   0.155154 0.564761 0.563613 0.748661
V2    V     V_3+5 0.435840 0.505540 0.500550 1.395294
O10   O     O_3   0.159650 0.470160 0.497060 -0.370778
C5    C     C_R   0.211378 0.867769 0.891406 -0.156261
H1    H     H_    0.330357 0.872885 0.913502 0.125445
C6    C     C_R   0.223646 0.831837 0.855585 -0.135991
H2    H     H_    0.350870 0.809925 0.851804 0.107532
C7    C     C_R   0.073365 0.824038 0.825678 0.095598
C8    C     C_R   0.908551 0.852903 0.833480 -0.131581
H3    H     H_    0.790973 0.849160 0.811133 0.109540
C9    C     C_R   0.894411 0.888047 0.869924 -0.156924
H4    H     H_    0.766192 0.909691 0.874757 0.121510
C10   C     C_R   0.046498 0.896185 0.899060 -0.054318
C11   C     C_R   0.922784 0.763761 0.767101 -0.142999
H5    H     H_    0.780647 0.772472 0.780169 0.101892
C12   C     C_R   0.937208 0.728931 0.730503 -0.152428
H6    H     H_    0.805764 0.713241 0.716013 0.117926
C13   C     C_R   0.118139 0.714532 0.712779 0.131106
C14   C     C_R   0.284346 0.736196 0.732729 -0.083108
H7    H     H_    0.426512 0.725206 0.720912 0.137622
C15   C     C_R   0.269865 0.772011 0.768634 -0.163563
H8    H     H_    0.401707 0.788646 0.781911 0.102580
C16   C     C_R   0.088804 0.786241 0.786694 0.086953
C17   C     C_R   0.264154 0.678785 0.641090 0.381465
C18   C     C_R   0.271507 0.641591 0.605587 -0.331405
H9    H     H_    0.373524 0.643500 0.580255 0.128348
C19   C     C_R   0.144684 0.602804 0.601753 -0.113813
C20   C     C_R   0.010117 0.600817 0.634554 0.280803
C21   C     C_R   0.007885 0.636802 0.670641 -0.274830
H10   H     H_    0.907931 0.633703 0.696051 0.136619
C22   C     C_R   0.131768 0.676256 0.674305 0.020635
C23   C     C_R   0.166667 0.658016 0.283320 0.551228
N1    N     N_R   0.121685 0.675678 0.324907 -0.545182
C24   C     C_R   0.063615 0.721689 0.337291 0.596650
C25   C     C_R   0.048799 0.751744 0.307486 -0.040118
C26   C     C_R   0.096492 0.734182 0.264819 -0.014028
C27   C     C_R   0.156190 0.686958 0.252539 -0.028160
C28   C     C_R   0.987736 0.798846 0.319297 -0.147480
C29   C     C_R   0.975061 0.828103 0.289223 -0.136125
C30   C     C_R   0.023841 0.811073 0.246584 -0.028755
C31   C     C_R   0.084929 0.763943 0.234375 -0.015425
C32   C     C_R   0.134914 0.746535 0.191806 -0.029167
C33   C     C_R   0.194698 0.699338 0.179943 -0.141878
C34   C     C_R   0.204817 0.669905 0.209903 -0.142979
C35   C     C_R   0.014111 0.840068 0.215801 0.572086
N2    N     N_R   0.064229 0.822744 0.174445 -0.559019
C36   C     C_R   0.123754 0.776847 0.162142 0.572287
O11   O     O_2   0.224045 0.612754 0.271843 -0.525283
O12   O     O_2   0.019573 0.738318 0.378283 -0.524150
H11   H     H_    0.949496 0.813294 0.351839 0.171433
H12   H     H_    0.927519 0.864170 0.299555 0.171906
O13   O     O_2   0.956938 0.885348 0.227254 -0.520937
O14   O     O_2   0.170770 0.760428 0.121274 -0.520584
H13   H     H_    0.233876 0.684946 0.147445 0.171939
H14   H     H_    0.251488 0.633772 0.199535 0.171350
C37   C     C_R   0.225573 0.867482 0.125279 -0.087345
H15   H     H_    0.364123 0.855568 0.134376 0.118040
C38   C     C_R   0.217870 0.897322 0.095520 -0.197261
H16   H     H_    0.351795 0.907673 0.082195 0.130475
C39   C     C_R   0.039666 0.913490 0.083136 -0.058881
C40   C     C_R   0.869535 0.898943 0.101418 -0.195836
H17   H     H_    0.729881 0.910701 0.092823 0.128018
C41   C     C_R   0.877678 0.869282 0.131352 -0.084480
H18   H     H_    0.745231 0.858595 0.145048 0.119910
C42   C     C_R   0.055698 0.853305 0.143517 0.380234
C43   C     C_R   0.275207 0.653372 0.388284 0.332740
C44   C     C_R   0.283065 0.623323 0.418190 -0.268430
H19   H     H_    0.390888 0.629695 0.442886 0.130448
C45   C     C_R   0.151028 0.585777 0.416772 -0.079266
C46   C     C_R   0.011196 0.578342 0.384775 -0.199321
H20   H     H_    0.908200 0.549551 0.382869 0.136753
C47   C     C_R   0.005259 0.607312 0.354374 -0.175062
H21   H     H_    0.897377 0.600621 0.329735 0.144928
C48   C     C_R   0.135032 0.645253 0.355938 0.353536
C49   C     C_R   0.526801 0.222913 0.837275 0.600270
N3    N     N_R   0.579231 0.176386 0.825779 -0.544645
C50   C     C_R   0.636948 0.158306 0.785076 0.554144
C51   C     C_R   0.644637 0.187274 0.754262 -0.029035
C52   C     C_R   0.590796 0.235032 0.765616 -0.015612
C53   C     C_R   0.530835 0.253090 0.807414 -0.035365
C54   C     C_R   0.705288 0.169695 0.712494 -0.142128
C55   C     C_R   0.712408 0.199117 0.682461 -0.140399
C56   C     C_R   0.658650 0.246845 0.693403 -0.029060
C57   C     C_R   0.597211 0.264818 0.735111 -0.015509
C58   C     C_R   0.542450 0.312521 0.746397 -0.027207
C59   C     C_R   0.481891 0.330097 0.788181 -0.139883
C60   C     C_R   0.476383 0.300772 0.818315 -0.144807
C61   C     C_R   0.664617 0.277130 0.663643 0.573455
N4    N     N_R   0.611363 0.323609 0.675057 -0.558463
C62   C     C_R   0.550688 0.341526 0.715588 0.569340
O15   O     O_2   0.470258 0.239945 0.877423 -0.528517
O16   O     O_2   0.688920 0.112549 0.774533 -0.524293
H22   H     H_    0.747790 0.133139 0.702861 0.172580
H23   H     H_    0.760197 0.184302 0.650635 0.172865
O17   O     O_2   0.721805 0.260109 0.623527 -0.520007
O18   O     O_2   0.500444 0.387393 0.726230 -0.524104
H24   H     H_    0.438904 0.366619 0.797787 0.170810
H25   H     H_    0.429260 0.315619 0.850184 0.170418
C63   C     C_R   0.452333 0.373264 0.630414 -0.084870
H26   H     H_    0.313437 0.365098 0.642981 0.120010
C64   C     C_R   0.461852 0.402807 0.600383 -0.203970
H27   H     H_    0.329067 0.417022 0.590582 0.130647
C65   C     C_R   0.640594 0.413916 0.583397 -0.060357
C66   C     C_R   0.809303 0.394667 0.597325 -0.191674
H28   H     H_    0.949451 0.402459 0.585133 0.130715
C67   C     C_R   0.799392 0.365087 0.627281 -0.088331
H29   H     H_    0.930945 0.350799 0.637614 0.121270
C68   C     C_R   0.620978 0.354143 0.644089 0.378645
C69   C     C_R   0.434598 0.109251 0.852777 -0.175179
H30   H     H_    0.335034 0.103939 0.826473 0.149086
C70   C     C_R   0.421484 0.080094 0.882990 -0.208968
H31   H     H_    0.312756 0.052432 0.879328 0.137934
C71   C     C_R   0.550125 0.085906 0.917111 -0.077492
C72   C     C_R   0.689817 0.122006 0.921001 -0.269121
H32   H     H_    0.789201 0.126999 0.947367 0.128870
C73   C     C_R   0.700544 0.152330 0.891366 0.333322
C74   C     C_R   0.572230 0.145800 0.856764 0.354091
C75   C     C_R   0.726422 0.122424 0.116704 -0.154605
H33   H     H_    0.859051 0.109367 0.100911 0.121476
C76   C     C_R   0.737847 0.158158 0.152696 -0.136787
H34   H     H_    0.878619 0.171894 0.163212 0.100315
C77   C     C_R   0.569974 0.176390 0.174423 0.095012
C78   C     C_R   0.390086 0.158069 0.158893 -0.133862
H35   H     H_    0.257891 0.170714 0.175099 0.100077
C79   C     C_R   0.378562 0.122408 0.122759 -0.153927
H36   H     H_    0.237736 0.108944 0.111978 0.118315
C80   C     C_R   0.546686 0.103978 0.101244 -0.054499
C81   C     C_R   0.445785 0.250610 0.221044 -0.146127
H37   H     H_    0.330363 0.252220 0.198850 0.113503
C82   C     C_R   0.458245 0.286077 0.257261 -0.145880
H38   H     H_    0.351964 0.313938 0.261869 0.113033
C83   C     C_R   0.608040 0.286152 0.286626 0.079683
C84   C     C_R   0.745088 0.249741 0.278695 -0.144981
H39   H     H_    0.860501 0.248128 0.300891 0.114978
C85   C     C_R   0.732627 0.214275 0.242480 -0.145091
H40   H     H_    0.838896 0.186411 0.237876 0.114270
C86   C     C_R   0.582822 0.214195 0.213116 0.079662
C87   C     C_R   0.800680 0.342249 0.340890 -0.133415
H41   H     H_    0.932892 0.329640 0.324672 0.099733
C88   C     C_R   0.812157 0.377846 0.377072 -0.155235
H42   H     H_    0.952965 0.391305 0.387872 0.117771
C89   C     C_R   0.644010 0.396212 0.398617 -0.055357
C90   C     C_R   0.464293 0.377794 0.383119 -0.151761
H43   H     H_    0.331647 0.390816 0.398925 0.121815
C91   C     C_R   0.452916 0.342123 0.347077 -0.135919
H44   H     H_    0.312162 0.328395 0.336539 0.100760
C92   C     C_R   0.620819 0.323933 0.325338 0.094821
O19   O     O_R   0.699170 0.038480 0.960880 -0.536070
O20   O     O_R   0.366800 0.052460 0.047690 -0.542211
O21   O     O_R   0.193520 0.961530 0.039110 -0.538983
C93   C     C_R   0.535710 0.065399 0.063315 0.690497
O22   O     O_R   0.369630 0.044100 0.961740 -0.538999
O23   O     O_R   0.196370 0.953120 0.952550 -0.539346
C94   C     C_R   0.539087 0.054158 0.948338 0.721508
O24   O     O_R   0.696320 0.046890 0.047450 -0.540430
O25   O     O_3   0.528890 0.970170 0.997080 -0.368892
V3    V     V_3+5 0.255190 0.005530 0.000540 1.408079
O26   O     O_R   0.866460 0.947530 0.952310 -0.540443
C95   C     C_R   0.035543 0.934672 0.936782 0.694741
O27   O     O_R   0.863630 0.955880 0.038270 -0.541076
C96   C     C_R   0.031748 0.945663 0.051780 0.707054
V4    V     V_3+5 0.754830 0.994440 0.999470 1.408265
O28   O     O_3   0.031000 0.029830 0.002920 -0.367202
N5    N     N_2   0.882297 0.561582 0.632411 -0.527401
H45   H     H_    0.886649 0.546635 0.659167 0.254850
C97   C     C_3   0.686512 0.571156 0.621346 -0.461772
H46   H     H_    0.619464 0.597649 0.646819 0.174538
H47   H     H_    0.599908 0.538040 0.617256 0.181963
H48   H     H_    0.684063 0.584632 0.591141 0.210991
N6    N     N_2   0.403855 0.692611 0.391675 -0.494563
H49   H     H_    0.447833 0.705795 0.422226 0.267300
C98   C     C_3   0.564091 0.685891 0.362233 -0.497344
H50   H     H_    0.644283 0.719720 0.364363 0.227935
H51   H     H_    0.662578 0.658720 0.370222 0.191637
H52   H     H_    0.513551 0.674899 0.329173 0.205434
N7    N     N_2   0.837507 0.189947 0.896925 -0.496197
H53   H     H_    0.868546 0.203360 0.928232 0.265129
C99   C     C_3   0.010289 0.179967 0.871582 -0.510573
H54   H     H_    0.102417 0.212129 0.875649 0.236228
H55   H     H_    0.974740 0.169563 0.837482 0.209118
H56   H     H_    0.091499 0.151161 0.882009 0.193137
O29   O     O_3   0.380191 0.718346 0.643123 -0.648482
H57   H     H_    0.464192 0.714365 0.617625 0.292570

loop_
_geom_bond_atom_site_label_1
_geom_bond_atom_site_label_2
_ccdc_geom_bond_type
O24   V4    S    
O26   C95   A    
O23   C95   A    
C71   C72   A    
C11   C12   A    
C20   C21   A    
C55   C56   A    
C1    O6    A    
C24   O12   S    
C43   C48   A    
C64   H27   S    
C50   C51   A    
C77   C78   A    
C7    C16   S    
V3    O28   S    
O27   C96   A    
C33   C34   A    
C61   N4    A    
C40   C41   A    
C5    C10   A    
C17   O29   S    
C20   N5    S    
C90   H43   S    
C6    C7    A    
C17   C18   A    
C41   C42   A    
C73   C74   A    
C70   C71   A    
C66   C67   A    
O5    C3    A    
C18   H9    S    
O19   V4    S    
C98   H51   S    
C58   C62   A    
C57   C58   A    
C65   C66   A    
C37   C38   A    
C15   H8    S    
O25   V3    S    
C23   O11   S    
C39   C96   S    
N7    C99   S    
O21   V3    S    
C75   C80   A    
C7    C8    A    
C49   C53   A    
O8    V2    S    
C25   C28   A    
C46   H20   S    
N5    C97   S    
C73   N7    S    
C5    H1    S    
C52   C57   A    
C87   H41   S    
O1    V2    S    
C88   C89   A    
N4    C68   S    
C26   C31   A    
C84   C85   A    
C97   H48   S    
C32   C36   A    
C49   N3    A    
C61   O17   S    
C67   C68   A    
C36   O14   S    
N2    C36   A    
O22   C94   A    
C56   C61   A    
C91   C92   A    
C37   C42   A    
C37   H15   S    
C21   C22   A    
N2    C42   S    
C63   C64   A    
C63   H26   S    
C49   O15   S    
C81   C86   A    
C83   C84   A    
O20   C93   A    
C47   C48   A    
C39   C40   A    
C13   C22   S    
C84   H39   S    
N4    C62   A    
C24   C25   A    
C93   O24   A    
C28   H11   S    
C9    H4    S    
C44   C45   A    
C71   C94   S    
C29   H12   S    
C51   C52   A    
C38   C39   A    
C83   C92   S    
C78   H35   S    
C98   H52   S    
O29   H57   S    
C35   N2    A    
C47   H21   S    
C59   H24   S    
O26   V4    S    
N3    C74   S    
C28   C29   A    
C14   C15   A    
O2    C1    A    
N6    H49   S    
C72   C73   A    
C77   C86   S    
C12   H6    S    
N6    C98   S    
C35   O13   S    
V4    O28   S    
O20   V3    S    
O8    C3    A    
C56   C57   A    
C32   C33   A    
C99   H55   S    
O25   V4    S    
C4    C19   S    
C3    C45   S    
N7    H53   S    
N1    C24   A    
C41   H18   S    
C67   H29   S    
C2    C89   S    
O3    C4    A    
C53   C60   A    
O19   C94   A    
O27   V4    S    
C55   H23   S    
N5    H45   S    
C85   C86   A    
C78   C79   A    
C19   C20   A    
C46   C47   A    
C45   C46   A    
O6    V2    S    
O9    V2    S    
C76   H34   S    
C26   C27   A    
C8    C9    A    
C21   H10   S    
C34   H14   S    
C69   C70   A    
C72   H32   S    
O2    V1    S    
C11   H5    S    
C29   C30   A    
O4    C2    A    
N1    C48   S    
O7    V1    S    
O22   V3    S    
C82   C83   A    
C31   C32   A    
C54   H22   S    
O1    C2    A    
C27   C34   A    
C1    C65   S    
C13   C14   A    
C50   O16   S    
C9    C10   A    
C44   H19   S    
C75   C76   A    
C75   H33   S    
O5    V1    S    
C64   C65   A    
C30   C35   A    
C30   C31   A    
C79   C80   A    
C11   C16   A    
C80   C93   S    
C33   H13   S    
C66   H28   S    
C59   C60   A    
C62   O18   S    
C87   C92   A    
C6    H2    S    
C81   C82   A    
N3    C50   A    
C99   H56   S    
C63   C68   A    
C12   C13   A    
O3    V1    S    
V1    O10   S    
C81   H37   S    
C14   H7    S    
C51   C54   A    
C18   C19   A    
C98   H50   S    
C91   H44   S    
C23   C27   A    
C17   C22   A    
C25   C26   A    
V2    O10   S    
C90   C91   A    
C52   C53   A    
C5    C6    A    
O23   V3    S    
C43   N6    S    
C15   C16   A    
C85   H40   S    
C87   C88   A    
O7    V2    S    
C54   C55   A    
C99   H54   S    
C79   H36   S    
C10   C95   S    
C43   C44   A    
C23   N1    A    
O4    V1    S    
C38   H16   S    
C40   H17   S    
C60   H25   S    
C58   C59   A    
C89   C90   A    
C76   C77   A    
C97   H46   S    
C8    H3    S    
C97   H47   S    
C69   H30   S    
O9    C4    A    
O21   C96   A    
C69   C74   A    
C82   H38   S    
C70   H31   S    
C88   H42   S    
