data_mof_unit_25035.cif
_audit_creation_date              2012-10-26T19:40:05-0400
_audit_creation_method            fapswitch 2.2
_symmetry_space_group_name_H-M    P1
_symmetry_Int_Tables_number       1
_space_group_crystal_system       triclinic
_cell_length_a                    14.985065
_cell_length_b                    8.667603
_cell_length_c                    7.448681
_cell_angle_alpha                 102.821651
_cell_angle_beta                  94.140945
_cell_angle_gamma                 92.563938
_cell_volume                      939.044924203

loop_
_atom_site_label
_atom_site_type_symbol
_atom_type_description
_atom_site_fract_x
_atom_site_fract_y
_atom_site_fract_z
_atom_type_partial_charge
C1    C     C_R   0.497275 0.199772 0.453338 0.559466
C2    C     C_R   0.180080 0.363824 0.400594 0.346253
C3    C     C_R   0.767212 0.505798 0.493869 0.018993
C4    C     C_R   0.232788 0.494206 0.506129 0.018996
C5    C     C_R   0.805678 0.376166 0.390166 -0.194678
C6    C     C_R   0.194322 0.623845 0.609816 -0.194673
C7    C     C_R   0.898330 0.372937 0.393367 -0.037090
C8    C     C_R   0.101670 0.627076 0.606610 -0.037090
C9    C     C_R   0.953148 0.502533 0.499828 -0.023719
C10   C     C_R   0.046851 0.497479 0.500151 -0.023718
C11   C     C_R   0.914163 0.636707 0.605332 0.036791
C12   C     C_R   0.502725 0.800227 0.546661 0.559462
C13   C     C_R   0.085837 0.363302 0.394651 0.036791
C14   C     C_R   0.936272 0.240857 0.291417 -0.105999
C15   C     C_R   0.063727 0.759161 0.708549 -0.105997
C16   C     C_3   0.072713 0.965161 0.263879 -0.256589
C17   C     C_3   0.927250 0.034828 0.736005 -0.256563
C18   C     C_R   0.028903 0.234076 0.289662 0.147236
C19   C     C_R   0.971097 0.765941 0.710307 0.147233
C20   C     C_2   0.495948 0.031875 0.427015 -0.135929
C21   C     C_2   0.504052 0.968125 0.572985 -0.135931
C22   C     C_R   0.329070 0.497811 0.502167 0.595123
C23   C     C_R   0.670930 0.502190 0.497833 0.595115
C24   C     C_R   0.819920 0.636177 0.599409 0.346247
Cu1   Cu    Cu3+1 0.510010 0.517380 0.684380 1.008983
Cu2   Cu    Cu3+1 0.489990 0.482620 0.315620 1.008977
F1    F     F_    0.777424 0.761986 0.689443 -0.662307
F2    F     F_    0.222576 0.238002 0.310592 -0.662295
H1    H     H_    0.763096 0.276338 0.310054 0.124985
H2    H     H_    0.093412 0.861750 0.161967 0.152574
H3    H     H_    0.008438 0.930571 0.314306 0.138179
H4    H     H_    0.124935 0.997021 0.381813 0.187287
H5    H     H_    0.889225 0.883726 0.906829 0.310255
H6    H     H_    0.906590 0.138272 0.837933 0.152578
H7    H     H_    0.874980 0.002936 0.618143 0.187313
H8    H     H_    0.991505 0.069388 0.685442 0.138173
H9    H     H_    0.236904 0.723675 0.689922 0.124986
H10   H     H_    0.893495 0.141927 0.210133 0.133339
H11   H     H_    0.106505 0.858098 0.789821 0.133351
H12   H     H_    0.488302 0.960404 0.286313 0.138022
H13   H     H_    0.511698 0.039596 0.713687 0.138022
H14   H     H_    0.430001 0.377493 0.948649 0.248330
H15   H     H_    0.569999 0.622507 0.051351 0.248330
H16   H     H_    0.110793 0.116308 0.093161 0.310273
N1    N     N_2   0.474890 0.456420 0.038520 -0.259141
N2    N     N_2   0.525110 0.543580 0.961480 -0.259140
N3    N     N_2   0.061505 0.097192 0.176579 -0.486104
N4    N     N_2   0.938495 0.902837 0.823368 -0.486091
O1    O     O_R   0.506510 0.286130 0.619770 -0.515651
O2    O     O_R   0.493490 0.713870 0.380230 -0.515651
O3    O     O_R   0.489600 0.256770 0.308360 -0.488823
O4    O     O_R   0.510400 0.743230 0.691640 -0.488822
O5    O     O_R   0.378710 0.514640 0.655720 -0.518166
O6    O     O_R   0.621290 0.485360 0.344280 -0.518172
O7    O     O_R   0.361800 0.485290 0.344300 -0.461667
O8    O     O_R   0.638200 0.514710 0.655700 -0.461657

loop_
_geom_bond_atom_site_label_1
_geom_bond_atom_site_label_2
_ccdc_geom_bond_type
C2    C4    A    
C17   N4    S    
C22   O7    A    
C17   H8    S    
C22   O5    A    
H16   N3    S    
C9    C11   A    
C9    C10   A    
C14   C18   A    
C3    C23   S    
Cu1   O8    S    
C24   F1    S    
C11   C19   A    
C18   N3    S    
Cu1   O4    S    
C23   O8    A    
Cu2   O3    S    
Cu2   O7    S    
C16   H3    S    
C15   C19   A    
C1    O3    A    
C15   H11   S    
C3    C24   A    
C13   C18   A    
C21   H13   S    
Cu2   O6    S    
C16   N3    S    
C4    C6    A    
C12   O4    A    
Cu1   O5    S    
H5    N4    S    
C8    C15   A    
C5    H1    S    
Cu2   O2    S    
C20   H12   S    
H15   N2    S    
Cu1   O1    S    
C6    H9    S    
C16   H4    S    
C17   H6    S    
C16   H2    S    
C14   H10   S    
C12   C21   S    
C7    C9    A    
C11   C24   A    
C4    C22   S    
C20   C21   D    
C23   O6    A    
C8    C10   A    
C5    C7    A    
C2    C13   A    
C2    F2    S    
C19   N4    S    
C1    C20   S    
C6    C8    A    
C17   H7    S    
Cu2   N1    S    
Cu1   Cu2   S    
N1    N2    D    
C1    O1    A    
Cu1   N2    S    
C10   C13   A    
C7    C14   A    
C12   O2    A    
C3    C5    A    
H14   N1    S    
