data_mof_unit_45508.cif
_audit_creation_date              2012-12-10T20:44:43-0500
_audit_creation_method            fapswitch 2.2
_symmetry_space_group_name_H-M    P1
_symmetry_Int_Tables_number       1
_space_group_crystal_system       triclinic
_cell_length_a                    9.860033
_cell_length_b                    10.661086
_cell_length_c                    16.723973
_cell_angle_alpha                 89.48386
_cell_angle_beta                  94.091587
_cell_angle_gamma                 89.897707
_cell_volume                      1753.44461266

loop_
_atom_site_label
_atom_site_type_symbol
_atom_type_description
_atom_site_fract_x
_atom_site_fract_y
_atom_site_fract_z
_atom_type_partial_charge
C1    C     C_R   0.499838 0.260374 0.499676 0.923590
C2    C     C_R   0.652141 0.479771 0.783939 -0.217412
C3    C     C_R   0.589986 0.481018 0.137543 -0.161016
C4    C     C_R   0.595318 0.492781 0.219814 -0.205302
C5    C     C_R   0.463562 0.474185 0.093369 0.324730
C6    C     C_R   0.474722 0.498384 0.259215 -0.028240
C7    C     C_R   0.348410 0.496440 0.214940 -0.218349
C8    C     C_R   0.343256 0.485389 0.131992 -0.178415
C9    C     C_R   0.565726 0.062820 0.443758 0.045359
C10   C     C_R   0.496546 0.128675 0.499331 -0.190629
C11   C     C_R   0.411970 0.066664 0.550393 -0.216496
C12   C     C_R   0.517403 0.493884 0.653510 0.873974
C13   C     C_R   0.414414 0.937059 0.555160 0.443498
C14   C     C_R   0.498268 0.871409 0.504264 -0.305923
C15   C     C_R   0.565807 0.934811 0.445968 0.147475
C16   C     C_3   0.710755 0.927104 0.425701 0.250262
C17   C     C_3   0.710286 0.069680 0.422757 -0.513005
C18   C     C_R   0.079056 0.453513 0.564359 0.231412
C19   C     C_R   0.064599 0.556360 0.439873 -0.120425
C20   C     C_R   0.920583 0.556340 0.439847 -0.136559
C21   C     C_R   0.936525 0.454286 0.564575 0.217476
C22   C     C_3   0.933974 0.324217 0.597569 -0.495082
C23   C     C_R   0.500088 0.739484 0.502614 0.902681
C24   C     C_3   0.087725 0.322402 0.596247 -0.508367
C25   C     C_R   0.482862 0.501989 0.346301 0.889547
C26   C     C_R   0.527962 0.465708 0.738872 -0.121365
C27   C     C_R   0.416465 0.412540 0.773970 -0.210133
C28   C     C_R   0.426359 0.377185 0.854131 0.469466
C29   C     C_R   0.548371 0.402882 0.900942 0.189298
C30   C     C_R   0.661909 0.448574 0.864834 -0.215669
H1    H     H_    0.694176 0.495847 0.252450 0.162965
H2    H     H_    0.780181 0.884547 0.474067 0.113480
H3    H     H_    0.778515 0.111492 0.470863 0.172701
H4    H     H_    0.719553 0.110068 0.361856 0.227170
H5    H     H_    0.112842 0.599906 0.390630 0.148017
H6    H     H_    0.860289 0.599917 0.390596 0.162608
H7    H     H_    0.898306 0.321655 0.659139 0.210608
H8    H     H_    0.882533 0.257301 0.555172 0.212946
H9    H     H_    0.140107 0.316613 0.657109 0.207855
H10   H     H_    0.684556 0.477253 0.108424 0.151184
H11   H     H_    0.125110 0.255082 0.552371 0.220901
H12   H     H_    0.755566 0.467134 0.900596 0.167289
H13   H     H_    0.740362 0.517720 0.757208 0.175211
H14   H     H_    0.254172 0.501908 0.244292 0.159347
H15   H     H_    0.245718 0.482926 0.097878 0.151696
H16   H     H_    0.321962 0.395869 0.738866 0.172628
H17   H     H_    0.352214 0.118881 0.590821 0.176113
N1    N     N_2   0.553390 0.403501 0.984942 -0.207650
N2    N     N_2   0.455215 0.461768 0.009579 -0.172268
N3    N     N_R   0.142860 0.499130 0.500540 -0.106422
N4    N     N_R   0.857210 0.499170 0.500530 -0.109691
O1    O     O_R   0.614690 0.316790 0.499990 -0.618554
O2    O     O_R   0.385350 0.316760 0.500000 -0.624301
O3    O     O_R   0.627460 0.498860 0.616130 -0.619239
O4    O     O_R   0.398120 0.498820 0.616130 -0.625273
O5    O     O_R   0.614650 0.683240 0.500000 -0.609167
O6    O     O_R   0.385310 0.683210 0.500010 -0.599429
O7    O     O_R   0.601880 0.501180 0.383870 -0.617947
O8    O     O_R   0.372540 0.501140 0.383870 -0.626390
Zn1   Zn    Zn3+2 0.653130 0.500020 0.499990 0.954655
Zn2   Zn    Zn3+2 0.346870 0.499980 0.500010 0.957816
O9    O     O_3   0.341329 0.880321 0.612933 -0.747773
H18   H     H_    0.380010 0.796331 0.626061 0.336681
O10   O     O_3   0.720888 0.873899 0.350089 -0.736647
H19   H     H_    0.819430 0.871796 0.341639 0.331040
O11   O     O_3   0.315139 0.320776 0.884839 -0.765237
H20   H     H_    0.344787 0.278510 0.936145 0.346694

loop_
_geom_bond_atom_site_label_1
_geom_bond_atom_site_label_2
_ccdc_geom_bond_type
C14   C23   S    
C5    C8    A    
C28   O11   S    
O6    Zn2   S    
O9    H18   S    
C16   H2    S    
C18   C21   A    
C25   O8    A    
C9    C10   A    
C11   H17   S    
C19   C20   A    
C14   C15   A    
C21   N4    A    
C2    H13   S    
C2    C30   A    
O10   H19   S    
O11   H20   S    
C9    C15   A    
C7    C8    A    
C2    C26   A    
O3    Zn1   S    
C13   C14   A    
C24   H11   S    
C11   C13   A    
C19   N3    A    
C5    N2    S    
C26   C27   A    
C29   C30   A    
C17   H3    S    
O1    Zn1   S    
C18   C24   S    
C15   C16   S    
O4    Zn2   S    
C27   H16   S    
C9    C17   S    
N1    N2    D    
C3    H10   S    
C6    C7    A    
C30   H12   S    
C8    H15   S    
C6    C25   S    
C1    O1    A    
C22   C24   S    
O8    Zn2   S    
C4    H1    S    
C17   H4    S    
C1    C10   S    
C29   N1    S    
O7    Zn1   S    
C3    C4    A    
C12   O4    A    
C23   O5    A    
C24   H9    S    
C18   N3    A    
C4    C6    A    
C25   O7    A    
C10   C11   A    
C27   C28   A    
C23   O6    A    
N3    Zn2   S    
C1    O2    A    
C20   N4    A    
C28   C29   A    
C19   H5    S    
N4    Zn1   S    
C16   O10   S    
C7    H14   S    
C21   C22   S    
C22   H7    S    
O2    Zn2   S    
C12   O3    A    
C13   O9    S    
O5    Zn1   S    
C12   C26   S    
C16   C17   S    
C3    C5    A    
C22   H8    S    
C20   H6    S    
