data_mof_unit_49135.cif
_audit_creation_date              2012-12-10T18:50:47-0500
_audit_creation_method            fapswitch 2.2
_symmetry_space_group_name_H-M    P1
_symmetry_Int_Tables_number       1
_space_group_crystal_system       triclinic
_cell_length_a                    10.711313
_cell_length_b                    9.947311
_cell_length_c                    15.733469
_cell_angle_alpha                 89.912826
_cell_angle_beta                  90.089571
_cell_angle_gamma                 89.310561
_cell_volume                      1676.25623863

loop_
_atom_site_label
_atom_site_type_symbol
_atom_type_description
_atom_site_fract_x
_atom_site_fract_y
_atom_site_fract_z
_atom_type_partial_charge
C1    C     C_R   0.260016 0.500495 0.499963 0.995480
C2    C     C_R   0.932303 0.593775 0.549935 -0.206667
C3    C     C_R   0.870984 0.498974 0.501375 -0.160519
C4    C     C_R   0.126737 0.500848 0.500050 -0.308652
C5    C     C_R   0.497360 0.071388 0.574562 -0.114524
C6    C     C_R   0.505787 0.928193 0.574494 -0.090035
C7    C     C_R   0.499515 0.500278 0.338565 0.960375
C8    C     C_R   0.483501 0.931340 0.426636 0.384834
C9    C     C_R   0.511823 0.069132 0.426261 0.390511
C10   C     C_R   0.739229 0.499480 0.500597 0.905730
C11   C     C_R   0.502040 0.499803 0.661340 0.892667
C12   C     C_3   0.601821 0.588589 0.952317 -0.342043
C13   C     C_3   0.357951 0.529697 0.045672 0.118957
C14   C     C_3   0.536576 0.355963 0.051035 0.168886
C15   C     C_3   0.512567 0.350857 0.952289 0.119892
C16   C     C_3   0.367338 0.557146 0.947240 0.189063
C17   C     C_1   0.502299 0.499323 0.749941 -0.002739
C18   C     C_3   0.492614 0.498936 0.082883 -0.107563
C19   C     C_3   0.496655 0.498801 0.916583 -0.091841
C20   C     C_3   0.585671 0.604835 0.049249 -0.323250
C21   C     C_1   0.500667 0.499006 0.825155 0.150603
C22   C     C_1   0.491810 0.501095 0.174517 0.147504
C23   C     C_1   0.494839 0.501191 0.249815 0.080747
C24   C     C_R   0.062439 0.405495 0.449573 0.397309
C25   C     C_R   0.060788 0.594238 0.551994 0.334840
C26   C     C_R   0.934379 0.404783 0.452838 -0.195740
H1    H     H_    0.292444 0.497846 0.916159 0.093670
H2    H     H_    0.879101 0.664542 0.588157 0.204609
H3    H     H_    0.494627 0.124211 0.634497 0.211920
H4    H     H_    0.511093 0.875044 0.634387 0.200153
H5    H     H_    0.226886 0.761911 0.318943 0.420377
H6    H     H_    0.509171 0.122875 0.213432 0.412016
H7    H     H_    0.789140 0.123387 0.120745 0.422326
H8    H     H_    0.163063 0.495037 0.181959 0.384279
H9    H     H_    0.550882 0.056974 0.953011 0.376425
H10   H     H_    0.373255 0.851380 0.799996 0.405591
H11   H     H_    0.270823 0.294629 0.279728 0.405510
H12   H     H_    0.419459 0.303472 0.945001 0.062154
H13   H     H_    0.196633 0.551411 0.711703 0.348556
H14   H     H_    0.305765 0.433987 0.051684 0.053378
H15   H     H_    0.474586 0.279950 0.080580 0.095697
H16   H     H_    0.550948 0.707615 0.064269 0.260734
H17   H     H_    0.678278 0.594976 0.080770 0.243359
H18   H     H_    0.601407 0.689383 0.921697 0.246204
H19   H     H_    0.694397 0.542776 0.938073 0.252501
H20   H     H_    0.883353 0.332814 0.415680 0.244317
N1    N     N_R   0.499970 0.857200 0.499980 -0.155309
N2    N     N_R   0.499970 0.142800 0.499980 -0.152525
O1    O     O_R   0.316750 0.614620 0.499990 -0.511269
O2    O     O_2   0.482462 0.818887 0.271269 -0.247588
O3    O     O_3   0.289950 0.759760 0.365014 -0.490631
O4    O     O_2   0.692923 0.227706 0.362192 -0.255852
O5    O     O_2   0.671199 0.006466 0.300864 -0.259645
O6    O     O_3   0.504347 0.187061 0.261387 -0.530178
O7    O     O_2   0.792583 0.357456 0.027581 -0.214252
O8    O     O_2   0.720496 0.367108 0.173698 -0.273570
O9    O     O_3   0.704960 0.140945 0.096734 -0.457553
O10   O     O_2   0.326347 0.770992 0.128163 -0.153180
O11   O     O_2   0.140980 0.676343 0.060460 -0.188752
O12   O     O_R   0.316750 0.385380 0.499990 -0.574456
O13   O     O_3   0.220513 0.567640 0.198797 -0.540308
O14   O     O_2   0.543515 0.206442 0.807743 -0.332105
O15   O     O_2   0.732738 0.300703 0.868149 -0.194706
O16   O     O_3   0.635255 0.091094 0.940100 -0.411879
O17   O     O_2   0.200346 0.755959 0.905740 -0.164521
O18   O     O_2   0.394887 0.830562 0.971597 -0.264875
O19   O     O_3   0.399196 0.758364 0.814906 -0.543940
O20   O     O_2   0.188951 0.172681 0.432203 -0.227558
O21   O     O_2   0.040777 0.230695 0.319166 -0.235520
O22   O     O_3   0.248772 0.359872 0.324916 -0.557840
O23   O     O_R   0.499990 0.614720 0.377140 -0.568330
O24   O     O_2   0.191994 0.819281 0.577310 -0.200411
O25   O     O_2   0.037756 0.764341 0.685532 -0.246922
O26   O     O_3   0.242082 0.623218 0.681500 -0.534229
O27   O     O_R   0.499990 0.385280 0.377140 -0.531087
O28   O     O_R   0.683220 0.614710 0.500000 -0.629614
O29   O     O_R   0.683220 0.385290 0.500000 -0.589884
O30   O     O_R   0.499980 0.614620 0.622860 -0.591188
O31   O     O_R   0.499980 0.385380 0.622860 -0.630068
O32   O     O_2   0.325997 0.992714 0.299880 -0.244219
S1    S     S_3+6 0.395817 0.874942 0.337688 0.137954
S2    S     S_3+6 0.599665 0.124098 0.337122 0.121822
S3    S     S_3+6 0.693936 0.309028 0.087536 0.109737
S4    S     S_3+6 0.259730 0.643320 0.107292 0.119126
S5    S     S_3+6 0.609980 0.237596 0.889469 0.106052
S6    S     S_3+6 0.338626 0.730602 0.911805 0.101065
S7    S     S_3+6 0.134778 0.286413 0.380455 0.091403
S8    S     S_3+6 0.132418 0.705946 0.625058 0.085095
Zn1   Zn    Zn3+2 0.499980 0.653120 0.500000 1.098800
Zn2   Zn    Zn3+2 0.499980 0.346880 0.500000 1.095306

loop_
_geom_bond_atom_site_label_1
_geom_bond_atom_site_label_2
_ccdc_geom_bond_type
C14   C18   S    
C4    C25   A    
H10   O19   S    
O17   S6    D    
C15   H12   S    
C15   C19   S    
C13   S4    S    
C13   C18   S    
C19   C21   S    
C24   C26   A    
C7    O23   A    
C5    C6    A    
C4    C24   A    
H13   O26   S    
O31   Zn2   S    
O27   Zn2   S    
C10   O28   A    
C8    C9    A    
C13   H14   S    
O23   Zn1   S    
O9    S3    S    
H9    O16   S    
O3    S1    S    
O21   S7    D    
O28   Zn1   S    
C15   S5    S    
C16   H1    S    
N2    Zn2   S    
H11   O22   S    
O15   S5    D    
C16   S6    S    
N1    Zn1   S    
C14   S3    S    
O22   S7    S    
H6    O6    S    
O24   S8    D    
C10   O29   A    
C5    H3    S    
O30   Zn1   S    
C5    N2    A    
O29   Zn2   S    
C6    N1    A    
C8    S1    S    
O11   S4    D    
C1    O12   A    
O1    Zn1   S    
O32   S1    D    
C7    O27   A    
C25   S8    S    
C17   C21   T    
O5    S2    D    
O25   S8    D    
C11   O30   A    
O10   S4    D    
C14   C15   S    
C12   C20   S    
O4    S2    D    
C11   O31   A    
C14   H15   S    
C6    H4    S    
O7    S3    D    
O16   S5    S    
O6    S2    S    
C20   H17   S    
O8    S3    D    
C11   C17   S    
O19   S6    S    
H7    O9    S    
C18   C22   S    
C3    C26   A    
H5    O3    S    
C12   H19   S    
O13   S4    S    
O18   S6    D    
C20   H16   S    
O12   Zn2   S    
C9    S2    S    
C1    C4    S    
C2    C3    A    
C8    N1    A    
C12   H18   S    
C3    C10   S    
C16   C19   S    
C7    C23   S    
C12   C19   S    
C2    C25   A    
C18   C20   S    
H8    O13   S    
C24   S7    S    
C26   H20   S    
O14   S5    D    
C9    N2    A    
C13   C16   S    
O20   S7    D    
C22   C23   T    
C2    H2    S    
O26   S8    S    
C1    O1    A    
O2    S1    D    
