data_mof_unit_55897.cif
_audit_creation_date              2012-12-10T16:45:21-0500
_audit_creation_method            fapswitch 2.2
_symmetry_space_group_name_H-M    P1
_symmetry_Int_Tables_number       1
_space_group_crystal_system       triclinic
_cell_length_a                    7.502648
_cell_length_b                    8.686835
_cell_length_c                    15.637414
_cell_angle_alpha                 94.336739
_cell_angle_beta                  75.244932
_cell_angle_gamma                 103.24934
_cell_volume                      959.154178674

loop_
_atom_site_label
_atom_site_type_symbol
_atom_type_description
_atom_site_fract_x
_atom_site_fract_y
_atom_site_fract_z
_atom_type_partial_charge
C1    C     C_R   0.544996 0.799930 0.502654 0.898829
C2    C     C_R   0.454996 0.200058 0.497343 0.870660
C3    C     C_R   0.309949 0.426797 0.084253 -0.260056
C4    C     C_R   0.737743 0.605669 0.916149 -0.161376
C5    C     C_R   0.189023 0.358043 0.030915 -0.188288
C6    C     C_R   0.870635 0.632827 0.966666 -0.237448
C7    C     C_2   0.569932 0.968072 0.503989 -0.361466
C8    C     C_2   0.430069 0.031884 0.495956 -0.357148
C9    C     C_R   0.385139 0.489719 0.666524 0.832872
C10   C     C_R   0.615656 0.516651 0.333643 0.823341
C11   C     C_R   0.318018 0.474144 0.762922 -0.141504
C12   C     C_R   0.685394 0.545211 0.238044 -0.109054
C13   C     C_R   0.104915 0.334060 0.890107 -0.195360
C14   C     C_R   0.941663 0.608923 0.107408 -0.191874
C15   C     C_R   0.149669 0.368482 0.800503 -0.287681
C16   C     C_R   0.875118 0.555995 0.194553 -0.274206
C17   C     C_R   0.437306 0.552115 0.816511 0.420248
C18   C     C_R   0.566216 0.589852 0.193189 0.393251
C19   C     C_R   0.406575 0.502368 0.904266 -0.031211
C20   C     C_R   0.618145 0.580123 0.099962 0.025914
C21   C     C_R   0.232779 0.398130 0.941966 0.086804
C22   C     C_R   0.811963 0.612792 0.057881 0.129054
C23   C     C_R   0.542947 0.550510 0.955404 0.084204
C24   C     C_R   0.486209 0.525887 0.048080 0.033770
Cu1   Cu    Cu3+1 0.322120 0.483240 0.490330 0.947471
Cu2   Cu    Cu3+1 0.677880 0.516760 0.509670 0.965266
H1    H     H_    0.057241 0.277881 0.060290 0.156631
H2    H     H_    0.019639 0.661214 0.933734 0.151877
H3    H     H_    0.969846 0.528385 0.229183 0.152795
H4    H     H_    0.055441 0.309479 0.760137 0.177138
H5    H     H_    0.972902 0.253146 0.918287 0.156968
H6    H     H_    0.090942 0.633563 0.076376 0.158498
H7    H     H_    0.269486 0.393734 0.152977 0.139868
H8    H     H_    0.793768 0.610679 0.845489 0.205305
N1    N     N_2   0.945180 0.542040 0.524240 -0.215524
N2    N     N_2   0.054820 0.457960 0.475760 -0.228399
O1    O     O_R   0.384450 0.714270 0.493720 -0.578853
O2    O     O_R   0.615550 0.285730 0.506280 -0.585321
O3    O     O_R   0.684880 0.742590 0.510050 -0.579553
O4    O     O_R   0.315120 0.257410 0.489950 -0.585974
O5    O     O_R   0.265540 0.477900 0.617090 -0.597306
O6    O     O_R   0.734460 0.522100 0.382910 -0.597234
O7    O     O_R   0.565970 0.506210 0.633420 -0.535024
O8    O     O_R   0.434030 0.493790 0.366580 -0.575035
O9    O     O_3   0.496869 0.720251 0.231498 -0.570557
C25   C     C_3   0.300812 0.690332 0.244878 -0.274738
H9    H     H_    0.265024 0.701375 0.181584 0.164511
H10   H     H_    0.247279 0.782366 0.290849 0.195047
H11   H     H_    0.231138 0.574200 0.276391 0.156826
O10   O     O_3   0.579973 0.679892 0.782549 -0.592134
C26   C     C_3   0.509842 0.818768 0.804898 -0.336768
H12   H     H_    0.467428 0.836728 0.877911 0.165580
H13   H     H_    0.389283 0.817160 0.775249 0.153499
H14   H     H_    0.623783 0.921485 0.777689 0.194902
H15   H     H_    0.704508 0.039671 0.511615 0.176984
H16   H     H_    0.295512 0.960271 0.488300 0.178181
H17   H     H_    0.003152 0.616243 0.569265 0.233627
H18   H     H_    0.996947 0.383938 0.430642 0.219168

loop_
_geom_bond_atom_site_label_1
_geom_bond_atom_site_label_2
_ccdc_geom_bond_type
C17   O10   S    
C19   C23   A    
C23   C24   A    
C18   O9    S    
C19   C21   A    
C14   C16   A    
C6    H2    S    
C10   O6    A    
C2    O2    A    
C9    O5    A    
N1    N2    D    
C7    H15   S    
N1    H17   S    
C26   H14   S    
C8    H16   S    
O10   C26   S    
Cu1   Cu2   S    
C13   C21   A    
C7    C8    D    
Cu1   O5    S    
O9    C25   S    
C9    C11   S    
C25   H11   S    
C14   C22   A    
C3    C24   A    
C10   C12   S    
C15   H4    S    
C1    C7    S    
Cu1   O8    S    
C17   C19   A    
C20   C22   A    
Cu2   O7    S    
N2    H18   S    
C13   C15   A    
Cu1   O4    S    
C20   C24   A    
C4    H8    S    
Cu2   O3    S    
C9    O7    A    
C1    O3    A    
Cu1   N2    S    
C10   O8    A    
C26   H12   S    
C6    C22   A    
C25   H10   S    
C2    O4    A    
Cu2   N1    S    
C5    C21   A    
C26   H13   S    
Cu2   O6    S    
C18   C20   A    
C4    C6    A    
C12   C18   A    
C4    C23   A    
C3    H7    S    
C25   H9    S    
Cu2   O2    S    
C2    C8    S    
Cu1   O1    S    
C16   H3    S    
C5    H1    S    
C11   C15   A    
C13   H5    S    
C11   C17   A    
C12   C16   A    
C14   H6    S    
C1    O1    A    
C3    C5    A    
