data_mof_unit_6447.cif
_audit_creation_date              2012-12-10T17:49:40-0500
_audit_creation_method            fapswitch 2.2
_symmetry_space_group_name_H-M    P1
_symmetry_Int_Tables_number       1
_space_group_crystal_system       triclinic
_cell_length_a                    14.722461
_cell_length_b                    14.809212
_cell_length_c                    15.875911
_cell_angle_alpha                 76.458235
_cell_angle_beta                  102.98546
_cell_angle_gamma                 115.001194
_cell_volume                      3018.62972615

loop_
_atom_site_label
_atom_site_type_symbol
_atom_type_description
_atom_site_fract_x
_atom_site_fract_y
_atom_site_fract_z
_atom_type_partial_charge
C1    C     C_R   0.880278 0.312536 0.513863 0.788757
C2    C     C_3   0.094447 0.491905 0.070809 -0.478097
C3    C     C_3   0.994932 0.497112 0.082527 0.168720
C4    C     C_3   0.989706 0.595914 0.025847 -0.321917
C5    C     C_3   0.986384 0.594390 0.927949 -0.364924
C6    C     C_1   0.997580 0.498208 0.175041 -0.019600
C7    C     C_1   0.998447 0.499148 0.824868 -0.076655
C8    C     C_1   0.999321 0.499650 0.749359 -0.159427
C9    C     C_R   0.812540 0.205580 0.517315 -0.044810
C10   C     C_R   0.188232 0.795154 0.478870 -0.106549
C11   C     C_R   0.783879 0.029643 0.531445 -0.184437
C12   C     C_R   0.999901 0.499975 0.659695 0.811592
C13   C     C_R   0.850394 0.130065 0.531929 -0.187867
C14   C     C_R   0.707897 0.179687 0.502322 -0.230925
C15   C     C_R   0.639497 0.079757 0.497944 0.091101
C16   C     C_R   0.678912 0.003864 0.515020 0.160950
C17   C     C_R   0.533101 0.053128 0.478389 0.066014
C18   C     C_R   0.467424 0.949616 0.489347 0.061336
C19   C     C_R   0.509232 0.876552 0.501819 -0.194665
C20   C     C_R   0.613179 0.903310 0.514352 -0.220388
C21   C     C_R   0.490301 0.126009 0.444378 -0.204731
C22   C     C_R   0.386224 0.097635 0.423277 -0.203405
C23   C     C_R   0.119859 0.687519 0.488000 0.821526
C24   C     C_R   0.321157 0.996801 0.440647 0.147943
C25   C     C_R   0.361035 0.922439 0.480188 0.043115
C26   C     C_R   0.216397 0.969589 0.419164 -0.202033
C27   C     C_R   0.150748 0.868983 0.434978 -0.164210
C28   C     C_R   0.292677 0.824387 0.509955 -0.102995
C29   C     C_R   0.718212 0.677206 0.369097 -0.352884
C30   C     C_R   0.790555 0.637679 0.375774 0.596819
C31   C     C_R   0.719933 0.513799 0.495431 -0.070301
C32   C     C_R   0.636605 0.543678 0.482274 -0.012310
C33   C     C_R   0.641312 0.630670 0.420517 0.084114
C34   C     C_R   0.999991 0.499880 0.340352 0.852807
C35   C     C_R   0.548600 0.490916 0.526066 0.095323
C36   C     C_R   0.467992 0.526683 0.505150 0.081396
C37   C     C_R   0.481453 0.618001 0.447560 -0.227865
C38   C     C_R   0.566397 0.668706 0.406257 -0.172291
C39   C     C_R   0.536695 0.402454 0.587724 -0.226193
C40   C     C_R   0.449072 0.350254 0.626891 -0.181220
C41   C     C_R   0.368852 0.382381 0.604402 0.156987
C42   C     C_R   0.376277 0.470080 0.542329 -0.020057
C43   C     C_R   0.280312 0.326658 0.642732 -0.306675
C44   C     C_R   0.199088 0.356777 0.618122 0.085858
C45   C     C_3   0.096282 0.494100 0.973179 -0.368784
C46   C     C_R   0.289809 0.495541 0.518621 0.031791
C47   C     C_3   0.906562 0.404630 0.951092 -0.402474
C48   C     C_3   0.904299 0.403158 0.049032 0.326390
C49   C     C_1   0.999422 0.499130 0.250766 -0.094564
C50   C     C_3   0.997037 0.498148 0.916990 0.231119
Cu1   Cu    Cu3+1 0.081750 0.475690 0.522550 0.953210
Cu2   Cu    Cu3+1 0.918250 0.524310 0.477450 1.015474
H1    H     H_    0.101367 0.421650 0.110134 0.175695
H2    H     H_    0.162441 0.561124 0.950270 0.187417
H3    H     H_    0.161208 0.556576 0.095180 0.194534
H4    H     H_    0.922941 0.607119 0.035268 0.243814
H5    H     H_    0.642168 0.844847 0.524109 0.155744
H6    H     H_    0.070493 0.849362 0.413694 0.204382
H7    H     H_    0.356449 0.155270 0.394007 0.149487
H8    H     H_    0.814479 0.972115 0.543487 0.138102
H9    H     H_    0.931160 0.148532 0.543527 0.154457
H10   H     H_    0.681103 0.238585 0.496249 0.149329
H11   H     H_    0.105878 0.425807 0.965892 0.176727
H12   H     H_    0.462176 0.798250 0.498001 0.151607
H13   H     H_    0.535476 0.205268 0.428096 0.154379
H14   H     H_    0.185398 0.025780 0.387595 0.146021
H15   H     H_    0.571972 0.737226 0.360405 0.152378
H16   H     H_    0.287057 0.558123 0.469057 0.122439
H17   H     H_    0.130786 0.313562 0.647756 0.127309
H18   H     H_    0.443250 0.282738 0.674154 0.151065
H19   H     H_    0.716639 0.740309 0.318729 0.196287
H20   H     H_    0.726038 0.453351 0.546339 0.144420
H21   H     H_    0.835009 0.405238 0.909490 0.220145
H22   H     H_    0.427138 0.652412 0.432198 0.126604
H23   H     H_    0.593989 0.371438 0.606812 0.136373
H24   H     H_    0.273612 0.259742 0.690985 0.143597
H25   H     H_    0.913097 0.334529 0.944353 0.142904
H26   H     H_    0.914771 0.334204 0.087657 0.081327
H27   H     H_    0.048625 0.662941 0.901060 0.166844
H28   H     H_    0.913657 0.596900 0.890482 0.202874
H29   H     H_    0.057512 0.661777 0.046930 0.157355
N1    N     N_R   0.795410 0.560790 0.443550 -0.231652
N2    N     N_R   0.204590 0.439170 0.556520 -0.178908
O1    O     O_R   0.977910 0.338120 0.529720 -0.598888
O2    O     O_R   0.839850 0.379180 0.491640 -0.589265
O3    O     O_R   0.069060 0.479460 0.639610 -0.571848
O4    O     O_R   0.931000 0.520530 0.601530 -0.590987
O5    O     O_R   0.160150 0.620820 0.508360 -0.588913
O6    O     O_R   0.022090 0.661880 0.470280 -0.541987
O7    O     O_R   0.069000 0.479470 0.398470 -0.602894
O8    O     O_R   0.930940 0.520540 0.360390 -0.477152
C51   C     C_1   0.325891 0.761112 0.584013 0.246069
N3    N     N_1   0.352135 0.710706 0.643142 -0.264500
S1    S     S_3+6 0.854538 0.676667 0.282170 0.020890
O9    O     O_2   0.815430 0.589119 0.233098 -0.244795
O10   O     O_2   0.830982 0.761326 0.222021 -0.313329
O11   O     O_3   0.980960 0.717615 0.306184 -0.553901
H30   H     H_    0.005158 0.727664 0.249970 0.355735
S2    S     S_3+6 0.780795 0.389846 0.063934 -0.001307
O12   O     O_2   0.704679 0.289357 0.041316 -0.282710
O13   O     O_2   0.779253 0.393538 0.157365 -0.252175
O14   O     O_3   0.748340 0.481363 0.997543 -0.549742
H31   H     H_    0.680418 0.468011 0.009947 0.389550

loop_
_geom_bond_atom_site_label_1
_geom_bond_atom_site_label_2
_ccdc_geom_bond_type
C10   C27   A    
C37   H22   S    
C41   C42   A    
C36   C42   A    
C19   C20   A    
C9    C14   A    
C3    C6    S    
O11   H30   S    
C7    C8    T    
C25   C28   A    
C26   C27   A    
C29   C30   A    
C31   N1    A    
C40   H18   S    
Cu2   O2    S    
C24   C26   A    
C2    H3    S    
Cu1   O7    S    
C15   C16   A    
C14   H10   S    
C29   C33   A    
C3    C48   S    
C18   C19   A    
C42   C46   A    
C48   H26   S    
C9    C13   A    
C34   O8    A    
C4    H29   S    
C31   C32   A    
C23   O6    A    
C39   H23   S    
C5    H27   S    
C16   C20   A    
S1    O10   D    
C44   N2    A    
C21   C22   A    
C4    H4    S    
C41   C43   A    
Cu2   O6    S    
O14   H31   S    
C18   C25   A    
Cu1   O3    S    
C47   C50   S    
C2    C45   S    
C1    O2    A    
Cu1   Cu2   S    
C26   H14   S    
C32   C35   A    
C1    C9    S    
C24   C25   A    
C47   H21   S    
C39   C40   A    
S1    O11   S    
C45   H11   S    
C17   C21   A    
C1    O1    A    
C35   C36   A    
C30   N1    A    
C35   C39   A    
C43   C44   A    
C34   O7    A    
C46   H16   S    
C37   C38   A    
C11   C16   A    
C47   C48   S    
C19   H12   S    
C8    C12   S    
C17   C18   A    
C44   H17   S    
C28   C51   S    
C5    H28   S    
Cu2   N1    S    
C31   H20   S    
S2    O13   D    
C45   H2    S    
C23   O5    A    
C22   C24   A    
C5    C50   S    
C47   H25   S    
C3    C4    S    
Cu1   N2    S    
C22   H7    S    
C10   C28   A    
C43   H24   S    
C15   C17   A    
C48   S2    S    
C40   C41   A    
C34   C49   S    
C12   O4    A    
C21   H13   S    
Cu2   O4    S    
C7    C50   S    
C4    C5    S    
C2    H1    S    
Cu1   O5    S    
C10   C23   S    
C33   C38   A    
S2    O12   D    
C12   O3    A    
C32   C33   A    
C2    C3    S    
C30   S1    S    
C11   C13   A    
C45   C50   S    
C27   H6    S    
C51   N3    T    
C6    C49   T    
S1    O9    D    
C46   N2    A    
S2    O14   S    
C13   H9    S    
C38   H15   S    
C36   C37   A    
C14   C15   A    
Cu2   O8    S    
C20   H5    S    
Cu1   O1    S    
C11   H8    S    
C29   H19   S    
