data_mof_unit_46226.cif
_audit_creation_date              2012-12-11T15:23:49-0500
_audit_creation_method            fapswitch 2.2
_symmetry_space_group_name_H-M    P1
_symmetry_Int_Tables_number       1
_space_group_crystal_system       triclinic
_cell_length_a                    17.242362
_cell_length_b                    24.268327
_cell_length_c                    14.903512
_cell_angle_alpha                 90.016807
_cell_angle_beta                  125.405374
_cell_angle_gamma                 89.974987
_cell_volume                      5083.02128379

loop_
_atom_site_label
_atom_site_type_symbol
_atom_type_description
_atom_site_fract_x
_atom_site_fract_y
_atom_site_fract_z
_atom_type_partial_charge
C1    C     C_R   0.353580 0.347052 0.909975 -0.141276
C2    C     C_R   0.434299 0.499551 0.632355 0.049605
C3    C     C_R   0.948478 0.999425 0.274370 0.040187
C4    C     C_R   0.934326 0.999553 0.632376 0.049751
C5    C     C_R   0.176467 0.498866 0.731778 0.132697
C6    C     C_R   0.808023 0.499337 0.360975 0.140098
C7    C     C_R   0.674595 0.999622 0.719210 0.130760
C8    C     C_R   0.298075 0.998647 0.368810 0.142777
C9    C     C_2   0.922980 0.457942 0.541479 -0.117090
C10   C     C_2   0.021557 0.454683 0.639552 -0.110153
C11   C     C_2   0.420114 0.953989 0.541079 -0.112803
C12   C     C_R   0.688963 0.374664 0.090991 -0.125553
C13   C     C_2   0.519429 0.956470 0.637895 -0.111101
C14   C     C_2   0.893516 0.501047 0.472631 -0.194021
C15   C     C_2   0.075196 0.499967 0.684381 -0.189056
C16   C     C_2   0.370855 0.999469 0.486911 -0.192615
C17   C     C_2   0.572083 0.001806 0.660137 -0.182854
C18   C     C_R   0.291084 0.768147 0.899773 -0.173000
C19   C     C_R   0.844224 0.685252 0.100789 -0.169087
C20   C     C_R   0.790488 0.267888 0.899226 -0.172991
C21   C     C_R   0.344339 0.185333 0.101709 -0.168534
C22   C     C_R   0.742573 0.313610 0.899313 -0.168327
C23   C     C_R   0.852929 0.847292 0.909649 -0.139078
C24   C     C_R   0.391967 0.231195 0.101631 -0.172964
C25   C     C_R   0.243260 0.813924 0.899906 -0.168218
C26   C     C_R   0.891944 0.731069 0.100777 -0.172979
C27   C     C_R   0.761335 0.332533 0.998980 0.144741
C28   C     C_R   0.359838 0.257281 0.001789 0.143159
C29   C     C_R   0.261770 0.832743 0.999523 0.144497
C30   C     C_R   0.859341 0.757427 0.001047 0.143347
C31   C     C_R   0.842508 0.313693 0.098571 -0.168709
C32   C     C_R   0.293168 0.230571 0.902291 -0.173444
C33   C     C_R   0.342588 0.813644 0.099156 -0.168387
C34   C     C_R   0.189286 0.875110 0.091271 -0.126775
C35   C     C_R   0.792219 0.730974 0.901417 -0.173699
C36   C     C_R   0.390528 0.767909 0.099121 -0.172825
C37   C     C_R   0.744574 0.685147 0.901532 -0.168585
C38   C     C_R   0.890516 0.267990 0.098582 -0.172676
C39   C     C_R   0.245649 0.184665 0.902472 -0.168646
C40   C     C_R   0.442589 0.651636 0.090436 -0.140007
C41   C     C_R   0.599382 0.623596 0.908958 -0.126392
C42   C     C_R   0.942450 0.151635 0.090317 -0.140282
C43   C     C_R   0.099736 0.123459 0.909260 -0.126060
C44   C     C_R   0.358185 0.741646 0.999362 0.142934
C45   C     C_R   0.381946 0.683867 0.999172 0.049637
C46   C     C_R   0.763306 0.666234 0.001179 0.145052
C47   C     C_R   0.857878 0.241553 0.998900 0.143070
C48   C     C_R   0.263975 0.165920 0.002033 0.144779
C49   C     C_R   0.391866 0.549494 0.464461 -0.173597
C50   C     C_R   0.393410 0.549437 0.372651 -0.168018
C51   C     C_R   0.891895 0.049496 0.464490 -0.173640
C52   C     C_R   0.893460 0.049437 0.372696 -0.167990
C53   C     C_R   0.404900 0.499530 0.334208 0.144717
C54   C     C_R   0.400659 0.499601 0.517023 0.142934
C55   C     C_R   0.904964 0.999529 0.334269 0.144667
C56   C     C_R   0.689461 0.636724 0.001139 0.039734
C57   C     C_R   0.900687 0.999603 0.517050 0.142916
C58   C     C_R   0.392902 0.449702 0.372299 -0.168352
C59   C     C_R   0.391316 0.449710 0.464080 -0.173181
C60   C     C_R   0.892957 0.949702 0.372348 -0.168191
C61   C     C_R   0.891349 0.949711 0.464113 -0.172982
C62   C     C_R   0.479889 0.453304 0.248621 -0.125615
C63   C     C_R   0.450446 0.453788 0.696120 -0.140445
C64   C     C_R   0.979936 0.953301 0.248669 -0.124469
C65   C     C_R   0.950467 0.953786 0.696135 -0.140259
C66   C     C_R   0.232082 0.545108 0.755013 -0.148467
C67   C     C_R   0.881610 0.183768 0.998927 0.048737
C68   C     C_R   0.758238 0.545119 0.300270 -0.159944
C69   C     C_R   0.731322 0.045626 0.746936 -0.146316
C70   C     C_R   0.252673 0.044615 0.305296 -0.161793
C71   C     C_R   0.479028 0.545518 0.247661 -0.124553
C72   C     C_R   0.451233 0.545211 0.696791 -0.140088
C73   C     C_R   0.979078 0.045520 0.247715 -0.125245
C74   C     C_R   0.951268 0.045216 0.696813 -0.140196
C75   C     C_R   0.233089 0.452981 0.755012 -0.116049
C76   C     C_R   0.756995 0.453510 0.300416 -0.131011
C77   C     C_R   0.731710 0.953244 0.748147 -0.118841
C78   C     C_R   0.190022 0.136281 0.001672 0.040025
C79   C     C_R   0.251951 0.953211 0.303664 -0.131484
C80   C     C_R   0.351908 0.651760 0.907883 -0.140790
C81   C     C_R   0.690890 0.624082 0.093060 -0.123935
C82   C     C_R   0.851496 0.151610 0.907688 -0.136165
C83   C     C_R   0.191367 0.123413 0.093487 -0.125613
C84   C     C_R   0.444477 0.347259 0.092459 -0.139368
C85   C     C_R   0.597280 0.374997 0.907008 -0.125645
C86   C     C_R   0.944277 0.847253 0.092257 -0.140075
C87   C     C_R   0.097512 0.875087 0.907204 -0.125494
C88   C     C_R   0.383626 0.315028 0.001362 0.050242
C89   C     C_R   0.448409 0.499426 0.274298 0.040113
C90   C     C_R   0.687398 0.361909 0.999039 0.040155
C91   C     C_R   0.883112 0.815176 0.000955 0.049556
C92   C     C_R   0.187768 0.862203 0.999383 0.040446
H1    H     H_    0.316382 0.333171 0.825794 0.083872
H2    H     H_    0.865005 0.668979 0.179298 0.106677
H3    H     H_    0.767475 0.250579 0.820633 0.105547
H4    H     H_    0.364675 0.169341 0.180230 0.106988
H5    H     H_    0.684610 0.329820 0.820805 0.107478
H6    H     H_    0.447195 0.248742 0.180183 0.105311
H7    H     H_    0.185553 0.830299 0.821413 0.107701
H8    H     H_    0.947637 0.748372 0.179360 0.105393
H9    H     H_    0.863301 0.329997 0.177075 0.107833
H10   H     H_    0.270534 0.247637 0.823665 0.105549
H11   H     H_    0.363100 0.829767 0.177672 0.107347
H12   H     H_    0.746793 0.369031 0.176272 0.091632
H13   H     H_    0.769271 0.748216 0.822810 0.105608
H14   H     H_    0.446153 0.750560 0.177695 0.105587
H15   H     H_    0.686825 0.668818 0.823028 0.107546
H16   H     H_    0.946436 0.250797 0.177174 0.105607
H17   H     H_    0.188298 0.168083 0.823993 0.107552
H18   H     H_    0.393118 0.588838 0.499213 0.105512
H19   H     H_    0.395721 0.588731 0.340197 0.107409
H20   H     H_    0.893136 0.088840 0.499235 0.105508
H21   H     H_    0.895774 0.088731 0.340243 0.107451
H22   H     H_    0.394788 0.410398 0.339511 0.107655
H23   H     H_    0.815333 0.833609 0.825313 0.083649
H24   H     H_    0.392113 0.410369 0.498497 0.105587
H25   H     H_    0.894851 0.910397 0.339568 0.107662
H26   H     H_    0.892138 0.910370 0.498526 0.105625
H27   H     H_    0.489450 0.665273 0.174803 0.084096
H28   H     H_    0.572188 0.628432 0.823577 0.092818
H29   H     H_    0.989308 0.165340 0.174638 0.083953
H30   H     H_    0.072664 0.128433 0.823936 0.092753
H31   H     H_    0.470075 0.410554 0.259316 0.092533
H32   H     H_    0.431486 0.411673 0.668334 0.083785
H33   H     H_    0.970131 0.910547 0.259360 0.092423
H34   H     H_    0.247342 0.870193 0.176793 0.092350
H35   H     H_    0.931537 0.911668 0.668366 0.083817
H36   H     H_    0.209999 0.587528 0.746990 0.100128
H37   H     H_    0.771042 0.587046 0.330326 0.091563
H38   H     H_    0.709267 0.088237 0.735054 0.098212
H39   H     H_    0.261634 0.086318 0.335569 0.090537
H40   H     H_    0.468361 0.588280 0.257289 0.092502
H41   H     H_    0.433041 0.587449 0.669567 0.083710
H42   H     H_    0.968429 0.088284 0.257354 0.092544
H43   H     H_    0.933131 0.087462 0.669622 0.083685
H44   H     H_    0.212954 0.410278 0.747588 0.091374
H45   H     H_    0.936124 0.537988 0.493941 0.129061
H46   H     H_    0.768900 0.411410 0.329201 0.082043
H47   H     H_    0.710318 0.910571 0.736669 0.090384
H48   H     H_    0.258859 0.911219 0.331552 0.082831
H49   H     H_    0.314975 0.665534 0.823664 0.084730
H50   H     H_    0.748494 0.629935 0.178345 0.091150
H51   H     H_    0.814465 0.165316 0.823428 0.083438
H52   H     H_    0.249282 0.128215 0.179126 0.093732
H53   H     H_    0.491453 0.333680 0.176852 0.083400
H54   H     H_    0.569951 0.370081 0.821601 0.092598
H55   H     H_    0.991248 0.833563 0.176575 0.083711
H56   H     H_    0.042652 0.540307 0.669495 0.129125
H57   H     H_    0.070259 0.870081 0.821833 0.092605
H58   H     H_    0.880193 0.420834 0.517090 0.117250
H59   H     H_    0.053547 0.414023 0.660404 0.116162
H60   H     H_    0.395254 0.913668 0.503602 0.113112
H61   H     H_    0.553475 0.917480 0.676198 0.117045
H62   H     H_    0.391343 0.039699 0.525513 0.126020
H63   H     H_    0.540656 0.041256 0.622837 0.125184
H64   H     H_    0.268273 0.750947 0.821168 0.105745
N1    N     N_R   0.395440 0.396300 0.944370 -0.037613
N2    N     N_R   0.474910 0.470990 0.794360 -0.037041
N3    N     N_R   0.025090 0.970990 0.205640 -0.039874
N4    N     N_R   0.974910 0.970990 0.794360 -0.037048
N5    N     N_R   0.320240 0.527820 0.794510 -0.041596
N6    N     N_R   0.679760 0.527820 0.205490 -0.038909
N7    N     N_R   0.820240 0.027820 0.794510 -0.041364
N8    N     N_R   0.179760 0.027820 0.205490 -0.039133
N9    N     N_R   0.524580 0.527810 0.205160 -0.039852
N10   N     N_R   0.475420 0.527810 0.794840 -0.037024
N11   N     N_R   0.024580 0.027810 0.205160 -0.039659
N12   N     N_R   0.604560 0.396300 0.055630 -0.039564
N13   N     N_R   0.975420 0.027810 0.794840 -0.037045
N14   N     N_R   0.320750 0.470990 0.794990 -0.045097
N15   N     N_R   0.679250 0.470990 0.205010 -0.042174
N16   N     N_R   0.820750 0.970990 0.794990 -0.044352
N17   N     N_R   0.179250 0.970990 0.205010 -0.042345
N18   N     N_R   0.393580 0.602500 0.942610 -0.036926
N19   N     N_R   0.606420 0.602500 0.057390 -0.039538
N20   N     N_R   0.893580 0.102500 0.942610 -0.036933
N21   N     N_R   0.106420 0.102500 0.057390 -0.039664
N22   N     N_R   0.451750 0.396300 0.057540 -0.036912
N23   N     N_R   0.895440 0.896300 0.944370 -0.037432
N24   N     N_R   0.548250 0.396300 0.942460 -0.039518
N25   N     N_R   0.951750 0.896300 0.057540 -0.037115
N26   N     N_R   0.048250 0.896300 0.942460 -0.039607
N27   N     N_R   0.104560 0.896300 0.055630 -0.039634
N28   N     N_R   0.449890 0.602500 0.055780 -0.037352
N29   N     N_R   0.550110 0.602500 0.944220 -0.039991
N30   N     N_R   0.949890 0.102500 0.055780 -0.037465
N31   N     N_R   0.050110 0.102500 0.944220 -0.040187
N32   N     N_R   0.525090 0.470990 0.205640 -0.040282
Ni1   Ni    Ni4+2 0.435420 0.434250 0.870220 0.209112
Ni2   Ni    Ni4+2 0.564580 0.434250 0.129780 0.209742
Ni3   Ni    Ni4+2 0.935420 0.934250 0.870220 0.209358
Ni4   Ni    Ni4+2 0.064580 0.934250 0.129780 0.209522
Ni5   Ni    Ni4+2 0.563400 0.564580 0.128670 0.212092
Ni6   Ni    Ni4+2 0.436600 0.564580 0.871330 0.210542
Ni7   Ni    Ni4+2 0.063400 0.064580 0.128670 0.210615
Ni8   Ni    Ni4+2 0.936600 0.064580 0.871330 0.210531

loop_
_geom_bond_atom_site_label_1
_geom_bond_atom_site_label_2
_ccdc_geom_bond_type
C51   H20   S    
C53   C58   A    
C10   C15   D    
N31   Ni8   S    
C79   N17   A    
C6    C76   A    
N29   Ni6   S    
C73   N11   A    
C86   H55   S    
C87   N26   A    
C63   H32   S    
N8    Ni7   S    
C56   C81   A    
C3    C64   A    
C2    C63   A    
C43   C78   A    
N14   Ni1   S    
C30   C35   A    
C24   H6    S    
C81   N19   A    
C12   C90   A    
C35   C37   A    
C12   H12   S    
C86   C91   A    
C77   N16   A    
C15   H56   S    
N22   Ni2   S    
N25   Ni4   S    
C6    C14   S    
N26   Ni3   S    
C49   C54   A    
C62   C89   A    
C29   C33   A    
C33   C36   A    
N12   Ni2   S    
N6    Ni5   S    
C27   C90   S    
N32   Ni2   S    
C32   C39   A    
C48   C78   S    
C57   C61   A    
C19   C26   A    
N26   N27   A    
C70   H39   S    
C74   N13   A    
C71   H40   S    
C3    C55   S    
C78   C83   A    
C25   H7    S    
N6    N15   A    
C66   H36   S    
C69   H38   S    
C7    C17   S    
C4    C57   S    
C28   C88   S    
C86   N25   A    
N4    N13   A    
C51   C57   A    
C9    C10   S    
C4    C74   A    
C52   C55   A    
C34   N27   A    
C7    C77   A    
C21   C48   A    
C42   N30   A    
C1    C88   A    
C6    C68   A    
C79   H48   S    
C8    C16   S    
C22   H5    S    
C87   C92   A    
N27   Ni4   S    
C18   C25   A    
N11   Ni7   S    
C65   N4    A    
C2    C72   A    
C47   C67   S    
C62   H31   S    
N13   Ni8   S    
N1    Ni1   S    
C54   C59   A    
N16   Ni3   S    
C25   C29   A    
C40   C45   A    
C9    H58   S    
C19   C46   A    
C50   C53   A    
C83   N21   A    
C36   H14   S    
C51   C52   A    
N9    N32   A    
C69   N7    A    
N30   Ni7   S    
C28   C32   A    
C85   H54   S    
C2    C54   S    
N2    Ni1   S    
N18   N28   A    
C9    C14   D    
C75   H44   S    
C59   H24   S    
C58   C59   A    
C84   H53   S    
C27   C31   A    
N15   Ni2   S    
C70   N8    A    
C60   C61   A    
C84   C88   A    
C5    C75   A    
C76   N15   A    
C23   N23   A    
C41   C56   A    
C12   N12   A    
C35   H13   S    
C18   C44   A    
C10   H59   S    
N19   N29   A    
C11   C16   D    
C71   C89   A    
C14   H45   S    
C43   N31   A    
C34   H34   S    
C74   H43   S    
C30   C91   S    
C75   N14   A    
C77   H47   S    
C41   N29   A    
N8    N17   A    
N20   Ni8   S    
C84   N22   A    
N7    N16   A    
C43   H30   S    
C13   H61   S    
C38   C47   A    
C19   H2    S    
C4    C65   A    
N5    N14   A    
C81   H50   S    
C20   H3    S    
C82   N20   A    
C49   C50   A    
C76   H46   S    
C22   C27   A    
C53   C89   S    
C42   C67   A    
C32   H10   S    
C36   C44   A    
N10   Ni6   S    
C60   H25   S    
C17   H63   S    
C31   H9    S    
C18   H64   S    
C44   C45   S    
N2    N10   A    
C62   N32   A    
N21   Ni7   S    
N18   Ni6   S    
C61   H26   S    
C33   H11   S    
C72   N10   A    
N3    Ni4   S    
C65   H35   S    
C24   C28   A    
N4    Ni3   S    
C20   C22   A    
C82   H51   S    
N9    Ni5   S    
C7    C69   A    
C80   H49   S    
C85   C90   A    
C37   H15   S    
N20   N30   A    
C21   H4    S    
C68   N6    A    
N17   Ni4   S    
C8    C70   A    
N21   N31   A    
C31   C38   A    
C13   C17   D    
N24   Ni1   S    
C1    N1    A    
C80   N18   A    
C8    C79   A    
N12   N24   A    
C5    C66   A    
C16   H62   S    
C11   C13   S    
C72   H41   S    
C83   H52   S    
N7    Ni8   S    
C85   N24   A    
C52   H21   S    
C64   N3    A    
C50   H19   S    
N3    N11   A    
N5    Ni6   S    
C45   C80   A    
C23   C91   A    
N1    N22   A    
C87   H57   S    
C41   H28   S    
C38   H16   S    
C68   H37   S    
C3    C73   A    
C34   C92   A    
C5    C15   S    
C20   C47   A    
C23   H23   S    
C11   H60   S    
C39   H17   S    
C40   H27   S    
N23   Ni3   S    
C73   H42   S    
C66   N5    A    
C67   C82   A    
C1    H1    S    
C64   H33   S    
C71   N9    A    
C21   C24   A    
C46   C56   S    
C58   H22   S    
C39   C48   A    
C63   N2    A    
C40   N28   A    
C37   C46   A    
C55   C60   A    
N19   Ni5   S    
C29   C92   S    
N28   Ni5   S    
C42   H29   S    
C26   H8    S    
C49   H18   S    
N23   N25   A    
C26   C30   A    
