data_mof_unit_48380.cif
_audit_creation_date              2013-03-05T15:53:21-0500
_audit_creation_method            fapswitch 2.2
_symmetry_space_group_name_H-M    P1
_symmetry_Int_Tables_number       1
_space_group_crystal_system       triclinic
_cell_length_a                    15.487617
_cell_length_b                    15.488742
_cell_length_c                    15.592992
_cell_angle_alpha                 92.04964
_cell_angle_beta                  71.456305
_cell_angle_gamma                 111.329528
_cell_volume                      3289.84375356

loop_
_atom_site_label
_atom_site_type_symbol
_atom_site_description
_atom_site_fract_x
_atom_site_fract_y
_atom_site_fract_z
_atom_type_partial_charge
Zn1   Zn    Zn3+2 0.574690 0.574670 0.574650 0.992906
Zn2   Zn    Zn3+2 0.583640 0.456100 0.403530 1.015263
Zn3   Zn    Zn3+2 0.447120 0.574690 0.447120 0.970465
Zn4   Zn    Zn3+2 0.394550 0.394550 0.574700 1.082559
O1    O     O_3   0.500000 0.500000 0.500000 -0.511874
O2    O     O_R   0.404710 0.279110 0.530840 -0.582863
O3    O     O_R   0.573760 0.699350 0.573690 -0.645310
O4    O     O_R   0.714470 0.499570 0.411000 -0.625440
O5    O     O_R   0.307050 0.521980 0.484470 -0.648581
O6    O     O_R   0.588830 0.499590 0.285390 -0.639791
O7    O     O_R   0.395900 0.395880 0.699370 -0.561377
O8    O     O_R   0.493280 0.582590 0.315890 -0.636043
O9    O     O_R   0.521980 0.521940 0.699340 -0.659243
O10   O     O_R   0.708210 0.582550 0.530770 -0.620726
O11   O     O_R   0.270260 0.395900 0.573760 -0.603284
O12   O     O_R   0.537060 0.322180 0.411040 -0.639748
O13   O     O_R   0.484470 0.699370 0.484430 -0.654108
C1    C     C_R   0.462613 0.258520 0.462808 0.882593
C2    C     C_R   0.536598 0.741738 0.534633 0.875687
C3    C     C_R   0.756754 0.551593 0.462366 0.792280
C4    C     C_R   0.242365 0.448748 0.536330 0.763369
C5    C     C_R   0.552304 0.551631 0.259191 0.777097
C6    C     C_R   0.448825 0.449688 0.742163 0.847799
C7    C     C_R   0.641072 0.677896 0.030807 -0.008344
H1    H     H_    0.691112 0.693295 0.146861 0.186839
C8    C     C_R   0.566777 0.566746 0.163691 -0.095480
C9    C     C_R   0.398054 0.326749 0.865316 0.652896
C10   C     C_R   0.404087 0.297973 0.945741 -0.171298
C11   C     C_R   0.444291 0.363089 0.999604 -0.194005
C12   C     C_R   0.472284 0.459333 0.978031 0.114343
C13   C     C_R   0.468056 0.489138 0.895194 0.003637
C14   C     C_R   0.513030 0.527076 0.032599 0.092082
C15   C     C_R   0.569533 0.620230 0.993348 0.022294
C16   C     C_R   0.549968 0.651014 0.919595 -0.082877
C17   C     C_R   0.497701 0.585142 0.872975 -0.202997
C18   C     C_R   0.500529 0.506047 0.124420 -0.087229
C19   C     C_R   0.638965 0.649315 0.115766 -0.165190
C20   C     C_R   0.433872 0.422288 0.837003 -0.232547
H2    H     H_    0.456167 0.336871 0.056391 0.185690
H3    H     H_    0.381543 0.224492 0.964482 0.210926
H4    H     H_    0.479479 0.610013 0.819655 0.150391
C21   C     C_R   0.445973 0.044409 0.340613 -0.048594
H5    H     H_    0.436144 0.018657 0.277475 0.252973
C22   C     C_R   0.449972 0.162343 0.446395 -0.209755
C23   C     C_R   0.545044 0.860384 0.642794 -0.301535
C24   C     C_R   0.522045 0.935764 0.677150 0.676707
C25   C     C_R   0.499429 0.989149 0.624397 -0.156786
C26   C     C_R   0.509780 0.974569 0.532005 -0.013137
C27   C     C_R   0.537958 0.899521 0.495222 -0.012267
C28   C     C_R   0.487739 0.029049 0.476588 -0.083467
C29   C     C_R   0.479600 0.998885 0.391501 -0.092617
C30   C     C_R   0.513018 0.928818 0.354297 0.553435
C31   C     C_R   0.552420 0.886688 0.401482 -0.115115
C32   C     C_R   0.477945 0.114701 0.500354 0.608837
C33   C     C_R   0.429740 0.125726 0.367877 -0.159813
C34   C     C_R   0.546340 0.837700 0.554664 -0.084671
H6    H     H_    0.553238 0.814886 0.688229 0.174235
H7    H     H_    0.469211 0.038072 0.659459 0.246032
C35   C     C_R   0.023484 0.611619 0.327392 -0.051760
H8    H     H_    0.185521 0.566467 0.285160 0.155187
C36   C     C_R   0.861777 0.572798 0.441242 -0.108354
C37   C     C_R   0.069764 0.391958 0.649037 -0.120879
C38   C     C_R   0.978248 0.402084 0.681197 -0.053444
C39   C     C_R   0.952329 0.449580 0.624961 -0.155459
C40   C     C_R   0.011453 0.481612 0.533882 0.053644
C41   C     C_R   0.102825 0.470071 0.501261 0.063868
C42   C     C_R   0.982879 0.525969 0.474515 0.103810
C43   C     C_R   0.048047 0.561778 0.384864 0.048590
C44   C     C_R   0.135488 0.544969 0.353774 -0.203487
C45   C     C_R   0.159801 0.496636 0.409281 -0.120452
C46   C     C_R   0.889873 0.532534 0.500531 -0.220231
C47   C     C_R   0.928466 0.615103 0.355166 -0.069842
C48   C     C_R   0.135777 0.432140 0.560736 -0.088657
H9    H     H_    0.833392 0.499275 0.563600 0.146995
H10   H     H_    0.884748 0.460498 0.654811 0.184673
H11   H     H_    0.224198 0.479857 0.378270 0.176857
F1    F     F_    0.516824 0.908425 0.267838 -0.647934
F2    F     F_    0.510206 0.160684 0.566769 -0.658201
F3    F     F_    0.513226 0.952365 0.764938 -0.610483
C49   C     C_2   0.616591 0.838553 0.347548 0.513268
H12   H     H_    0.605296 0.807723 0.286458 0.128561
O14   O     O_2   0.685629 0.836749 0.368309 -0.586127
C50   C     C_2   0.894816 0.658192 0.294364 0.525817
H13   H     H_    0.838415 0.686699 0.323585 0.047759
O15   O     O_2   0.926043 0.658741 0.211875 -0.517486
C51   C     C_2   0.097303 0.661152 0.239584 0.529324
H14   H     H_    0.136743 0.625426 0.190970 0.055713
O16   O     O_2   0.115336 0.743237 0.221528 -0.484158
C52   C     C_2   0.570107 0.749969 0.896069 0.417392
H15   H     H_    0.579904 0.772994 0.827537 0.079013
O17   O     O_2   0.570343 0.805354 0.953810 -0.480088
C53   C     C_2   0.096286 0.342606 0.710319 0.447983
H16   H     H_    0.099450 0.368103 0.775419 0.037747
O18   O     O_2   0.110085 0.270699 0.690098 -0.479564
C54   C     C_2   0.908312 0.363664 0.774377 0.451429
H17   H     H_    0.924540 0.323820 0.818654 0.073787
O19   O     O_2   0.830705 0.375578 0.803082 -0.537982
C55   C     C_2   0.724912 0.761627 0.978648 0.549179
H18   H     H_    0.743763 0.772252 0.905624 0.047644
O20   O     O_2   0.775104 0.819018 0.016399 -0.510322
C56   C     C_2   0.410666 0.431233 0.184291 0.399342
H19   H     H_    0.413000 0.397159 0.242658 0.042506
O21   O     O_2   0.332247 0.409705 0.170884 -0.542621
F4    F     F_    0.364584 0.260587 0.811744 -0.598358
C57   C     C_2   0.396960 0.174635 0.311599 0.498274
H20   H     H_    0.382775 0.237003 0.332933 0.011999
O22   O     O_2   0.384739 0.145570 0.240819 -0.529696

loop_
_geom_bond_atom_site_label_1
_geom_bond_atom_site_label_2
_geom_bond_distance
_ccdc_geom_bond_type
C2    C34   1.470765 S    
O4    C3    1.274068 A    
C56   H19   1.085037 S    
C38   C54   1.493430 S    
C54   H17   1.083689 S    
C23   C24   1.383272 A    
O6    C5    1.280197 A    
C57   O22   1.221445 D    
C23   H6    1.082874 S    
C37   C38   1.410321 A    
C33   C57   1.487409 S    
Zn1   O1    1.953855 S    
C14   C18   1.415881 A    
C10   C11   1.387633 A    
C24   F3    1.356484 S    
C21   C33   1.397976 A    
C51   O16   1.221050 D    
C10   H3    1.082793 S    
C9    C20   1.409322 A    
C4    C48   1.494870 S    
C9    F4    1.358093 S    
O9    C6    1.277416 A    
C16   C17   1.394671 A    
C3    C36   1.463008 S    
Zn3   O8    1.933152 S    
H1    C19   1.084719 S    
C25   C26   1.417177 A    
C23   C34   1.401905 A    
C43   C44   1.402381 A    
C40   C42   1.432482 A    
C37   C53   1.482046 S    
C37   C48   1.425280 A    
C52   O17   1.221107 D    
Zn2   O12   1.926589 S    
C42   C46   1.407744 A    
C35   C47   1.416610 A    
C36   C46   1.388332 A    
C26   C28   1.422875 A    
C56   O21   1.221419 D    
C28   C29   1.419041 A    
O2    C1    1.268861 A    
C29   C30   1.398130 A    
O10   C3    1.283917 A    
C31   C49   1.487764 S    
C49   O14   1.221226 D    
C51   H14   1.084124 S    
Zn4   O1    1.917622 S    
C41   C48   1.422605 A    
C42   C43   1.425235 A    
C18   C56   1.493008 S    
C11   C12   1.412892 A    
Zn3   O5    1.911494 S    
C1    C22   1.454432 S    
C35   C43   1.422582 A    
C50   H13   1.085635 S    
C12   C13   1.415728 A    
C11   H2    1.080034 S    
C53   O18   1.220942 D    
C15   C16   1.416928 A    
C28   C32   1.412714 A    
Zn4   O7    1.950023 S    
C36   C47   1.409406 A    
Zn4   O2    1.933458 S    
C26   C27   1.425738 A    
C50   O15   1.220873 D    
C55   H18   1.084373 S    
C55   O20   1.221447 D    
C45   H11   1.081150 S    
O8    C5    1.273467 A    
C7    C55   1.485975 S    
Zn2   O1    1.931664 S    
Zn1   O9    1.932029 S    
C21   H5    1.083796 S    
C30   F1    1.361363 S    
Zn2   O6    1.951648 S    
C30   C31   1.396111 A    
C8    C18   1.402965 A    
C7    C19   1.398570 A    
C24   C25   1.387674 A    
Zn1   O3    1.937047 S    
Zn2   O4    1.929927 S    
C49   H12   1.085675 S    
Zn3   O1    1.968740 S    
C46   H9    1.076552 S    
C54   O19   1.221611 D    
C8    C19   1.393118 A    
C6    C20   1.475212 S    
C57   H20   1.084894 S    
C21   C29   1.402873 A    
O3    C2    1.288267 A    
C7    C15   1.421603 A    
C13   C20   1.419615 A    
C39   C40   1.412213 A    
Zn4   O11   1.937357 S    
C35   C51   1.487206 S    
C27   C34   1.422416 A    
C14   C15   1.423425 A    
C25   H7    1.075983 S    
C12   C14   1.420966 A    
C22   C33   1.408512 A    
O5    C4    1.291443 A    
C41   C45   1.406456 A    
H8    C44   1.080026 S    
C27   C31   1.424630 A    
O7    C6    1.273918 A    
C53   H16   1.085204 S    
O13   C2    1.294243 A    
C39   H10   1.074248 S    
Zn3   O13   1.929615 S    
C13   C17   1.407466 A    
C44   C45   1.382056 A    
C17   H4    1.081923 S    
C16   C52   1.483457 S    
C47   C50   1.492808 S    
C38   C39   1.398628 A    
C22   C32   1.396044 A    
O11   C4    1.284180 A    
O12   C1    1.261408 A    
C40   C41   1.418793 A    
C5    C8    1.448100 S    
C9    C10   1.387409 A    
Zn1   O10   1.918778 S    
C52   H15   1.084869 S    
C32   F2    1.359001 S    
