data_mof_unit_67120.cif
_audit_creation_date              2013-03-05T15:58:41-0500
_audit_creation_method            fapswitch 2.2
_symmetry_space_group_name_H-M    P1
_symmetry_Int_Tables_number       1
_space_group_crystal_system       triclinic
_cell_length_a                    8.223175
_cell_length_b                    12.673287
_cell_length_c                    14.849943
_cell_angle_alpha                 97.081151
_cell_angle_beta                  97.377797
_cell_angle_gamma                 98.701813
_cell_volume                      1500.94255612

loop_
_atom_site_label
_atom_site_type_symbol
_atom_site_description
_atom_site_fract_x
_atom_site_fract_y
_atom_site_fract_z
_atom_type_partial_charge
P1    P     P_3+3 0.998770 0.403620 0.291990 0.508981
O1    O     O_2   0.827930 0.435360 0.277760 -0.312107
O2    O     O_3   0.100310 0.439010 0.391180 -0.421746
O3    O     O_3   0.625610 0.634200 0.333270 -0.376153
O4    O     O_2   0.706184 0.557591 0.173207 -0.355544
O5    O     O_3   0.949233 0.262656 0.270411 -0.523167
O6    O     O_3   0.647340 0.755567 0.188585 -0.533536
H1    H     H_    0.675859 0.875753 0.298708 0.136602
C1    C     C_3   0.512559 0.908974 0.183654 -0.923315
H2    H     H_    0.453065 0.967043 0.225027 0.241729
H3    H     H_    0.616343 0.953877 0.155334 0.296549
P2    P     P_3+3 0.687370 0.751000 0.571300 0.466371
P3    P     P_3+3 0.104268 0.830049 0.381674 0.456026
O7    O     O_2   0.857120 0.766320 0.543890 -0.396533
O8    O     O_3   0.056570 0.691100 0.379020 -0.388924
O9    O     O_2   0.982911 0.882164 0.437109 -0.380501
O10   O     O_3   0.734244 0.787566 0.691278 -0.575856
O11   O     O_3   0.054645 0.862021 0.271053 -0.526124
C2    C     C_3   0.070457 0.774803 0.206412 0.404461
H4    H     H_    0.979040 0.702378 0.210959 0.159399
H5    H     H_    0.197929 0.755412 0.216910 0.009053
C3    C     C_3   0.035830 0.804264 0.110347 -0.819879
H6    H     H_    0.906148 0.819464 0.096318 0.281390
H7    H     H_    0.122585 0.878068 0.103699 0.268855
C4    C     C_3   0.146944 0.793626 0.690413 0.192628
H8    H     H_    0.170973 0.816288 0.622804 0.083662
H9    H     H_    0.021656 0.747227 0.681539 0.115480
C5    C     C_3   0.155323 0.895842 0.758290 -0.052625
H10   H     H_    0.257403 0.957535 0.746049 0.100565
H11   H     H_    0.037888 0.928116 0.745676 0.146666
Ba1   Ba    Ba6+2 0.843760 0.550230 0.455610 1.589825
C6    C     C_3   0.925518 0.221946 0.352079 0.443092
H12   H     H_    0.835398 0.262438 0.386458 0.093894
H13   H     H_    0.044596 0.234450 0.399011 0.118519
C7    C     C_3   0.859437 0.101247 0.330030 -0.944118
H14   H     H_    0.730468 0.087399 0.293629 0.286019
H15   H     H_    0.860892 0.064409 0.393770 0.229943
H16   H     H_    0.936016 0.059687 0.285887 0.282522
C8    C     C_3   0.721692 0.698398 0.739195 0.424490
H17   H     H_    0.842524 0.671764 0.751208 0.034700
H18   H     H_    0.631524 0.628191 0.703591 0.149445
C9    C     C_3   0.675160 0.733262 0.832742 -0.804401
H19   H     H_    0.772649 0.797710 0.873015 0.301811
H20   H     H_    0.661541 0.663561 0.871323 0.195636
H21   H     H_    0.557903 0.766429 0.824259 0.270184
P4    P     P_3+3 0.190950 0.596470 0.708020 0.492635
O12   O     O_2   0.361790 0.564680 0.722290 -0.365277
O13   O     O_3   0.089410 0.561080 0.608830 -0.387116
O14   O     O_3   0.564100 0.365890 0.666740 -0.384995
O15   O     O_3   0.268153 0.735398 0.722211 -0.547307
P5    P     P_3+3 0.090651 0.171214 0.627837 0.435050
O16   O     O_3   0.601940 0.368260 0.453780 -0.381436
O17   O     O_3   0.133140 0.308990 0.620990 -0.384456
O18   O     O_2   0.206275 0.117227 0.569306 -0.391482
O19   O     O_3   0.159709 0.151819 0.740339 -0.538698
Ba2   Ba    Ba6+2 0.346080 0.449860 0.544400 1.561523
P6    P     P_3+3 0.585628 0.625893 0.214489 0.481485
C10   C     C_3   0.577566 0.830579 0.243222 0.394399
H22   H     H_    0.473128 0.794136 0.276263 0.026610
H23   H     H_    0.419120 0.863928 0.125764 0.268016
O20   O     O_3   0.587770 0.631830 0.546230 -0.394666
C11   C     C_3   0.405893 0.249357 0.255493 0.811310
H24   H     H_    0.375242 0.322181 0.295405 -0.006159
C12   C     C_3   0.246104 0.180018 0.203523 -0.903854
H25   H     H_    0.174016 0.143676 0.253038 0.239797
H26   H     H_    0.171341 0.229293 0.163621 0.247446
H27   H     H_    0.275031 0.113344 0.155471 0.263328
P7    P     P_3+3 0.510328 0.232223 0.428672 0.417449
O21   O     O_2   0.332600 0.233710 0.456170 -0.389870
O22   O     O_3   0.486799 0.184483 0.310722 -0.631376
H28   H     H_    0.052523 0.737002 0.058843 0.228809
C13   C     C_3   0.122332 0.235439 0.801653 0.402796
H29   H     H_    0.187440 0.315207 0.790839 0.138173
H30   H     H_    0.986463 0.235274 0.793349 0.047893
C14   C     C_3   0.180136 0.219640 0.899975 -0.721807
H31   H     H_    0.138955 0.280315 0.948623 0.210039
H32   H     H_    0.127517 0.137759 0.912302 0.292344
H33   H     H_    0.317699 0.229616 0.913572 0.283810
P8    P     P_3+3 0.604655 0.379774 0.786160 0.471333
C15   C     C_3   0.594787 0.174612 0.754116 0.260033
H34   H     H_    0.716315 0.199844 0.731442 0.019158
O23   O     O_2   0.479263 0.444619 0.826193 -0.397153
O24   O     O_3   0.557341 0.253032 0.820096 -0.494887
H35   H     H_    0.495537 0.158609 0.693459 0.121998
C16   C     C_3   0.599858 0.070389 0.795031 -0.101956
H36   H     H_    0.595997 0.002631 0.739083 0.086379
H37   H     H_    0.489604 0.053331 0.829682 0.185472
C17   C     C_R   0.365263 0.566913 0.171096 0.232246
H38   H     H_    0.330477 0.526389 0.304500 0.173486
H39   H     H_    0.501821 0.657019 0.035824 0.181598
C18   C     C_R   0.111077 0.467853 0.207029 0.271664
C19   C     C_R   0.919201 0.482158 0.767840 -0.537803
C20   C     C_R   0.819440 0.444350 0.829638 0.251938
C21   C     C_R   0.883087 0.453486 0.922385 -0.262210
C22   C     C_R   0.049347 0.503386 0.955878 0.023117
C23   C     C_R   0.145303 0.551183 0.892842 0.026772
C24   C     C_R   0.122668 0.508431 0.049867 0.029330
C25   C     C_R   0.289743 0.562913 0.079099 0.023459
C26   C     C_R   0.376476 0.613314 0.016339 -0.186371
C27   C     C_R   0.304208 0.609292 0.926116 -0.042295
C28   C     C_R   0.037094 0.459322 0.115468 -0.263510
C29   C     C_R   0.273267 0.522176 0.234074 -0.465766
C30   C     C_R   0.079370 0.539212 0.797838 0.225599
H40   H     H_    0.913221 0.413474 0.097912 0.196341
H41   H     H_    0.868107 0.471830 0.695815 0.175398
H42   H     H_    0.799420 0.421050 0.966127 0.187734
H43   H     H_    0.375182 0.652131 0.882358 0.164705
C31   C     C_R   0.770335 0.183432 0.545827 -0.511859
C32   C     C_R   0.417054 0.810816 0.471272 -0.477413
C33   C     C_R   0.386822 0.989049 0.439924 -0.196651
C34   C     C_R   0.320500 0.880854 0.434690 0.200590
C35   C     C_R   0.578584 0.848934 0.517179 0.311801
C36   C     C_R   0.645196 0.961049 0.528270 -0.088634
C37   C     C_R   0.547652 0.031397 0.487727 -0.071108
C38   C     C_R   0.613094 0.142413 0.496078 0.287640
C39   C     C_R   0.870285 0.115064 0.582489 0.202699
C40   C     C_R   0.806741 0.005005 0.576144 -0.182089
H44   H     H_    0.308339 0.038889 0.407777 0.189706
H45   H     H_    0.886816 0.955165 0.606620 0.170290
H46   H     H_    0.820034 0.268308 0.550206 0.168972
H47   H     H_    0.364195 0.726343 0.466093 0.183577
N1    N     N_R   0.182122 0.874699 0.853240 0.288563
O25   O     O_R   0.309165 0.928486 0.910542 -0.385641
O26   O     O_R   0.079010 0.802229 0.881465 -0.433498
N2    N     N_R   0.510773 0.283127 0.188226 0.235238
O27   O     O_R   0.464729 0.349998 0.134296 -0.433286
O28   O     O_R   0.626907 0.229232 0.167651 -0.317172
N3    N     N_R   0.748916 0.079503 0.862184 0.268394
O29   O     O_R   0.773208 0.149398 0.936568 -0.333999
O30   O     O_R   0.848289 0.009614 0.853018 -0.400311

loop_
_geom_bond_atom_site_label_1
_geom_bond_atom_site_label_2
_geom_bond_distance
_ccdc_geom_bond_type
O5    C6    1.399847 S    
C20   C21   1.393358 A    
H38   C29   1.081766 S    
C31   H46   1.082216 S    
C2    H4    1.109814 S    
Ba1   O16   2.802930 S    
C15   H35   1.111152 S    
C32   H47   1.082241 S    
N3    O29   1.301254 A    
C33   H44   1.077931 S    
C37   C38   1.412524 A    
C8    H18   1.097587 S    
C16   H36   1.112548 S    
C4    C5    1.527115 S    
C15   C16   1.524332 S    
P3    O11   1.752480 S    
C31   C38   1.394460 A    
C5    H10   1.106618 S    
C7    H15   1.105332 S    
P8    C20   1.829108 S    
C32   C34   1.390949 A    
C15   H34   1.109325 S    
C5    N1    1.462770 S    
P1    Ba1   3.373388 S    
C39   C40   1.400652 A    
C11   O22   1.408132 S    
P1    O1    1.515177 D    
O10   C8    1.405652 S    
Ba1   O20   2.890452 S    
C33   C34   1.385703 A    
C11   C12   1.522273 S    
C19   C30   1.392025 A    
H1    C10   1.110234 S    
C4    O15   1.395920 S    
C22   C23   1.432008 A    
P7    O21   1.569317 D    
P2    O10   1.761722 S    
Ba1   Ba2   4.508809 S    
P5    O18   1.545990 D    
C1    H2    1.110439 S    
O7    Ba1   2.866575 S    
O6    C10   1.409139 S    
O19   C13   1.406796 S    
O16   P7    1.747913 S    
P1    C18   1.852655 S    
C9    H20   1.110132 S    
C18   C28   1.400692 A    
C15   O24   1.404470 S    
C35   C36   1.424655 A    
C24   C25   1.427811 A    
C8    C9    1.519138 S    
C16   H37   1.105185 S    
P4    O13   1.573507 S    
H39   C26   1.078919 S    
P1    O5    1.750789 S    
C12   H27   1.111544 S    
C7    H16   1.106766 S    
C13   H30   1.107860 S    
C32   C35   1.398052 A    
C8    H17   1.097192 S    
O11   C2    1.405016 S    
C4    H8    1.111030 S    
O14   P8    1.743691 S    
O1    Ba1   2.831587 S    
P1    O2    1.573506 S    
C9    H21   1.107594 S    
C6    H13   1.104628 S    
O3    P6    1.739332 S    
C14   H31   1.110192 S    
C6    C7    1.523683 S    
C11   H24   1.113770 S    
C11   N2    1.462803 S    
C14   H32   1.108538 S    
O2    Ba2   2.817484 S    
C26   C27   1.385772 A    
C2    C3    1.521421 S    
O2    Ba1   2.904910 S    
C1    H3    1.110524 S    
C36   C40   1.419970 A    
P2    O7    1.495082 D    
Ba2   O21   2.866847 S    
C28   H40   1.076362 S    
Ba1   O13   2.816884 S    
P3    O8    1.739604 S    
P2    Ba1   3.399880 S    
N2    O27   1.299797 A    
C3    H7    1.110180 S    
P3    O9    1.544713 D    
C9    H19   1.107146 S    
C18   C29   1.389419 A    
N1    O26   1.299496 A    
C3    H28   1.109979 S    
P2    C35   1.839527 S    
C36   C37   1.423165 A    
O17   Ba2   2.759195 S    
O13   Ba2   2.905737 S    
C33   C37   1.411111 A    
P4    O12   1.515477 D    
C21   H42   1.076705 S    
C27   H43   1.070577 S    
C2    H5    1.108557 S    
Ba2   O20   2.802305 S    
C13   H29   1.110285 S    
N3    O30   1.299473 A    
P8    O23   1.544461 D    
C17   C29   1.396785 A    
C22   C24   1.437308 A    
O8    Ba1   2.758566 S    
C4    H9    1.089639 S    
O14   Ba2   2.804404 S    
P4    C30   1.870537 S    
P4    O15   1.755951 S    
P5    C39   1.849838 S    
P6    C17   1.851800 S    
O4    P6    1.546867 D    
C1    H23   1.109927 S    
C6    H12   1.104916 S    
C31   C39   1.392675 A    
C40   H45   1.075716 S    
C10   H22   1.111611 S    
P3    C34   1.834438 S    
C12   H25   1.103185 S    
P8    O24   1.745331 S    
P2    O20   1.580861 S    
C13   C14   1.523320 S    
C23   C27   1.395440 A    
C5    H11   1.107643 S    
C19   C20   1.388362 A    
P5    O19   1.753222 S    
C21   C22   1.415168 A    
C14   H33   1.108219 S    
C17   C25   1.417787 A    
O3    Ba1   2.805058 S    
P7    C38   1.834732 S    
C19   H41   1.082160 S    
C1    C10   1.520289 S    
P7    O22   1.757188 S    
C25   C26   1.401750 A    
C23   C30   1.425927 A    
P4    Ba2   3.373932 S    
N2    O28   1.301050 A    
C3    H6    1.110279 S    
C16   N3    1.457748 S    
C7    H14   1.104900 S    
P5    O17   1.746274 S    
N1    O25   1.301286 A    
O6    P6    1.749256 S    
C24   C28   1.422878 A    
O16   Ba2   2.889551 S    
C12   H26   1.110358 S    
O12   Ba2   2.832000 S    
