data_mof_unit_27818.cif
_audit_creation_date              2012-12-11T16:04:50-0500
_audit_creation_method            fapswitch 2.2
_symmetry_space_group_name_H-M    P1
_symmetry_Int_Tables_number       1
_space_group_crystal_system       triclinic
_cell_length_a                    10.661643
_cell_length_b                    10.668961
_cell_length_c                    16.959985
_cell_angle_alpha                 98.656805
_cell_angle_beta                  98.584179
_cell_angle_gamma                 61.538525
_cell_volume                      1670.0046808

loop_
_atom_site_label
_atom_site_type_symbol
_atom_type_description
_atom_site_fract_x
_atom_site_fract_y
_atom_site_fract_z
_atom_type_partial_charge
C1    C     C_R   0.355384 0.773767 0.398409 0.547295
C2    C     C_3   0.289234 0.739803 0.248887 -0.109252
C3    C     C_3   0.347167 0.812042 0.319361 0.062392
C4    C     C_R   0.370788 0.346938 0.358760 0.539742
C5    C     C_3   0.473734 0.782588 0.273593 -0.117926
C6    C     C_3   0.381668 0.930824 0.241103 -0.119372
C7    C     C_3   0.256526 0.958491 0.288787 -0.150963
C8    C     C_3   0.197432 0.887416 0.217702 -0.106079
C9    C     C_3   0.323215 0.858291 0.171063 0.060440
C10   C     C_3   0.456370 0.291035 0.780241 -0.155359
C11   C     C_3   0.370040 0.426969 0.735126 -0.104395
C12   C     C_3   0.695940 0.400355 0.254872 -0.110893
C13   C     C_3   0.337994 0.334392 0.663807 0.012434
C14   C     C_3   0.424938 0.199375 0.708340 -0.120462
C15   C     C_3   0.285278 0.229619 0.741644 -0.145774
C16   C     C_R   0.778997 0.375528 0.402528 0.538557
C17   C     C_3   0.197825 0.364909 0.695656 -0.137707
C18   C     C_3   0.231602 0.454127 0.767745 0.292355
C19   C     C_3   0.317633 0.321494 0.812951 0.080923
C20   C     C_1   0.817271 0.341956 0.709627 -0.040845
C21   C     C_1   0.844135 0.314860 0.778030 -0.043230
C22   C     C_1   0.338025 0.812479 0.709700 -0.062863
C23   C     C_3   0.819248 0.347008 0.321515 0.058793
C24   C     C_1   0.313271 0.839714 0.778449 -0.051646
C25   C     C_R   0.890676 0.311086 0.090347 0.538739
C26   C     C_R   0.319047 0.299413 0.120281 0.538355
C27   C     C_R   0.293757 0.892897 0.089179 0.550347
C28   C     C_R   0.356545 0.771421 0.627221 0.543976
C29   C     C_R   0.885443 0.299228 0.860788 0.539912
C30   C     C_R   0.307863 0.293756 0.891752 0.557140
C31   C     C_R   0.280078 0.884898 0.858953 0.558909
C32   C     C_R   0.367844 0.346316 0.585834 0.544418
C33   C     C_R   0.773599 0.379849 0.629704 0.540863
C34   C     C_3   0.897374 0.204345 0.272129 -0.133512
C35   C     C_1   0.343969 0.336461 0.275059 -0.065564
C36   C     C_1   0.331861 0.326457 0.203903 -0.061902
C37   C     C_3   0.775415 0.257379 0.203932 -0.123448
C38   C     C_3   0.055926 0.682733 0.747488 -0.091639
C39   C     C_3   0.975475 0.271359 0.237142 -0.114420
C40   C     C_3   0.896094 0.414325 0.287780 -0.116714
C41   C     C_3   0.773839 0.467492 0.220290 -0.125768
C42   C     C_3   0.852120 0.325320 0.170606 0.056850
C43   C     C_3   0.414249 0.711803 0.201718 -0.152311
Cr1   Cr    Cr6+3 0.608340 0.611040 0.520430 1.015404
Cr2   Cr    Cr6+3 0.287650 0.601120 0.489350 1.008423
Cr3   Cr    Cr6+3 0.604040 0.287870 0.490280 1.022280
Cr4   Cr    Cr6+3 0.054020 0.052700 0.970850 1.030185
Cr5   Cr    Cr6+3 0.059230 0.375120 0.993390 1.054648
Cr6   Cr    Cr6+3 0.374950 0.061200 0.992340 1.023374
H1    H     H_    0.581191 0.450685 0.265850 0.116748
H2    H     H_    0.724818 0.195055 0.167594 0.128159
H3    H     H_    0.945128 0.099243 0.297040 0.113926
H4    H     H_    0.090167 0.221020 0.226055 0.114614
H5    H     H_    0.946974 0.476708 0.323754 0.124548
H6    H     H_    0.725634 0.573056 0.195837 0.119598
H7    H     H_    0.250633 0.661293 0.253338 0.133106
H8    H     H_    0.474033 0.614255 0.161925 0.104941
H9    H     H_    0.586075 0.741919 0.300404 0.132279
H10   H     H_    0.981285 0.649817 0.708354 0.121403
H11   H     H_    0.127055 0.694937 0.710836 0.132779
H12   H     H_    0.420088 0.008874 0.235360 0.135472
H13   H     H_    0.990228 0.789253 0.778501 0.159292
H14   H     H_    0.196964 0.055862 0.328738 0.104049
H15   H     H_    0.083812 0.928195 0.193109 0.137178
H16   H     H_    0.403900 0.508984 0.730451 0.114116
H17   H     H_    0.560771 0.261893 0.816241 0.125357
H18   H     H_    0.503171 0.093441 0.682038 0.141063
H19   H     H_    0.251077 0.147964 0.746682 0.118810
H20   H     H_    0.094022 0.393014 0.659213 0.114389
O1    O     O_R   0.751220 0.499230 0.435170 -0.524583
O2    O     O_R   0.412990 0.180750 0.091610 -0.520189
O3    O     O_R   0.366620 0.943130 0.065760 -0.505659
O4    O     O_R   0.477220 0.727600 0.436870 -0.505355
O5    O     O_R   0.160510 0.906330 0.879210 -0.497457
O6    O     O_R   0.930190 0.179050 0.889450 -0.506565
O7    O     O_R   0.909140 0.398170 0.896710 -0.496683
O8    O     O_R   0.186190 0.363460 0.918830 -0.467600
O9    O     O_R   0.401670 0.173200 0.913310 -0.526563
O10   O     O_R   0.356120 0.936130 0.900470 -0.497923
O11   O     O_3   0.162740 0.163010 0.985530 -0.268415
O12   O     O_R   0.297880 0.469080 0.560050 -0.509982
O13   O     O_R   0.258650 0.745120 0.411470 -0.521374
O14   O     O_R   0.297070 0.467240 0.395960 -0.505010
O15   O     O_R   0.488830 0.252610 0.387790 -0.510198
O16   O     O_R   0.724400 0.302390 0.420980 -0.500373
O17   O     O_R   0.752100 0.501210 0.612190 -0.515520
O18   O     O_R   0.478040 0.729440 0.600970 -0.493548
O19   O     O_R   0.259530 0.747110 0.588490 -0.523089
O20   O     O_3   0.134771 0.585453 0.805570 -0.545795
O21   O     O_R   0.489720 0.254590 0.564810 -0.515004
O22   O     O_R   0.725220 0.304230 0.585080 -0.498090
O23   O     O_3   0.500010 0.500010 0.500020 -0.255668
O24   O     O_R   0.171830 0.913880 0.057510 -0.516366
O25   O     O_R   0.940690 0.186050 0.054730 -0.506462
O26   O     O_R   0.920470 0.405720 0.075010 -0.516638
O27   O     O_R   0.196690 0.370460 0.084120 -0.496424

loop_
_geom_bond_atom_site_label_1
_geom_bond_atom_site_label_2
_ccdc_geom_bond_type
C11   C18   S    
C17   H20   S    
Cr5   O26   S    
C34   C37   S    
C41   C42   S    
Cr5   O7    S    
C13   C32   S    
C35   C36   T    
C6    C9    S    
C7    C8    S    
C29   O7    A    
C15   C19   S    
C32   O12   A    
C12   C23   S    
C5    H9    S    
C6    H12   S    
C3    C7    S    
C33   O22   A    
C5    C6    S    
C37   H2    S    
Cr3   O23   S    
C23   C40   S    
C12   C37   S    
Cr6   O9    S    
C18   C19   S    
C37   C42   S    
Cr2   O23   S    
C41   H6    S    
C30   O8    A    
C32   O21   A    
Cr2   O13   S    
C8    C9    S    
Cr6   O3    S    
C28   O19   A    
C14   H18   S    
Cr1   O1    S    
Cr1   O18   S    
C2    C43   S    
Cr1   O23   S    
Cr3   O16   S    
C5    C43   S    
C4    C35   S    
C25   O25   A    
C22   C28   S    
C13   C14   S    
C26   O2    A    
Cr2   O14   S    
Cr4   O11   S    
Cr1   O17   S    
C39   C42   S    
C10   H17   S    
C26   O27   A    
Cr2   O12   S    
C9    C43   S    
C34   C39   S    
Cr2   O19   S    
C16   O1    A    
C10   C14   S    
C39   C40   S    
C31   O5    A    
Cr3   O22   S    
C1    O13   A    
C21   C29   S    
Cr6   O10   S    
C1    C3    S    
Cr5   O8    S    
C33   O17   A    
C12   C41   S    
C4    O15   A    
C10   C19   S    
C23   C34   S    
C28   O18   A    
C17   C18   S    
Cr4   O24   S    
C7    H14   S    
C8    H15   S    
C38   H11   S    
C20   C33   S    
C26   C36   S    
C40   C41   S    
C25   O26   A    
C16   C23   S    
C40   H5    S    
C16   O16   A    
C22   C24   T    
C27   O24   A    
C29   O6    A    
C9    C27   S    
C15   C17   S    
Cr5   O27   S    
C18   O20   S    
C2    C8    S    
Cr4   O5    S    
C3    C5    S    
C25   C42   S    
C12   H1    S    
C31   O10   A    
C6    C7    S    
Cr3   O21   S    
C34   H3    S    
Cr6   O11   S    
C13   C17   S    
C38   O20   S    
Cr5   O11   S    
C2    C3    S    
C24   C31   S    
C1    O4    A    
C2    H7    S    
C11   C13   S    
C39   H4    S    
C4    O14   A    
C15   H19   S    
Cr4   O25   S    
Cr3   O15   S    
Cr1   O4    S    
C10   C11   S    
C43   H8    S    
Cr4   O6    S    
C38   H10   S    
C30   O9    A    
C20   C21   T    
Cr6   O2    S    
C14   C15   S    
C19   C30   S    
C27   O3    A    
C11   H16   S    
C38   H13   S    
