data_mof_unit_35282.cif
_audit_creation_date              2013-03-05T16:33:42-0500
_audit_creation_method            fapswitch 2.2
_symmetry_space_group_name_H-M    P1
_symmetry_Int_Tables_number       1
_space_group_crystal_system       triclinic
_cell_length_a                    9.074282
_cell_length_b                    10.800431
_cell_length_c                    9.566771
_cell_angle_alpha                 90.008757
_cell_angle_beta                  89.885813
_cell_angle_gamma                 90.313301
_cell_volume                      937.586568175

loop_
_atom_site_label
_atom_site_type_symbol
_atom_site_description
_atom_site_fract_x
_atom_site_fract_y
_atom_site_fract_z
_atom_type_partial_charge
O1    O     O_R   0.500000 0.319640 0.618810 -0.548145
O2    O     O_R   0.500020 0.319680 0.381230 -0.568994
C1    C     C_R   0.494583 0.262659 0.500086 0.876389
O3    O     O_R   0.288380 0.499980 0.618770 -0.533135
O4    O     O_R   0.288400 0.500020 0.381190 -0.559179
C2    C     C_R   0.220739 0.500107 0.500064 0.884470
Cu1   Cu    Cu3+1 0.499990 0.499980 0.640670 1.048996
Cu2   Cu    Cu3+1 0.500010 0.500020 0.359330 1.096462
O5    O     O_R   0.499980 0.680320 0.618770 -0.609145
O6    O     O_R   0.500000 0.680360 0.381190 -0.477095
O7    O     O_R   0.711600 0.499980 0.618810 -0.582671
O8    O     O_R   0.711620 0.500020 0.381230 -0.560653
C3    C     C_R   0.499075 0.737501 0.499978 0.904132
C4    C     C_R   0.779248 0.500010 0.499937 0.845901
C5    C     C_1   0.065559 0.500021 0.500099 -0.049909
C6    C     C_1   0.934420 0.499960 0.499885 -0.061292
C7    C     C_R   0.554457 0.065034 0.606773 0.052941
C8    C     C_R   0.480731 0.129453 0.502386 -0.236966
C9    C     C_R   0.393592 0.063220 0.404671 0.214709
C10   C     C_R   0.399459 0.933064 0.404181 0.625210
C11   C     C_R   0.489036 0.870672 0.500936 -0.219423
C12   C     C_R   0.558900 0.937768 0.606207 -0.065188
C13   C     C_3   0.716862 0.937898 0.652818 0.172589
C14   C     C_3   0.710491 0.078536 0.654141 -0.432725
H1    H     H_    0.733089 0.897668 0.758312 0.130770
H2    H     H_    0.717418 0.118290 0.761119 0.203143
H3    H     H_    0.781998 0.125163 0.575327 0.218189
C15   C     C_R   0.611860 0.555676 0.073159 0.102601
N1    N     N_R   0.500920 0.500930 0.147930 -0.235666
C16   C     C_R   0.398575 0.433813 0.074749 -0.079782
H4    H     H_    0.314910 0.382004 0.130662 0.209250
C17   C     C_R   0.398635 0.433465 0.926064 0.712143
N2    N     N_R   0.500930 0.500890 0.852020 -0.226524
C18   C     C_R   0.612324 0.554898 0.926009 0.008357
C19   C     C_3   0.660191 0.686583 0.917002 -0.527755
C20   C     C_3   0.657120 0.688920 0.075403 1.116280
H5    H     H_    0.772790 0.695720 0.872069 0.214050
H6    H     H_    0.575187 0.746734 0.869076 0.211157
N3    N     N_R   0.299208 0.126115 0.307654 0.158439
O9    O     O_R   0.285179 0.085807 0.180162 -0.230261
O10   O     O_R   0.215225 0.215800 0.350390 -0.372238
F1    F     F_    0.794406 0.707276 0.134912 -0.605513
F2    F     F_    0.550181 0.767389 0.127337 -0.592769
F3    F     F_    0.316352 0.867674 0.311711 -0.546798
N4    N     N_R   0.818262 0.888648 0.547440 0.150640
O11   O     O_R   0.914317 0.805602 0.583178 -0.347415
O12   O     O_R   0.813764 0.926459 0.418264 -0.266472
F4    F     F_    0.294492 0.366812 0.857583 -0.621105

loop_
_geom_bond_atom_site_label_1
_geom_bond_atom_site_label_2
_geom_bond_distance
_ccdc_geom_bond_type
O4    Cu2   1.931149 S    
C16   C17   1.422444 A    
C13   C14   1.520418 S    
N1    C16   1.368643 A    
C13   N4    1.465407 S    
C7    C12   1.375347 A    
Cu1   N2    2.021995 S    
C20   F1    1.383999 S    
C19   C20   1.515794 S    
C14   H3    1.112539 S    
Cu2   O8    1.932021 S    
C17   N2    1.372538 A    
N4    O12   1.302375 A    
C7    C8    1.391726 A    
C15   C18   1.407770 A    
Cu1   Cu2   2.691514 S    
N3    O10   1.301116 A    
O1    Cu1   1.958913 S    
N4    O11   1.300361 A    
Cu1   O7    1.931150 S    
C17   F4    1.354768 S    
C16   H4    1.081407 S    
C9    N3    1.437402 S    
O3    Cu1   1.932020 S    
Cu2   N1    2.022442 S    
O3    C2    1.291969 A    
C15   N1    1.365828 A    
C19   H5    1.111603 S    
O8    C4    1.291922 A    
O2    C1    1.293941 A    
C13   H1    1.109260 S    
O4    C2    1.291322 A    
O7    C4    1.291252 A    
C4    C6    1.408072 S    
C7    C14   1.493872 S    
C3    C11   1.441720 S    
C5    C6    1.189996 T    
C19   H6    1.110961 S    
N2    C18   1.363569 A    
C10   C11   1.407397 A    
C15   C20   1.494553 S    
C1    C8    1.443643 S    
Cu2   O6    1.958913 S    
C18   C19   1.487295 S    
N3    O9    1.301238 A    
Cu1   O5    1.959019 S    
O5    C3    1.293563 A    
C12   C13   1.501991 S    
C8    C9    1.416830 A    
C20   F2    1.383367 S    
C10   F3    1.358944 S    
C2    C5    1.408144 S    
C11   C12   1.392340 A    
O2    Cu2   1.959017 S    
C9    C10   1.407055 A    
C14   H2    1.111547 S    
O1    C1    1.292631 A    
O6    C3    1.293130 A    
