data_mof_unit_41594.cif
_audit_creation_date              2012-12-10T17:35:44-0500
_audit_creation_method            fapswitch 2.2
_symmetry_space_group_name_H-M    P1
_symmetry_Int_Tables_number       1
_space_group_crystal_system       triclinic
_cell_length_a                    10.516821
_cell_length_b                    12.002314
_cell_length_c                    12.858355
_cell_angle_alpha                 93.409995
_cell_angle_beta                  90.131311
_cell_angle_gamma                 85.924286
_cell_volume                      1616.0869416

loop_
_atom_site_label
_atom_site_type_symbol
_atom_type_description
_atom_site_fract_x
_atom_site_fract_y
_atom_site_fract_z
_atom_type_partial_charge
C1    C     C_R   0.497484 0.522119 0.700415 0.880537
C2    C     C_R   0.502515 0.477881 0.299585 0.880536
C3    C     C_R   0.469915 0.444214 0.867639 -0.283169
C4    C     C_R   0.530084 0.555786 0.132361 -0.283170
C5    C     C_R   0.481350 0.450103 0.974310 0.186237
C6    C     C_R   0.518650 0.549897 0.025690 0.186238
C7    C     C_R   0.374048 0.955282 0.406961 0.118760
C8    C     C_R   0.625958 0.044716 0.593030 0.118770
C9    C     C_R   0.388026 0.838667 0.415978 0.000944
C10   C     C_R   0.611981 0.161331 0.584014 0.000940
C11   C     C_R   0.554429 0.857133 0.538787 -0.068935
C12   C     C_R   0.445567 0.142868 0.461216 -0.068939
C13   C     C_R   0.545892 0.975120 0.533516 0.022806
C14   C     C_R   0.454104 0.024880 0.466484 0.022794
C15   C     C_R   0.742410 0.499853 0.500222 0.916137
C16   C     C_R   0.257590 0.500147 0.499777 0.916136
C17   C     C_3   0.967511 0.393490 0.508673 -0.237333
C18   C     C_3   0.032489 0.606510 0.491327 -0.237332
C19   C     C_3   0.045275 0.461135 0.588912 0.185351
C20   C     C_3   0.954725 0.538864 0.411088 0.185351
C21   C     C_3   0.123036 0.500753 0.499755 -0.085149
C22   C     C_3   0.876964 0.499247 0.500245 -0.085149
C23   C     C_3   0.046597 0.434609 0.419391 0.189678
C24   C     C_3   0.953403 0.565391 0.580609 0.189678
C25   C     C_R   0.502264 0.464389 0.188238 -0.052640
C26   C     C_R   0.497736 0.535611 0.811762 -0.052639
C27   C     C_R   0.542953 0.642519 0.969780 -0.218455
C28   C     C_R   0.457047 0.357481 0.030220 -0.218455
C29   C     C_R   0.532453 0.635380 0.862336 -0.206916
C30   C     C_R   0.467546 0.364620 0.137664 -0.206915
H1    H     H_    0.938326 0.307141 0.515766 0.165001
H2    H     H_    0.061674 0.692859 0.484234 0.165003
H3    H     H_    0.558793 0.632363 0.171959 0.162011
H4    H     H_    0.441206 0.367637 0.828041 0.162011
H5    H     H_    0.445430 0.293806 0.181130 0.159708
H6    H     H_    0.554570 0.706194 0.818870 0.159710
H7    H     H_    0.571196 0.719382 0.008872 0.141632
H8    H     H_    0.428804 0.280618 0.991128 0.141631
H9    H     H_    0.377324 0.184115 0.410696 0.148757
H10   H     H_    0.622669 0.815887 0.589310 0.148759
H11   H     H_    0.672331 0.215821 0.628582 0.138123
H12   H     H_    0.327685 0.784176 0.371401 0.138125
N1    N     N_R   0.523490 0.207800 0.519350 -0.123124
N2    N     N_R   0.476510 0.792200 0.480650 -0.123126
O1    O     O_R   0.506270 0.421700 0.658830 -0.626807
O2    O     O_R   0.493730 0.578300 0.341170 -0.626809
O3    O     O_R   0.491200 0.609310 0.646410 -0.624241
O4    O     O_R   0.508800 0.390690 0.353590 -0.624240
O5    O     O_R   0.693580 0.406210 0.506230 -0.632129
O6    O     O_R   0.306420 0.593790 0.493770 -0.632127
O7    O     O_R   0.678510 0.593830 0.493810 -0.618735
O8    O     O_R   0.321490 0.406170 0.506190 -0.618735
Zn1   Zn    Zn3+2 0.510060 0.374730 0.508290 0.934984
Zn2   Zn    Zn3+2 0.489940 0.625270 0.491710 0.934984
C31   C     C_3   0.100226 0.417685 0.689600 -0.898034
H13   H     H_    0.021524 0.397259 0.740918 0.244129
H14   H     H_    0.163881 0.341188 0.671868 0.249679
H15   H     H_    0.155619 0.482561 0.730135 0.238218
C32   C     C_3   0.899774 0.582315 0.310400 -0.898033
H16   H     H_    0.978476 0.602741 0.259082 0.244129
H17   H     H_    0.844381 0.517439 0.269865 0.238217
H18   H     H_    0.836119 0.658812 0.328132 0.249680
C33   C     C_3   0.102901 0.361021 0.328018 -0.903290
H19   H     H_    0.024862 0.325976 0.281101 0.248437
H20   H     H_    0.159822 0.411435 0.278316 0.237510
H21   H     H_    0.165296 0.291346 0.357374 0.240610
C34   C     C_3   0.897098 0.638979 0.671982 -0.903291
H22   H     H_    0.975138 0.674025 0.718898 0.248437
H23   H     H_    0.834702 0.708653 0.642625 0.240610
H24   H     H_    0.840178 0.588565 0.721685 0.237510
C35   C     C_3   0.273996 0.002695 0.334495 -0.966733
H25   H     H_    0.319776 0.048392 0.273748 0.244755
H26   H     H_    0.220537 0.935963 0.294645 0.244229
H27   H     H_    0.204479 0.060768 0.379240 0.247463
C36   C     C_3   0.726041 0.997299 0.665465 -0.966734
H28   H     H_    0.795523 0.939201 0.620711 0.247458
H29   H     H_    0.779541 0.064030 0.705274 0.244220
H30   H     H_    0.680288 0.951633 0.726247 0.244759

loop_
_geom_bond_atom_site_label_1
_geom_bond_atom_site_label_2
_ccdc_geom_bond_type
C31   H13   S    
C33   H20   S    
C16   C21   S    
C27   C29   A    
C18   C21   S    
C4    C25   A    
C2    O2    A    
C29   H6    S    
C9    H12   S    
C17   C23   S    
C30   H5    S    
C18   C24   S    
C19   C21   S    
C16   O6    A    
C12   N1    A    
C7    C35   S    
C5    C6    A    
C24   C34   S    
N1    Zn1   S    
C15   C22   S    
C32   H18   S    
C15   O7    A    
C23   C33   S    
C33   H21   S    
O1    Zn1   S    
C32   H16   S    
C13   C14   A    
C10   H11   S    
C7    C14   A    
C21   C23   S    
O4    Zn1   S    
C32   H17   S    
C34   H22   S    
C4    C6    A    
C35   H26   S    
C1    O3    A    
C3    H4    S    
C2    O4    A    
C8    C36   S    
C34   H23   S    
C36   H28   S    
C5    C28   A    
C6    C27   A    
C20   C23   S    
C28   H8    S    
O2    Zn2   S    
C11   N2    A    
O6    Zn2   S    
C20   C32   S    
C36   H29   S    
O3    Zn2   S    
C12   C14   A    
C31   H14   S    
C1    C26   S    
C17   H1    S    
C22   C24   S    
C18   H2    S    
O8    Zn1   S    
C19   C31   S    
C25   C30   A    
C7    C9    A    
C4    H3    S    
C9    N2    A    
C10   N1    A    
C3    C26   A    
C16   O8    A    
C20   C22   S    
C3    C5    A    
C35   H27   S    
C17   C22   S    
O7    Zn2   S    
C34   H24   S    
C12   H9    S    
C28   C30   A    
C19   C24   S    
C35   H25   S    
C11   C13   A    
C1    O1    A    
C27   H7    S    
O5    Zn1   S    
C17   C19   S    
C2    C25   S    
C18   C20   S    
C15   O5    A    
C11   H10   S    
C36   H30   S    
C33   H19   S    
C8    C13   A    
N2    Zn2   S    
C26   C29   A    
C8    C10   A    
C31   H15   S    
