data_mof_unit_54630.cif
_audit_creation_date              2012-12-10T19:44:28-0500
_audit_creation_method            fapswitch 2.2
_symmetry_space_group_name_H-M    P1
_symmetry_Int_Tables_number       1
_space_group_crystal_system       triclinic
_cell_length_a                    10.838947
_cell_length_b                    12.28784
_cell_length_c                    13.201254
_cell_angle_alpha                 116.484468
_cell_angle_beta                  77.253953
_cell_angle_gamma                 101.093647
_cell_volume                      1526.0123932

loop_
_atom_site_label
_atom_site_type_symbol
_atom_type_description
_atom_site_fract_x
_atom_site_fract_y
_atom_site_fract_z
_atom_type_partial_charge
C1    C     C_R   0.515836 0.854807 0.286569 0.768424
C2    C     C_R   0.642928 0.758346 0.742739 -0.099036
C3    C     C_R   0.039612 0.940407 0.553864 -0.231715
C4    C     C_R   0.129406 0.999990 0.495949 -0.100626
C5    C     C_R   0.089249 0.061700 0.442292 0.023859
C6    C     C_R   0.959897 0.060011 0.447139 -0.186627
C7    C     C_R   0.870264 0.001111 0.505471 -0.098423
C8    C     C_R   0.910149 0.941465 0.561118 -0.001777
C9    C     C_R   0.174904 0.256947 0.419882 0.189493
C10   C     C_R   0.257800 0.318875 0.360007 -0.214219
C11   C     C_R   0.345401 0.257073 0.265603 -0.212469
C12   C     C_R   0.736987 0.000886 0.502685 0.780156
C13   C     C_R   0.349189 0.131099 0.226321 0.049767
C14   C     C_R   0.262589 0.067383 0.282833 -0.194052
C15   C     C_R   0.177366 0.129797 0.381059 0.086435
C16   C     C_R   0.319619 0.283768 0.015903 -0.181973
C17   C     C_R   0.457800 0.227773 0.834304 -0.054651
C18   C     C_R   0.644067 0.807812 0.097240 -0.157411
C19   C     C_R   0.693464 0.723841 0.989480 -0.058252
C20   C     C_R   0.635982 0.602956 0.947622 -0.292365
C21   C     C_R   0.530429 0.563629 0.013385 0.089964
C22   C     C_R   0.479513 0.651423 0.121425 0.085947
C23   C     C_R   0.482150 0.144991 0.713306 0.787710
C24   C     C_R   0.475054 0.439539 0.976651 0.092958
C25   C     C_R   0.371989 0.406111 0.048676 0.156976
C26   C     C_R   0.318889 0.495458 0.150702 -0.254982
C27   C     C_R   0.368904 0.616683 0.184565 -0.190200
C28   C     C_R   0.516867 0.347440 0.869681 -0.245167
C29   C     C_R   0.362806 0.194685 0.909215 -0.164793
C30   C     C_R   0.540818 0.772146 0.164741 -0.081682
C31   C     C_R   0.701478 0.344915 0.325938 -0.256760
C32   C     C_R   0.328138 0.760373 0.646526 0.079607
C33   C     C_R   0.291384 0.664127 0.678941 -0.246251
C34   C     C_R   0.262888 0.999417 0.497710 0.789456
C35   C     C_R   0.356280 0.560401 0.623843 -0.227541
C36   C     C_R   0.459129 0.551591 0.534849 -0.009605
C37   C     C_R   0.493240 0.652648 0.504575 0.295887
C38   C     C_R   0.529646 0.447139 0.475229 -0.040692
C39   C     C_R   0.631495 0.445785 0.386483 0.151809
C40   C     C_R   0.663406 0.545193 0.358751 -0.288243
C41   C     C_R   0.596533 0.646564 0.417029 -0.167648
C42   C     C_R   0.503561 0.342760 0.498883 0.036009
C43   C     C_R   0.670818 0.245359 0.353323 0.096126
C44   C     C_R   0.640761 0.882988 0.775722 -0.068171
C45   C     C_R   0.731053 0.944415 0.720261 -0.064046
C46   C     C_R   0.820970 0.879916 0.627629 0.115264
C47   C     C_R   0.824215 0.755089 0.596828 -0.125939
C48   C     C_R   0.735853 0.694901 0.654633 -0.096606
Cu1   Cu    Cu3+1 0.529370 0.098270 0.475420 0.942274
Cu2   Cu    Cu3+1 0.470630 0.901730 0.524580 0.922298
H1    H     H_    0.572908 0.711001 0.785756 0.145220
H2    H     H_    0.410782 0.308431 0.223727 0.195995
H3    H     H_    0.263851 0.969848 0.253072 0.149384
H4    H     H_    0.316347 0.102038 0.882506 0.149396
H5    H     H_    0.236745 0.471814 0.203828 0.144528
H6    H     H_    0.241836 0.257863 0.071060 0.141227
H7    H     H_    0.591421 0.366315 0.809004 0.144830
H8    H     H_    0.691936 0.899903 0.131992 0.165086
H9    H     H_    0.675190 0.542231 0.863141 0.128258
H10   H     H_    0.568193 0.931589 0.843425 0.145803
H11   H     H_    0.319177 0.682885 0.261128 0.165886
H12   H     H_    0.723963 0.166783 0.306717 0.123777
H13   H     H_    0.741948 0.545253 0.291693 0.155168
H14   H     H_    0.779251 0.343062 0.257802 0.144780
H15   H     H_    0.427524 0.335346 0.564212 0.125753
H16   H     H_    0.277659 0.840837 0.690014 0.133942
H17   H     H_    0.323938 0.488821 0.652600 0.142083
H18   H     H_    0.212501 0.670010 0.747093 0.180979
H19   H     H_    0.630655 0.718801 0.391063 0.205686
H20   H     H_    0.727976 0.041004 0.746473 0.104729
H21   H     H_    0.893187 0.703781 0.526361 0.125297
H22   H     H_    0.737914 0.598492 0.629720 0.138458
H23   H     H_    0.070246 0.895625 0.597269 0.166410
H24   H     H_    0.929284 0.104312 0.403272 0.168157
H25   H     H_    0.256898 0.416093 0.388107 0.151708
N1    N     N_R   0.573890 0.246290 0.438210 -0.189332
N2    N     N_R   0.426890 0.754320 0.561170 -0.208916
O1    O     O_R   0.536940 0.972510 0.318130 -0.572932
O2    O     O_R   0.487330 0.806530 0.359650 -0.606507
O3    O     O_R   0.705160 0.082990 0.479250 -0.584792
O4    O     O_R   0.655550 0.917010 0.520760 -0.595888
O5    O     O_R   0.512670 0.193470 0.640350 -0.584825
O6    O     O_R   0.463060 0.027490 0.681870 -0.591570
O7    O     O_R   0.344450 0.082990 0.479240 -0.578001
O8    O     O_R   0.294840 0.917010 0.520750 -0.594759
C49   C     C_2   0.445815 0.067708 0.128314 0.828005
O9    O     O_2   0.438978 0.956002 0.082879 -0.617504
O10   O     O_R   0.546261 0.136092 0.088500 -0.777654
H26   H     H_    0.609832 0.083360 0.025373 0.334286
C50   C     C_2   0.808523 0.763259 0.923102 0.863265
O11   O     O_2   0.829450 0.870100 0.937607 -0.566696
O12   O     O_R   0.895341 0.682065 0.844966 -0.752301
H27   H     H_    0.882369 0.600147 0.848778 0.285197
N3    N     N_3   0.089483 0.322532 0.520775 -0.598916
H28   H     H_    0.096167 0.414164 0.535088 0.222919
H29   H     H_    0.119571 0.322190 0.590617 0.215880

loop_
_geom_bond_atom_site_label_1
_geom_bond_atom_site_label_2
_ccdc_geom_bond_type
C23   O5    A    
C17   C29   A    
C35   C36   A    
Cu2   O2    S    
C7    C8    A    
C28   H7    S    
C26   C27   A    
C17   C23   S    
C40   H13   S    
C31   C43   A    
Cu1   O7    S    
C32   H16   S    
C36   C37   A    
C38   C42   A    
C5    C6    A    
C49   O10   S    
C29   H4    S    
C33   H18   S    
C16   C25   A    
Cu1   O1    S    
C18   C19   A    
C1    C30   S    
C11   H2    S    
C27   H11   S    
Cu2   O8    S    
C32   N2    A    
C18   H8    S    
C19   C20   A    
C2    C44   A    
C13   C49   S    
C42   H15   S    
C18   C30   A    
C9    C10   A    
C21   C22   A    
C26   H5    S    
C1    O1    A    
C34   O7    A    
C48   H22   S    
Cu2   O6    S    
C6    H24   S    
C7    C12   S    
C4    C34   S    
C24   C25   A    
C3    C8    A    
C2    H1    S    
C39   C40   A    
C49   O9    D    
C2    C48   A    
C25   C26   A    
C45   C46   A    
C37   N2    A    
C34   O8    A    
Cu1   O5    S    
C16   H6    S    
C10   H25   S    
C50   O12   S    
C47   C48   A    
C35   H17   S    
Cu1   N1    S    
C20   C21   A    
C20   H9    S    
N3    H29   S    
C47   H21   S    
C23   O6    A    
C40   C41   A    
C22   C27   A    
C1    O2    A    
C3    C4    A    
Cu2   N2    S    
C44   C45   A    
C41   H19   S    
C43   N1    A    
C46   C47   A    
C22   C30   A    
C45   H20   S    
C17   C28   A    
C31   H14   S    
C24   C28   A    
C4    C5    A    
C43   H12   S    
C6    C7    A    
C42   N1    A    
Cu1   O3    S    
C32   C33   A    
C36   C38   A    
C9    C15   A    
C19   C50   S    
C11   C13   A    
C50   O11   D    
C38   C39   A    
C44   H10   S    
C12   O3    A    
O12   H27   S    
C33   C35   A    
C31   C39   A    
C12   O4    A    
C37   C41   A    
N3    H28   S    
C3    H23   S    
C8    C46   S    
C5    C15   S    
C10   C11   A    
C14   H3    S    
O10   H26   S    
C16   C29   A    
Cu1   Cu2   S    
C21   C24   A    
C14   C15   A    
C13   C14   A    
C9    N3    S    
Cu2   O4    S    
