data_mof_unit_55593.cif
_audit_creation_date              2012-12-10T18:23:13-0500
_audit_creation_method            fapswitch 2.2
_symmetry_space_group_name_H-M    P1
_symmetry_Int_Tables_number       1
_space_group_crystal_system       triclinic
_cell_length_a                    27.620441
_cell_length_b                    11.176231
_cell_length_c                    9.749913
_cell_angle_alpha                 91.164201
_cell_angle_beta                  91.64689
_cell_angle_gamma                 87.929589
_cell_volume                      3005.95711259

loop_
_atom_site_label
_atom_site_type_symbol
_atom_type_description
_atom_site_fract_x
_atom_site_fract_y
_atom_site_fract_z
_atom_type_partial_charge
C1    C     C_R   0.500917 0.259459 0.499150 0.959439
C2    C     C_R   0.875838 0.390495 0.637179 -0.020406
C3    C     C_R   0.354171 0.484900 0.501200 -0.172459
C4    C     C_R   0.647076 0.501288 0.511175 -0.205786
C5    C     C_R   0.978316 0.371358 0.650155 0.048291
C6    C     C_R   0.031361 0.582448 0.654705 0.047993
C7    C     C_R   0.980839 0.589070 0.624472 0.032445
C8    C     C_R   0.029701 0.362901 0.645354 0.028652
C9    C     C_R   0.954165 0.483875 0.628381 0.079724
C10   C     C_R   0.056008 0.469007 0.653133 0.078899
C11   C     C_R   0.950106 0.271758 0.675266 -0.189031
C12   C     C_R   0.497280 0.740257 0.500773 0.944827
C13   C     C_R   0.058274 0.685098 0.685010 -0.182150
C14   C     C_R   0.899724 0.282375 0.673099 -0.107021
C15   C     C_R   0.108462 0.676472 0.702508 -0.116563
C16   C     C_R   0.407675 0.498395 0.498872 0.922264
C17   C     C_R   0.592611 0.499560 0.502271 0.887326
C18   C     C_R   0.055596 0.252364 0.631335 -0.238994
C19   C     C_R   0.956543 0.696512 0.585331 -0.234840
C20   C     C_3   0.528010 0.034315 0.602976 0.368275
C21   C     C_3   0.467867 0.964549 0.397439 0.356486
C22   C     C_3   0.540691 0.945654 0.484146 -0.325199
C23   C     C_R   0.107310 0.462413 0.655800 -0.054075
C24   C     C_3   0.454917 0.053818 0.515560 -0.353236
C25   C     C_3   0.493367 0.878594 0.501318 -0.272447
C26   C     C_3   0.502633 0.120799 0.498666 -0.297945
C27   C     C_3   0.480679 0.967759 0.618932 0.378634
C28   C     C_3   0.514971 0.031058 0.380618 0.351917
C29   C     C_3   0.515287 0.599327 0.052240 0.413138
C30   C     C_3   0.484559 0.401466 0.947446 0.468973
C31   C     C_3   0.472614 0.586075 0.949711 -0.142985
C32   C     C_3   0.527269 0.414614 0.049096 -0.159419
C33   C     C_3   0.542491 0.513923 0.952906 -0.180970
C34   C     C_R   0.903041 0.490878 0.610102 -0.045281
C35   C     C_3   0.457429 0.486985 0.046465 -0.156617
C36   C     C_R   0.182311 0.357309 0.598760 0.601096
C37   C     C_R   0.828666 0.595284 0.535068 0.587444
C38   C     C_R   0.184107 0.559101 0.681274 0.543397
C39   C     C_R   0.825137 0.400612 0.628937 0.546388
C40   C     C_R   0.272120 0.567060 0.521092 -0.168649
C41   C     C_R   0.727491 0.405624 0.490930 -0.120567
C42   C     C_R   0.320606 0.583091 0.493313 0.321296
C43   C     C_R   0.677197 0.397655 0.487546 0.387684
C44   C     C_R   0.336599 0.373444 0.538832 -0.145601
C45   C     C_R   0.132513 0.352826 0.628907 -0.085211
C46   C     C_R   0.670382 0.606598 0.556481 -0.173849
C47   C     C_R   0.292915 0.371757 0.612316 -0.117282
C48   C     C_R   0.720324 0.602706 0.595275 -0.132721
C49   C     C_R   0.257984 0.465870 0.590196 0.156504
C50   C     C_R   0.749814 0.503727 0.552946 0.168838
C51   C     C_2   0.353873 0.264981 0.461457 0.880706
C52   C     C_2   0.645580 0.723984 0.546259 0.924545
C53   C     C_2   0.429597 0.662680 0.906574 1.003419
C54   C     C_2   0.569608 0.335277 0.086203 1.025751
C55   C     C_2   0.593614 0.515746 0.897917 0.924078
C56   C     C_R   0.879256 0.597438 0.564211 -0.089357
C57   C     C_2   0.405824 0.487364 0.097781 0.964311
C58   C     C_2   0.286763 0.281974 0.722208 1.043527
C59   C     C_2   0.740734 0.696191 0.690112 0.947338
C60   C     C_2   0.130401 0.124903 0.618829 0.925093
C61   C     C_2   0.886220 0.816974 0.502733 0.940278
C62   C     C_R   0.106290 0.245843 0.622464 -0.005916
C63   C     C_R   0.907035 0.700816 0.549870 0.002277
C64   C     C_R   0.133417 0.566554 0.681643 -0.018341
Cu1   Cu    Cu3+1 0.500010 0.499990 0.643150 1.135365
Cu2   Cu    Cu3+1 0.499990 0.500010 0.356850 1.127254
H1    H     H_    0.749595 0.328381 0.459498 0.206308
H2    H     H_    0.418839 0.095474 0.534338 0.265571
H3    H     H_    0.398248 0.196569 0.315574 0.371036
H4    H     H_    0.651995 0.890889 0.469149 0.371086
H5    H     H_    0.649296 0.995154 0.762095 0.409104
H6    H     H_    0.345043 0.983849 0.250892 0.390031
H7    H     H_    0.380655 0.013824 0.849898 0.385936
H8    H     H_    0.613000 0.985797 0.138862 0.404899
H9    H     H_    0.383551 0.798385 0.960866 0.367080
H10   H     H_    0.637114 0.327006 0.170021 0.377011
H11   H     H_    0.611058 0.643536 0.178198 0.368026
H12   H     H_    0.245738 0.638364 0.498012 0.189596
H13   H     H_    0.399783 0.182674 0.007765 0.407634
H14   H     H_    0.654438 0.605246 0.868605 0.333899
H15   H     H_    0.341596 0.407898 0.105248 0.343566
H16   H     H_    0.252416 0.399361 0.851634 0.308938
H17   H     H_    0.769923 0.574774 0.822719 0.309914
H18   H     H_    0.184740 0.015437 0.690052 0.365190
H19   H     H_    0.859167 0.914576 0.344743 0.356646
H20   H     H_    0.668974 0.093212 0.358397 0.399563
H21   H     H_    0.287930 0.737523 0.269558 0.338041
H22   H     H_    0.879527 0.204083 0.695352 0.216586
H23   H     H_    0.127798 0.757557 0.724798 0.197744
H24   H     H_    0.966189 0.185717 0.702420 0.157770
H25   H     H_    0.041050 0.772631 0.699050 0.158886
H26   H     H_    0.036817 0.169365 0.622976 0.165374
H27   H     H_    0.976286 0.777157 0.572648 0.150106
H28   H     H_    0.575383 0.900258 0.462565 0.249125
N1    N     N_R   0.207694 0.458698 0.628942 -0.458370
N2    N     N_R   0.802204 0.500425 0.574021 -0.458240
N3    N     N_3   0.500040 0.499970 0.858290 -0.281046
N4    N     N_3   0.499960 0.500030 0.141710 -0.277004
O1    O     O_R   0.500020 0.316850 0.620870 -0.519966
O2    O     O_2   0.806091 0.685870 0.466823 -0.465190
O3    O     O_2   0.799035 0.311133 0.676179 -0.494408
O4    O     O_2   0.209514 0.652998 0.728692 -0.511603
O5    O     O_2   0.330690 0.173993 0.461130 -0.466585
O6    O     O_R   0.393150 0.271099 0.374806 -0.782509
O7    O     O_2   0.611133 0.750570 0.617881 -0.565530
O8    O     O_R   0.664347 0.805590 0.456322 -0.665509
O9    O     O_2   0.581744 0.191935 0.750995 -0.149305
O10   O     O_2   0.563091 0.006740 0.863105 -0.143076
O11   O     O_3   0.627994 0.996880 0.678620 -0.486540
O12   O     O_R   0.499980 0.683150 0.379130 -0.512552
O13   O     O_2   0.429006 0.992495 0.141635 -0.219187
O14   O     O_2   0.420538 0.799338 0.247575 -0.124670
O15   O     O_3   0.366761 0.977661 0.333263 -0.437138
O16   O     O_2   0.415685 0.831995 0.714626 -0.268707
O17   O     O_2   0.476947 0.907033 0.881501 -0.136297
O18   O     O_3   0.405912 0.049518 0.795131 -0.441470
O19   O     O_2   0.517301 0.078387 0.112152 -0.102265
O20   O     O_2   0.575023 0.171307 0.274014 -0.273854
O21   O     O_3   0.591905 0.952614 0.208105 -0.443032
O22   O     O_2   0.400477 0.624436 0.821615 -0.538870
O23   O     O_R   0.500000 0.316860 0.379090 -0.542634
O24   O     O_R   0.417083 0.763777 0.985156 -0.611285
O25   O     O_2   0.576285 0.241918 0.021512 -0.441622
O26   O     O_R   0.606469 0.379407 0.171881 -0.743078
O27   O     O_2   0.565259 0.789937 0.984952 -0.158536
O28   O     O_2   0.508004 0.817737 0.164669 -0.153801
O29   O     O_3   0.588448 0.701245 0.223860 -0.483997
O30   O     O_2   0.414163 0.301602 0.794475 -0.286505
O31   O     O_2   0.489363 0.182468 0.833074 -0.170415
O32   O     O_3   0.432558 0.208910 0.035292 -0.442806
O33   O     O_2   0.611577 0.424262 0.847029 -0.523146
O34   O     O_R   0.500000 0.683140 0.620910 -0.553584
O35   O     O_R   0.621004 0.618038 0.907816 -0.693323
O36   O     O_2   0.389692 0.576177 0.158057 -0.505220
O37   O     O_R   0.375108 0.393796 0.066911 -0.715776
O38   O     O_2   0.306540 0.182825 0.714588 -0.451294
O39   O     O_R   0.260533 0.310821 0.839793 -0.708016
O40   O     O_2   0.733437 0.802377 0.667320 -0.457264
O41   O     O_R   0.768631 0.664077 0.806481 -0.706038
O42   O     O_2   0.112784 0.044588 0.548789 -0.591345
O43   O     O_R   0.172034 0.101314 0.700296 -0.685237
O44   O     O_2   0.882936 0.901784 0.583526 -0.568813
O45   O     O_R   0.430270 0.500020 0.620880 -0.533177
O46   O     O_R   0.872351 0.830717 0.364789 -0.690553
O47   O     O_2   0.682167 0.188207 0.605457 -0.198833
O48   O     O_2   0.603714 0.250505 0.503816 -0.264453
O49   O     O_3   0.673079 0.179169 0.340771 -0.519062
O50   O     O_2   0.306656 0.819254 0.528728 -0.196565
O51   O     O_2   0.388440 0.744031 0.479715 -0.220078
O52   O     O_3   0.323479 0.744800 0.280094 -0.444692
O53   O     O_R   0.569730 0.499980 0.379120 -0.534911
O54   O     O_R   0.430250 0.500030 0.379090 -0.540187
O55   O     O_R   0.569750 0.499970 0.620910 -0.549511
O56   O     O_2   0.204121 0.264558 0.531551 -0.485030
S1    S     S_3+6 0.575401 0.060195 0.729450 0.170564
S2    S     S_3+6 0.420830 0.931640 0.273847 0.130385
S3    S     S_3+6 0.445040 0.936003 0.758965 0.121929
S4    S     S_3+6 0.549381 0.060420 0.237031 0.131064
S5    S     S_3+6 0.544349 0.731639 0.105942 0.145558
S6    S     S_3+6 0.454564 0.270641 0.895564 0.129610
S7    S     S_3+6 0.657188 0.250899 0.486779 0.075630
S8    S     S_3+6 0.335833 0.727328 0.448458 0.113351

loop_
_geom_bond_atom_site_label_1
_geom_bond_atom_site_label_2
_ccdc_geom_bond_type
C33   C55   S    
C54   O25   D    
C3    C42   A    
C34   C56   A    
C23   C45   A    
C20   S1    S    
C29   C33   S    
H9    O24   S    
C41   C43   A    
C11   H24   S    
C24   C27   S    
C17   O55   A    
H20   O49   S    
C1    O1    A    
C12   O12   A    
C53   O22   D    
C36   O56   S    
C29   S5    S    
C4    C46   A    
O28   S5    D    
C30   S6    S    
H8    O21   S    
C30   N3    S    
O30   S6    D    
C5    C9    A    
H7    O18   S    
C21   C25   S    
C29   N4    S    
O17   S3    D    
C42   S8    S    
C60   C62   S    
C24   C26   S    
C5    C11   A    
H16   O39   S    
C53   O24   S    
Cu1   O45   S    
C11   C14   A    
C51   O5    D    
C40   C49   A    
C46   C52   S    
C45   C62   A    
O32   S6    S    
C32   C54   S    
C61   C63   S    
Cu1   O55   S    
C37   C56   A    
C2    C39   A    
C19   C63   A    
C22   C25   S    
C38   N1    A    
C15   C64   A    
C39   O3    S    
C55   O33   D    
C35   N4    S    
O13   S2    D    
C33   N3    S    
C19   H27   S    
C44   C47   A    
C2    C34   A    
C40   C42   A    
C52   O8    S    
C22   C28   S    
C13   H25   S    
C22   H28   S    
O31   S6    D    
C17   O53   A    
C2    C14   A    
H19   O46   S    
H17   O41   S    
H15   O37   S    
C38   C64   A    
O52   S8    S    
O48   S7    D    
C46   C48   A    
C3    C44   A    
C56   C63   A    
H10   O26   S    
C16   O45   A    
Cu1   O1    S    
C47   C49   A    
O49   S7    S    
C18   C62   A    
C14   H22   S    
C59   O40   D    
C58   O38   D    
C51   O6    S    
C55   O35   S    
H13   O32   S    
H6    O15   S    
H21   O52   S    
C8    C18   A    
H14   O35   S    
C37   N2    A    
O16   S3    D    
Cu2   O54   S    
C60   O43   S    
C15   H23   S    
C61   O46   S    
C59   O41   S    
C28   S4    S    
Cu2   O23   S    
C36   C45   A    
C16   O54   A    
C31   C53   S    
C60   O42   D    
C4    C17   S    
C43   S7    S    
C44   C51   S    
C8    C10   A    
C23   C64   A    
C20   C27   S    
C21   C28   S    
C20   C22   S    
C52   O7    D    
C7    C19   A    
C13   C15   A    
H4    O8    S    
C9    C34   A    
C40   H12   S    
C57   O36   D    
O20   S4    D    
C27   S3    S    
O15   S2    S    
O29   S5    S    
C41   C50   A    
Cu1   O34   S    
C58   O39   S    
C48   C59   S    
H3    O6    S    
C7    C9    A    
C54   O26   S    
C12   O34   A    
O19   S4    D    
C20   C26   S    
H11   O29   S    
C6    C10   A    
C5    C8    A    
O27   S5    D    
C6    C7    A    
C4    C43   A    
C10   C23   A    
C25   C27   S    
C30   C35   S    
C26   C28   S    
C12   C25   S    
C35   C57   S    
C18   H26   S    
C32   C33   S    
Cu2   N4    S    
O50   S8    D    
Cu2   O53   S    
C29   C31   S    
C47   C58   S    
C30   C32   S    
C36   N1    A    
C50   N2    S    
C1    C26   S    
O10   S1    D    
O47   S7    D    
H18   O43   S    
O21   S4    S    
H5    O11   S    
C48   C50   A    
C21   S2    S    
C32   N4    S    
C31   C35   S    
C31   N3    S    
C41   H1    S    
O11   S1    S    
C1    O23   A    
C39   N2    A    
C24   H2    S    
Cu1   N3    S    
C61   O44   D    
O18   S3    S    
Cu2   O12   S    
C38   O4    S    
Cu1   Cu2   S    
O14   S2    D    
C21   C24   S    
C57   O37   S    
O51   S8    D    
C37   O2    S    
O9    S1    D    
C3    C16   S    
C49   N1    S    
C6    C13   A    
