data_mof_unit_30620.cif
_audit_creation_date              2012-12-11T17:08:34-0500
_audit_creation_method            fapswitch 2.2
_symmetry_space_group_name_H-M    P1
_symmetry_Int_Tables_number       1
_space_group_crystal_system       triclinic
_cell_length_a                    6.970494
_cell_length_b                    14.514849
_cell_length_c                    16.088323
_cell_angle_alpha                 89.999283
_cell_angle_beta                  89.9988
_cell_angle_gamma                 89.994595
_cell_volume                      1627.74681663

loop_
_atom_site_label
_atom_site_type_symbol
_atom_type_description
_atom_site_fract_x
_atom_site_fract_y
_atom_site_fract_z
_atom_type_partial_charge
O1    O     O_R   0.505700 0.583890 0.413310 -0.536719
O2    O     O_R   0.175960 0.594920 0.586080 -0.542127
O3    O     O_R   0.005660 0.416110 0.586690 -0.536391
C1    C     C_R   0.344683 0.616912 0.614819 0.695356
O4    O     O_R   0.175980 0.594920 0.413930 -0.542753
O5    O     O_R   0.005680 0.416110 0.413310 -0.539724
C2    C     C_R   0.344709 0.616965 0.385227 0.692882
O6    O     O_R   0.505680 0.583890 0.586690 -0.536366
O7    O     O_3   0.339200 0.441330 0.500000 -0.369903
V1    V     V_3+5 0.064350 0.510880 0.500000 1.385121
O8    O     O_R   0.675960 0.405080 0.413920 -0.539582
C3    C     C_R   0.845003 0.383201 0.385079 0.692566
O9    O     O_R   0.675940 0.405080 0.586070 -0.543100
C4    C     C_R   0.844713 0.383088 0.614799 0.694070
V2    V     V_3+5 0.564340 0.489120 0.500000 1.387922
O10   O     O_3   0.839360 0.558670 0.500000 -0.369790
C5    C     C_R   0.007184 0.317157 0.741226 0.098528
C6    C     C_R   0.852676 0.317623 0.685488 -0.112144
C7    C     C_R   0.700979 0.255988 0.701392 -0.179525
C8    C     C_R   0.712181 0.191787 0.766924 -0.178347
H1    H     H_    0.597212 0.142508 0.774579 0.128049
C9    C     C_R   0.875742 0.187042 0.818352 -0.111254
C10   C     C_R   0.018713 0.253371 0.805834 0.101189
C11   C     C_3   0.228976 0.240761 0.793767 -0.409488
C12   C     C_3   0.216542 0.310650 0.723681 -0.398224
H2    H     H_    0.264614 0.170122 0.772038 0.166812
H3    H     H_    0.313371 0.265630 0.847922 0.174460
H4    H     H_    0.245762 0.280774 0.661331 0.171135
H5    H     H_    0.293003 0.376103 0.737468 0.167248
C13   C     C_R   0.727529 0.182788 0.241289 0.101552
C14   C     C_R   0.881979 0.182364 0.185514 -0.112866
C15   C     C_R   0.033647 0.244018 0.201407 -0.180090
H6    H     H_    0.156274 0.246084 0.160396 0.133506
C16   C     C_R   0.022429 0.308219 0.266938 -0.179716
H7    H     H_    0.137379 0.357510 0.274580 0.127144
C17   C     C_R   0.858877 0.312954 0.318377 -0.111130
C18   C     C_R   0.715980 0.246578 0.305893 0.102574
C19   C     C_3   0.505674 0.259094 0.293891 -0.410433
C20   C     C_3   0.518129 0.189193 0.223812 -0.398362
H8    H     H_    0.469876 0.329714 0.272161 0.165891
H9    H     H_    0.421411 0.234200 0.348077 0.175536
H10   H     H_    0.488747 0.219040 0.161466 0.170224
H11   H     H_    0.441831 0.123706 0.237639 0.168773
C21   C     C_R   0.509085 0.747365 0.689648 0.102863
C22   C     C_R   0.352685 0.687464 0.681401 -0.111755
C23   C     C_R   0.200253 0.698152 0.738064 -0.179543
H12   H     H_    0.076976 0.653285 0.734373 0.131060
C24   C     C_R   0.211874 0.762066 0.803881 -0.180446
H13   H     H_    0.096095 0.765355 0.848487 0.129539
C25   C     C_R   0.376925 0.816686 0.815346 -0.109456
C26   C     C_R   0.520994 0.810298 0.754963 0.098699
C27   C     C_3   0.730389 0.793799 0.765679 -0.415859
C28   C     C_3   0.717497 0.725605 0.694258 -0.396301
H14   H     H_    0.763383 0.760729 0.826324 0.170023
H15   H     H_    0.817152 0.855857 0.750641 0.172588
H16   H     H_    0.743774 0.653073 0.713342 0.166411
H17   H     H_    0.796203 0.748391 0.637789 0.174115
C29   C     C_R   0.509005 0.747549 0.310499 0.103157
C30   C     C_R   0.352696 0.687576 0.318692 -0.111336
C31   C     C_R   0.200283 0.698258 0.262021 -0.180298
H18   H     H_    0.077021 0.653379 0.265694 0.130403
C32   C     C_R   0.211927 0.762165 0.196203 -0.180384
H19   H     H_    0.096190 0.765423 0.151576 0.129496
C33   C     C_R   0.376963 0.816800 0.184754 -0.110112
C34   C     C_R   0.520918 0.810489 0.245191 0.100121
C35   C     C_3   0.730389 0.794137 0.234578 -0.415440
C36   C     C_3   0.717494 0.725926 0.305992 -0.396936
H20   H     H_    0.816924 0.856255 0.249661 0.173228
H21   H     H_    0.763636 0.761097 0.173947 0.169710
H22   H     H_    0.795984 0.748758 0.362500 0.174345
H23   H     H_    0.744012 0.653413 0.286919 0.165927
O11   O     O_R   0.229000 0.916070 0.913330 -0.539788
O12   O     O_R   0.558770 0.905070 0.086080 -0.539280
O13   O     O_R   0.729000 0.083900 0.086690 -0.535966
C37   C     C_R   0.389767 0.882899 0.114681 0.694228
O14   O     O_R   0.558720 0.905070 0.913930 -0.539929
O15   O     O_R   0.728960 0.083900 0.913310 -0.539349
C38   C     C_R   0.389705 0.882847 0.885382 0.691675
O16   O     O_R   0.229050 0.916070 0.086710 -0.539428
O17   O     O_3   0.395460 0.058650 0.000020 -0.370090
V3    V     V_3+5 0.670340 0.989120 0.000000 1.390748
O18   O     O_R   0.058670 0.094960 0.913900 -0.539386
C39   C     C_R   0.889619 0.116812 0.885062 0.695711
O19   O     O_R   0.058720 0.094960 0.086050 -0.542770
C40   C     C_R   0.889943 0.116922 0.114803 0.697087
V4    V     V_3+5 0.170330 0.010930 0.999970 1.387823
O20   O     O_3   0.895340 0.941350 0.999980 -0.371468
H24   H     H_    0.578341 0.253939 0.660389 0.133862

loop_
_geom_bond_atom_site_label_1
_geom_bond_atom_site_label_2
_ccdc_geom_bond_type
C35   H20   S    
C14   C40   S    
C4    C6    S    
C7    C8    A    
C11   H3    S    
C1    O6    A    
C22   C23   A    
C21   C22   A    
C12   H4    S    
C32   H19   S    
O14   C38   A    
C17   C18   A    
O19   V4    S    
C16   H7    S    
O5    C3    A    
C19   C20   S    
C35   H21   S    
O15   C39   A    
V2    O10   S    
C31   C32   A    
C6    C7    A    
O12   V3    S    
C32   C33   A    
O8    V2    S    
C21   C28   S    
O17   V4    S    
C10   C11   S    
O1    V2    S    
C3    C17   S    
O7    V1    S    
C36   H23   S    
C27   H15   S    
C24   C25   A    
C35   C36   S    
C30   C31   A    
O9    C4    A    
O12   C37   A    
C25   C38   S    
C2    C30   S    
C27   H14   S    
C25   C26   A    
C20   H10   S    
C1    C22   S    
C12   H5    S    
C23   C24   A    
C26   C27   S    
C11   C12   S    
C19   H9    S    
C7    H24   S    
O4    C2    A    
C28   H17   S    
V4    O20   S    
C20   H11   S    
C29   C30   A    
O18   V4    S    
C13   C18   A    
C31   H18   S    
C15   C16   A    
O2    C1    A    
C18   C19   S    
C29   C34   A    
C14   C15   A    
O15   V3    S    
C5    C6    A    
C5    C10   A    
O19   C40   A    
V3    O20   S    
O3    C4    A    
C21   C26   A    
C24   H13   S    
C8    C9    A    
C34   C35   S    
O6    V2    S    
O9    V2    S    
O13   V3    S    
O2    V1    S    
C27   C28   S    
C28   H16   S    
C23   H12   S    
O1    C2    A    
C11   H2    S    
O17   V3    S    
O14   V3    S    
O5    V1    S    
O11   V4    S    
O8    C3    A    
C36   H22   S    
C5    C12   S    
C15   H6    S    
O7    V2    S    
O4    V1    S    
O3    V1    S    
V1    O10   S    
C9    C39   S    
C19   H8    S    
C13   C14   A    
C33   C34   A    
C33   C37   S    
C13   C20   S    
C16   C17   A    
O13   C40   A    
C29   C36   S    
C8    H1    S    
O18   C39   A    
O11   C38   A    
C9    C10   A    
C37   O16   A    
O16   V4    S    
