data_mof_unit_17545.cif
_audit_creation_date              2012-12-11T20:46:37-0500
_audit_creation_method            fapswitch 2.2
_symmetry_space_group_name_H-M    P1
_symmetry_Int_Tables_number       1
_space_group_crystal_system       triclinic
_cell_length_a                    8.337378
_cell_length_b                    18.975097
_cell_length_c                    18.922675
_cell_angle_alpha                 102.070301
_cell_angle_beta                  93.192651
_cell_angle_gamma                 91.284704
_cell_volume                      2921.10869602

loop_
_atom_site_label
_atom_site_type_symbol
_atom_type_description
_atom_site_fract_x
_atom_site_fract_y
_atom_site_fract_z
_atom_type_partial_charge
Ba1   Ba    Ba6+2 0.153490 0.533960 0.468530 1.690766
Ba2   Ba    Ba6+2 0.656680 0.466030 0.531410 1.703512
C1    C     C_3   0.374723 0.712147 0.212984 -0.323640
C2    C     C_3   0.407366 0.693654 0.286742 0.302472
C3    C     C_3   0.327080 0.689550 0.715013 0.237082
C4    C     C_3   0.352306 0.770936 0.737341 -0.369023
C5    C     C_3   0.890290 0.271310 0.666189 0.400240
C6    C     C_3   0.864838 0.195343 0.679031 -0.330531
C7    C     C_3   0.388199 0.283822 0.713043 0.523467
C8    C     C_3   0.283600 0.221306 0.725497 -0.392838
C9    C     C_R   0.006381 0.953084 0.528062 0.028021
C10   C     C_R   0.090161 0.906704 0.565673 -0.076865
C11   C     C_R   0.226811 0.048028 0.551257 -0.098051
C12   C     C_3   0.935674 0.719234 0.309248 0.366212
C13   C     C_R   0.069161 0.023550 0.524799 0.027188
C14   C     C_R   0.282215 0.118116 0.552109 -0.102265
C15   C     C_R   0.182508 0.168001 0.527852 -0.025599
C16   C     C_R   0.029605 0.143612 0.494433 0.010131
C17   C     C_R   0.973397 0.070948 0.492413 0.025331
C18   C     C_R   0.230773 0.241564 0.536378 -0.024307
C19   C     C_R   0.127181 0.289546 0.511071 -0.283977
C20   C     C_R   0.981993 0.265867 0.471571 0.022844
C21   C     C_R   0.933229 0.191582 0.462732 -0.040351
C22   C     C_R   0.851772 0.929122 0.495428 0.026192
C23   C     C_3   0.956724 0.785167 0.276178 -0.012382
C24   C     C_R   0.788799 0.857864 0.496877 0.010755
C25   C     C_R   0.884572 0.810041 0.530117 -0.023989
C26   C     C_R   0.030360 0.837634 0.566917 -0.031920
C27   C     C_R   0.792258 0.163144 0.422456 -0.013405
C28   C     C_R   0.737713 0.092677 0.420198 -0.078362
C29   C     C_R   0.821142 0.046550 0.458577 0.013415
C30   C     C_R   0.758396 0.976725 0.462608 0.018448
C31   C     C_R   0.599292 0.955396 0.439050 -0.106940
C32   C     C_R   0.629149 0.835716 0.466961 -0.048507
C33   C     C_R   0.533866 0.887979 0.441509 -0.069973
C34   C     C_3   0.794791 0.377553 0.313376 0.307681
C35   C     C_R   0.572589 0.763863 0.466712 -0.035165
C36   C     C_R   0.671951 0.718762 0.499173 -0.287989
C37   C     C_R   0.828390 0.737637 0.528550 -0.022499
C38   C     C_2   0.593285 0.528957 0.305039 -0.267354
C39   C     C_3   0.681764 0.573536 0.261428 -0.041936
C40   C     C_2   0.641435 0.551741 0.180986 -0.116115
C41   C     C_2   0.509570 0.509470 0.154565 -0.082633
C42   C     C_2   0.414414 0.478617 0.206721 -0.124390
C43   C     C_1   0.466156 0.487787 0.276026 0.069543
C44   C     C_R   0.358723 0.482315 0.933167 0.491447
C45   C     C_3   0.753888 0.358470 0.232100 -0.338921
C46   C     C_R   0.457733 0.497215 0.075809 0.471817
C47   C     C_R   0.396645 0.511981 0.811055 -0.100791
C48   C     C_R   0.337079 0.516228 0.741444 -0.002066
C49   C     C_R   0.092197 0.448432 0.757420 0.008250
C50   C     C_R   0.152202 0.444011 0.827250 -0.139882
C51   C     C_R   0.302110 0.478571 0.856083 -0.032865
C52   C     C_R   0.182583 0.488239 0.718893 -0.110189
C53   C     C_3   0.822395 0.709833 0.692934 0.283489
C54   C     C_3   0.841144 0.788705 0.731279 -0.422350
C55   C     C_3   0.253934 0.305314 0.330412 0.469932
C56   C     C_3   0.343277 0.257488 0.373063 -0.337619
H1    H     H_    0.370865 0.636186 0.282288 0.060619
H2    H     H_    0.648301 0.320258 0.219699 0.148558
H3    H     H_    0.726089 0.407741 0.211803 0.063893
H4    H     H_    0.857527 0.333520 0.203404 0.164939
H5    H     H_    0.795223 0.677592 0.733730 0.100766
H6    H     H_    0.717082 0.702995 0.653224 0.008336
H7    H     H_    0.941524 0.796064 0.773545 0.131626
H8    H     H_    0.728628 0.806251 0.757417 0.105021
H9    H     H_    0.865945 0.822763 0.691856 0.095717
H10   H     H_    0.168625 0.338533 0.364926 -0.012876
H11   H     H_    0.246818 0.699791 0.194086 0.156897
H12   H     H_    0.440010 0.229311 0.341404 0.140993
H13   H     H_    0.259988 0.216295 0.386075 0.066496
H14   H     H_    0.397684 0.291691 0.423567 0.122610
H15   H     H_    0.537688 0.702714 0.301732 -0.024238
H16   H     H_    0.451081 0.679729 0.173029 0.103241
H17   H     H_    0.258293 0.677375 0.662400 0.116589
H18   H     H_    0.260178 0.670170 0.756964 0.022053
H19   H     H_    0.419186 0.791297 0.696087 0.097447
H20   H     H_    0.234214 0.796839 0.741915 0.091124
H21   H     H_    0.421599 0.785508 0.790476 0.129637
H22   H     H_    0.402680 0.770288 0.216256 0.150371
H23   H     H_    0.919162 0.833763 0.314576 0.061680
H24   H     H_    0.811760 0.276519 0.618364 0.091858
H25   H     H_    0.017688 0.279497 0.654765 -0.114631
H26   H     H_    0.736137 0.184344 0.685955 0.162575
H27   H     H_    0.903374 0.155195 0.632268 0.054486
H28   H     H_    0.935445 0.188999 0.728618 0.123261
H29   H     H_    0.312694 0.328198 0.701375 -0.059031
H30   H     H_    0.205608 0.240471 0.770815 0.113929
H31   H     H_    0.359702 0.178012 0.738859 0.143451
H32   H     H_    0.006269 0.728463 0.362024 0.078325
H33   H     H_    0.206211 0.198419 0.676656 0.076628
H34   H     H_    0.165256 0.345609 0.518197 0.079960
H35   H     H_    0.403378 0.133151 0.574270 0.105778
H36   H     H_    0.100401 0.806262 0.598058 0.088501
H37   H     H_    0.721382 0.194927 0.392107 0.104261
H38   H     H_    0.311907 0.013840 0.571262 0.066646
H39   H     H_    0.202743 0.922763 0.596182 0.053182
H40   H     H_    0.629971 0.075531 0.386249 0.076134
H41   H     H_    0.806651 0.714493 0.319787 -0.090613
H42   H     H_    0.518012 0.992835 0.421767 0.072378
H43   H     H_    0.712029 0.576658 0.145713 0.131295
H44   H     H_    0.304846 0.446882 0.187037 0.122420
H45   H     H_    0.512887 0.537126 0.830827 0.112052
H46   H     H_    0.080325 0.416228 0.859529 0.119551
H47   H     H_    0.622206 0.539918 0.362974 0.068991
H48   H     H_    0.084289 0.793309 0.265222 0.130645
H49   H     H_    0.688123 0.400196 0.340954 0.010853
H50   H     H_    0.894720 0.418596 0.324456 0.080376
N1    N     N_R   0.501307 0.516208 0.959840 -0.226069
N2    N     N_R   0.549554 0.523464 0.029359 -0.227288
N3    N     N_R   0.315610 0.462540 0.049145 -0.223017
N4    N     N_R   0.267141 0.455289 0.979367 -0.223429
O1    O     O_2   0.117290 0.676350 0.548250 -0.453873
O2    O     O_3   0.367890 0.345334 0.302222 -0.631902
O3    O     O_3   0.989864 0.657503 0.262515 -0.572132
O4    O     O_2   0.693010 0.323600 0.451730 -0.461745
O5    O     O_3   0.941240 0.413050 0.457220 -0.486568
O6    O     O_3   0.453310 0.371360 0.582690 -0.454492
O7    O     O_3   0.840395 0.315166 0.336797 -0.617125
O8    O     O_3   0.371310 0.539060 0.587050 -0.425831
O9    O     O_3   0.867330 0.408540 0.621000 -0.464094
O10   O     O_2   0.754372 0.453370 0.751276 -0.438789
O11   O     O_3   0.850468 0.321296 0.727941 -0.560998
O12   O     O_3   0.869060 0.586940 0.542720 -0.441373
O13   O     O_3   0.438990 0.460930 0.412890 -0.476210
O14   O     O_2   0.623700 0.539890 0.674570 -0.420176
O15   O     O_3   0.476151 0.657819 0.707194 -0.653784
O16   O     O_2   0.560968 0.244035 0.525224 -0.500168
O17   O     O_3   0.496456 0.258784 0.659524 -0.594064
O18   O     O_3   0.356990 0.628630 0.417250 -0.475662
O19   O     O_2   0.234999 0.753406 0.470016 -0.480011
O20   O     O_3   0.968015 0.686286 0.663310 -0.638715
O21   O     O_3   0.317964 0.737808 0.337761 -0.595708
O22   O     O_2   0.186600 0.460070 0.325400 -0.470191
O23   O     O_3   0.942970 0.591450 0.378940 -0.491412
O24   O     O_2   0.993842 0.516512 0.246318 -0.471485
P1    P     P_3+3 0.945300 0.665790 0.568510 1.015395
P2    P     P_3+3 0.360080 0.438780 0.334620 0.999888
P3    P     P_3+3 0.902316 0.581696 0.286040 0.976729
P4    P     P_3+3 0.865000 0.334200 0.431430 0.989466
P5    P     P_3+3 0.891774 0.408351 0.715087 1.034234
P6    P     P_3+3 0.372983 0.722025 0.423596 0.949565
P7    P     P_3+3 0.446081 0.564404 0.679938 0.987188
P8    P     P_3+3 0.432102 0.278322 0.576028 0.940691
I1    I     I_    0.125517 0.236218 0.240339 -0.414556
I2    I     I_    0.525518 0.323662 0.812694 -0.376972
C57   C     C_1   0.363676 0.880532 0.421768 0.324996
N5    N     N_1   0.227369 0.877238 0.405473 -0.282358
C58   C     C_1   0.605489 0.652829 0.508988 0.240002
N6    N     N_1   0.550914 0.599163 0.516266 -0.153791
I3    I     I_    0.059463 0.534472 0.647158 -0.304107
I4    I     I_    0.811578 0.773438 0.177403 -0.447370

loop_
_geom_bond_atom_site_label_1
_geom_bond_atom_site_label_2
_ccdc_geom_bond_type
C5    H25   S    
C53   C54   S    
C37   P1    S    
C55   I1    S    
C34   H50   S    
C32   C35   A    
C39   C40   S    
C9    C22   A    
C46   N2    A    
N3    N4    A    
C17   C29   A    
C45   H4    S    
Ba2   O6    S    
C5    C6    S    
O17   P8    S    
C42   C43   D    
O23   P3    S    
C8    H30   S    
C14   H35   S    
C48   C52   A    
C10   C26   A    
C23   I4    S    
O7    P4    S    
C21   C27   A    
C1    H11   S    
C35   C36   A    
C22   C24   A    
C16   C17   A    
C44   N4    A    
C28   C29   A    
C54   H8    S    
C56   H13   S    
C4    H20   S    
C12   O3    S    
C20   P4    S    
O14   P7    D    
C15   C18   A    
C2    H1    S    
C34   C45   S    
C26   H36   S    
C32   C33   A    
C34   O7    S    
C1    H16   S    
C18   P8    S    
C12   H32   S    
C10   H39   S    
C45   H2    S    
Ba2   O4    S    
C24   C32   A    
C57   N5    T    
C8    H31   S    
C25   C37   A    
C14   C15   A    
C53   H5    S    
C7    C8    S    
C36   C58   S    
C19   C20   A    
C34   H49   S    
C23   H23   S    
C3    O15   S    
O8    P7    S    
Ba1   O1    S    
O24   P3    D    
C1    H22   S    
Ba2   O5    S    
C23   H48   S    
C55   C56   S    
C49   P5    S    
C38   C43   D    
C35   P6    S    
C11   H38   S    
C16   C21   A    
O9    P5    S    
O12   P1    S    
C12   H41   S    
C36   C37   A    
Ba1   O18   S    
C27   H37   S    
Ba2   O8    S    
C56   H12   S    
C4    H19   S    
O15   P7    S    
O20   P1    S    
C6    H27   S    
C49   C50   A    
Ba1   O8    S    
C3    H17   S    
C13   C17   A    
C41   C42   S    
C22   C30   A    
C47   H45   S    
C27   C28   A    
C54   H7    S    
C29   C30   A    
C53   H6    S    
O11   P5    S    
C15   C16   A    
O21   P6    S    
C33   C57   S    
C7    I2    S    
O16   P8    D    
C2    H15   S    
C52   I3    S    
O19   P6    D    
Ba2   O14   S    
C38   C39   S    
O3    P3    S    
C8    H33   S    
C47   C48   A    
C9    C13   A    
C11   C13   A    
C24   C25   A    
O1    P1    D    
C44   N1    A    
O5    P4    S    
C40   C41   D    
C55   H10   S    
C1    C2    S    
C40   H43   S    
Ba1   P1    S    
C48   P7    S    
C45   H3    S    
C41   C46   S    
Ba2   O9    S    
C50   H46   S    
C42   H44   S    
Ba2   O12   S    
C6    H26   S    
C5    O11   S    
O22   P2    D    
C9    C10   A    
C55   O2    S    
C7    O17   S    
O13   P2    S    
C54   H9    S    
C46   N3    A    
C28   H40   S    
O6    P8    S    
Ba1   O13   S    
C49   C52   A    
Ba2   P4    S    
C30   C31   A    
C31   H42   S    
C3    H18   S    
Ba1   O12   S    
Ba1   O23   S    
C58   N6    T    
C7    H29   S    
C56   H14   S    
C4    H21   S    
C3    C4    S    
C47   C51   A    
Ba1   Ba2   S    
C44   C51   S    
C43   P2    S    
C31   C33   A    
C6    H28   S    
O2    P2    S    
C12   C23   S    
O18   P6    S    
C39   P3    S    
Ba2   O13   S    
C5    H24   S    
C18   C19   A    
C53   O20   S    
C11   C14   A    
C25   C26   A    
C20   C21   A    
C38   H47   S    
Ba1   O5    S    
O10   P5    D    
N1    N2    A    
Ba1   P2    S    
Ba1   O22   S    
C50   C51   A    
C2    O21   S    
O4    P4    D    
C19   H34   S    
