data_mof_unit_59606.cif
_audit_creation_date              2012-12-11T17:23:15-0500
_audit_creation_method            fapswitch 2.2
_symmetry_space_group_name_H-M    P1
_symmetry_Int_Tables_number       1
_space_group_crystal_system       triclinic
_cell_length_a                    22.43609
_cell_length_b                    7.095403
_cell_length_c                    19.444362
_cell_angle_alpha                 90.00365
_cell_angle_beta                  99.380395
_cell_angle_gamma                 90.00089
_cell_volume                      3054.01643054

loop_
_atom_site_label
_atom_site_type_symbol
_atom_type_description
_atom_site_fract_x
_atom_site_fract_y
_atom_site_fract_z
_atom_type_partial_charge
O1    O     O_R   0.443980 0.494320 0.557430 -0.529797
O2    O     O_R   0.556020 0.994320 0.442570 -0.529793
O3    O     O_R   0.441210 0.822520 0.414610 -0.537722
O4    O     O_R   0.558790 0.322520 0.585390 -0.537721
C1    C     C_R   0.426715 0.655338 0.388993 0.711749
C2    C     C_R   0.573287 0.155349 0.611006 0.711789
O5    O     O_R   0.436920 0.823940 0.555180 -0.535410
O6    O     O_R   0.563080 0.323940 0.444820 -0.535401
O7    O     O_R   0.551700 0.995760 0.584140 -0.534690
O8    O     O_R   0.448300 0.495760 0.415860 -0.534709
C3    C     C_R   0.421627 0.655397 0.574862 0.706296
C4    C     C_R   0.578373 0.155393 0.425138 0.706276
O9    O     O_3   0.537660 0.661290 0.509340 -0.371989
O10   O     O_3   0.462340 0.161290 0.490660 -0.372007
V1    V     V_3+5 0.493010 0.935560 0.498270 1.464104
V2    V     V_3+5 0.506990 0.435560 0.501730 1.464121
C5    C     C_R   0.756704 0.946875 0.213685 0.563512
C6    C     C_R   0.243450 0.447132 0.786510 0.563491
C7    C     C_R   0.794363 0.101357 0.205734 -0.228305
C8    C     C_R   0.205628 0.601344 0.794253 -0.227909
C9    C     C_R   0.787732 0.269850 0.243563 0.360505
C10   C     C_R   0.212097 0.769572 0.756219 0.360339
C11   C     C_R   0.743963 0.278417 0.287772 -0.190617
C12   C     C_R   0.255868 0.778144 0.712014 -0.190726
H1    H     H_    0.739121 0.407303 0.316298 0.210151
H2    H     H_    0.260583 0.906821 0.683325 0.209478
C13   C     C_R   0.706705 0.123768 0.295565 -0.190941
C14   C     C_R   0.293293 0.623772 0.704433 -0.190683
C15   C     C_R   0.713391 0.957828 0.258240 0.563915
C16   C     C_R   0.286772 0.458101 0.741967 0.564070
C17   C     C_1   0.839160 0.083976 0.159230 0.102978
C18   C     C_1   0.160835 0.583963 0.840763 0.103109
C19   C     C_1   0.661670 0.136243 0.341699 0.137857
C20   C     C_1   0.338330 0.636253 0.658301 0.137798
C21   C     C_1   0.623913 0.145906 0.379953 -0.157336
C22   C     C_1   0.376087 0.645918 0.620048 -0.157363
C23   C     C_1   0.876795 0.072036 0.120900 -0.136991
C24   C     C_1   0.123203 0.572024 0.879097 -0.136818
C25   C     C_R   0.627739 0.157786 0.804317 0.392747
C26   C     C_R   0.372275 0.657447 0.195686 0.392769
H3    H     H_    0.542465 0.187201 0.737212 0.149763
H4    H     H_    0.457550 0.686819 0.262794 0.149669
H5    H     H_    0.711977 0.166300 0.920676 0.174346
H6    H     H_    0.288049 0.665863 0.079315 0.174434
C27   C     C_R   0.614475 0.147646 0.678250 -0.125455
C28   C     C_R   0.385530 0.647600 0.321748 -0.125432
C29   C     C_R   0.908001 0.050879 0.762093 -0.174155
C30   C     C_R   0.091997 0.551126 0.237900 -0.174061
C31   C     C_R   0.871490 0.052643 0.697328 -0.111930
C32   C     C_R   0.128506 0.552982 0.302664 -0.111984
C33   C     C_R   0.809279 0.073880 0.691716 -0.131722
C34   C     C_R   0.190720 0.574125 0.308277 -0.131723
C35   C     C_R   0.781228 0.094261 0.751488 0.056926
C36   C     C_R   0.218775 0.594312 0.248506 0.056999
C37   C     C_R   0.819051 0.092125 0.818724 -0.008197
C38   C     C_R   0.180958 0.592054 0.181268 -0.008408
C39   C     C_R   0.716873 0.116576 0.746216 0.040987
C40   C     C_R   0.283133 0.616552 0.253781 0.040973
C41   C     C_R   0.691350 0.137516 0.808246 -0.046926
C42   C     C_R   0.308661 0.637300 0.191752 -0.047024
C43   C     C_R   0.729558 0.141965 0.872855 -0.182829
C44   C     C_R   0.270459 0.641663 0.127139 -0.182553
C45   C     C_R   0.791478 0.114049 0.878799 0.299841
C46   C     C_R   0.208540 0.613785 0.121190 0.299911
C47   C     C_R   0.676792 0.120515 0.681306 -0.202437
C48   C     C_R   0.323210 0.620590 0.318690 -0.202453
C49   C     C_R   0.590705 0.168098 0.739572 -0.141116
C50   C     C_R   0.409307 0.667832 0.260430 -0.141138
C51   C     C_R   0.883191 0.070708 0.823092 -0.078596
C52   C     C_R   0.116813 0.570748 0.176903 -0.078599
H7    H     H_    0.692240 0.105060 0.632017 0.101824
H8    H     H_    0.307758 0.605286 0.367978 0.101804
H9    H     H_    0.956330 0.033649 0.764685 0.107841
H10   H     H_    0.043666 0.533987 0.235308 0.107841
H11   H     H_    0.784567 0.073680 0.639435 0.106317
H12   H     H_    0.215429 0.574013 0.360558 0.106295
H13   H     H_    0.891674 0.037169 0.650709 0.123834
H14   H     H_    0.108318 0.537658 0.349282 0.123828
O11   O     O_R   0.051730 0.724670 0.084120 -0.524056
O12   O     O_R   0.948270 0.224670 0.915880 -0.524028
O13   O     O_R   0.063080 0.393540 0.944820 -0.539954
O14   O     O_R   0.936920 0.893540 0.055180 -0.539939
C53   C     C_R   0.077718 0.562043 0.924317 0.739604
C54   C     C_R   0.922282 0.062047 0.075684 0.739595
O15   O     O_R   0.058800 0.395030 0.085390 -0.551007
O16   O     O_R   0.941200 0.895030 0.914610 -0.550985
O17   O     O_R   0.943980 0.223310 0.057440 -0.527042
O18   O     O_R   0.056020 0.723310 0.942560 -0.527083
C55   C     C_R   0.073460 0.563631 0.110748 0.732893
C56   C     C_R   0.926543 0.063620 0.889249 0.733118
O19   O     O_3   0.962360 0.556290 0.990650 -0.370254
O20   O     O_3   0.037640 0.056290 0.009350 -0.370287
V3    V     V_3+5 0.006980 0.281990 0.001730 1.477874
V4    V     V_3+5 0.993020 0.781990 0.998270 1.477861
F1    F     F_    0.677889 0.806072 0.264894 -0.633395
F2    F     F_    0.322443 0.306627 0.735530 -0.633066
O21   O     O_3   0.823792 0.108384 0.944915 -0.642838
H15   H     H_    0.834320 0.973747 0.953418 0.279223
O22   O     O_3   0.176245 0.607954 0.055063 -0.642798
H16   H     H_    0.165575 0.473363 0.046658 0.279293
F3    F     F_    0.761865 0.784673 0.178044 -0.603572
F4    F     F_    0.238438 0.285178 0.822341 -0.603684
O23   O     O_3   0.822547 0.428932 0.239479 -0.588297
H17   H     H_    0.851213 0.407379 0.206681 0.308492
O24   O     O_3   0.177121 0.928383 0.760098 -0.589008
H18   H     H_    0.148476 0.906877 0.792925 0.308269
O25   O     O_3   0.599774 0.168570 0.862313 -0.618235
H19   H     H_    0.619791 0.078211 0.897441 0.302362
O26   O     O_3   0.400244 0.667993 0.137698 -0.618279
H20   H     H_    0.380210 0.577598 0.102591 0.302400

loop_
_geom_bond_atom_site_label_1
_geom_bond_atom_site_label_2
_ccdc_geom_bond_type
C26   C42   A    
C2    C27   S    
C24   C53   S    
C13   C15   A    
C5    C15   A    
O24   H18   S    
O1    C3    A    
C54   O17   A    
C7    C17   S    
C2    O7    A    
O21   H15   S    
C29   C31   A    
C13   C19   S    
O5    C3    A    
O14   V4    S    
C3    C22   S    
C7    C9    A    
C12   H2    S    
C28   C48   A    
C8    C18   S    
C39   C41   A    
C40   C42   A    
C42   C44   A    
C6    F4    S    
C43   C45   A    
C5    F3    S    
C29   C51   A    
O14   C54   A    
C16   F2    S    
O16   V4    S    
C5    C7    A    
O15   V3    S    
C40   C48   A    
C46   O22   S    
C48   H8    S    
C31   C33   A    
C37   C45   A    
C27   C49   A    
C32   C34   A    
O25   H19   S    
C38   C46   A    
C23   C54   S    
C6    C16   A    
C18   C24   T    
C44   C46   A    
O5    V1    S    
C53   O18   A    
O2    C4    A    
O6    V2    S    
H4    C50   S    
C32   H14   S    
O13   C53   A    
C34   C36   A    
C36   C38   A    
C35   C37   A    
O18   V4    S    
C41   C43   A    
C30   H10   S    
C29   H9    S    
O11   V4    S    
H3    C49   S    
O16   C56   A    
C30   C52   A    
C15   F1    S    
O15   C55   A    
H6    C44   S    
C47   H7    S    
C17   C23   T    
C33   C35   A    
O4    V2    S    
C25   O25   S    
C28   C50   A    
O19   V3    S    
O13   V3    S    
O22   H16   S    
O6    C4    A    
C25   C41   A    
O20   V4    S    
O1    V2    S    
C4    C21   S    
O2    V1    S    
C37   C51   A    
O4    C2    A    
C8    C10   A    
C11   C13   A    
C9    C11   A    
C27   C47   A    
C10   C12   A    
C52   C55   S    
C51   C56   S    
C33   H11   S    
O3    V1    S    
H5    C43   S    
C36   C40   A    
C35   C39   A    
C25   C49   A    
C12   C14   A    
C39   C47   A    
O3    C1    A    
C26   O26   S    
C10   O24   S    
C1    C28   S    
C38   C52   A    
C34   H12   S    
C14   C16   A    
O7    V1    S    
C1    O8    A    
C45   O21   S    
O8    V2    S    
O26   H20   S    
O19   V4    S    
O17   V3    S    
C30   C32   A    
O20   V3    S    
C19   C21   T    
C20   C22   T    
C31   H13   S    
C6    C8    A    
C11   H1    S    
O12   C56   A    
O11   C55   A    
C14   C20   S    
C9    O23   S    
C26   C50   A    
O9    V2    S    
O23   H17   S    
O10   V1    S    
O12   V3    S    
