data_mof_unit_15194.cif
_audit_creation_date              2012-12-11T14:34:05-0500
_audit_creation_method            fapswitch 2.2
_symmetry_space_group_name_H-M    P1
_symmetry_Int_Tables_number       1
_space_group_crystal_system       triclinic
_cell_length_a                    13.905114
_cell_length_b                    14.029864
_cell_length_c                    27.365047
_cell_angle_alpha                 89.607291
_cell_angle_beta                  90.239817
_cell_angle_gamma                 119.741677
_cell_volume                      4635.2063636

loop_
_atom_site_label
_atom_site_type_symbol
_atom_type_description
_atom_site_fract_x
_atom_site_fract_y
_atom_site_fract_z
_atom_type_partial_charge
C1    C     C_R   0.233864 0.786874 0.568702 0.544339
C2    C     C_R   0.212193 0.445894 0.568474 0.549845
C3    C     C_R   0.553864 0.765622 0.568654 0.542048
C4    C     C_3   0.666423 0.739983 0.790347 -0.253719
C5    C     C_3   0.248578 0.936007 0.786285 -0.255485
C6    C     C_3   0.053450 0.312945 0.785835 -0.200338
C7    C     C_3   0.654352 0.727856 0.733518 0.423708
C8    C     C_3   0.265805 0.924056 0.730785 0.414059
C9    C     C_3   0.061086 0.334949 0.729685 0.406507
C10   C     C_1   0.707253 0.864432 0.859976 -0.030042
C11   C     C_1   0.118220 0.868609 0.854637 0.015779
C12   C     C_1   0.123855 0.250273 0.854562 0.022730
C13   C     C_1   0.637324 0.817649 0.657389 0.122032
C14   C     C_1   0.176676 0.813989 0.656674 0.122852
C15   C     C_1   0.177534 0.359427 0.656193 0.071148
C16   C     C_1   0.606810 0.798137 0.615480 0.074829
C17   C     C_1   0.199093 0.804114 0.615282 0.085842
C18   C     C_1   0.191922 0.392497 0.614804 0.064255
C19   C     C_R   0.066585 0.152400 0.096230 0.571809
C20   C     C_R   0.776181 0.883062 0.087602 0.583807
C21   C     C_R   0.116688 0.893214 0.087882 0.594718
C22   C     C_R   0.072126 0.165417 0.942965 0.509253
C23   C     C_R   0.780204 0.887481 0.950602 0.545698
C24   C     C_R   0.092604 0.926861 0.942939 0.506686
C25   C     C_R   0.614241 0.894448 0.359548 0.200461
C26   C     C_R   0.093481 0.734163 0.364190 0.199687
C27   C     C_R   0.263184 0.353124 0.366457 0.206268
C28   C     C_R   0.626266 0.901115 0.308271 -0.046558
C29   C     C_R   0.081047 0.739896 0.313106 -0.051622
C30   C     C_R   0.246083 0.313788 0.317989 -0.049975
C31   C     C_R   0.655273 0.914599 0.205757 -0.015495
C32   C     C_R   0.066846 0.750449 0.209916 -0.030766
C33   C     C_R   0.212062 0.245930 0.219100 -0.031783
C34   C     C_R   0.231795 0.789086 0.432136 0.585870
C35   C     C_R   0.210844 0.442991 0.432112 0.589961
C36   C     C_R   0.555487 0.767465 0.431607 0.590836
C37   C     C_R   0.614092 0.975809 0.229228 0.437505
C38   C     C_R   0.986775 0.658999 0.236354 0.426259
C39   C     C_R   0.316217 0.284487 0.241500 0.418031
C40   C     C_R   0.601025 0.970233 0.279799 0.391856
C41   C     C_R   0.994890 0.652826 0.286915 0.402619
C42   C     C_R   0.333038 0.317976 0.289986 0.407463
C43   C     C_R   0.687192 0.930694 0.155791 0.245762
C44   C     C_R   0.058206 0.761858 0.158780 0.233955
C45   C     C_R   0.194154 0.214795 0.169397 0.237984
C46   C     C_R   0.716173 0.858376 0.133988 -0.000746
C47   C     C_R   0.137194 0.858337 0.135348 -0.009469
C48   C     C_R   0.089249 0.179654 0.148198 -0.015375
C49   C     C_R   0.657728 0.746141 0.362496 0.206643
C50   C     C_R   0.259874 0.914388 0.362655 0.204356
C51   C     C_R   0.074948 0.324060 0.368860 0.199076
C52   C     C_R   0.668543 0.750592 0.311440 -0.022014
C53   C     C_R   0.248942 0.921482 0.312165 -0.009149
C54   C     C_R   0.054365 0.276816 0.322237 -0.003357
C55   C     C_R   0.653402 0.828616 0.284391 -0.087038
C56   C     C_R   0.161955 0.832416 0.287037 -0.094879
C57   C     C_R   0.141323 0.276461 0.295849 -0.090540
C58   C     C_R   0.683575 0.671601 0.286749 -0.074460
C59   C     C_R   0.327441 0.013779 0.286176 -0.050715
C60   C     C_R   0.949561 0.235320 0.300643 -0.079600
C61   C     C_R   0.689687 0.672454 0.235846 0.265782
C62   C     C_R   0.327071 0.015163 0.235318 0.297520
C63   C     C_R   0.932369 0.203225 0.251791 0.248839
C64   C     C_R   0.684879 0.756292 0.209473 0.047719
C65   C     C_R   0.239953 0.927830 0.210313 0.049719
C66   C     C_R   0.018923 0.204472 0.225082 0.067181
C67   C     C_3   0.564739 0.850112 0.734572 0.553499
C68   C     C_3   0.128794 0.715139 0.737454 0.509681
C69   C     C_3   0.272079 0.415064 0.736770 0.542557
C70   C     C_R   0.664903 0.833511 0.233253 -0.083018
C71   C     C_R   0.156072 0.836678 0.235772 -0.090478
C72   C     C_R   0.123814 0.240946 0.246849 -0.082463
C73   C     C_R   0.703429 0.766053 0.159617 -0.121873
C74   C     C_R   0.232119 0.934183 0.160175 -0.105049
C75   C     C_R   0.002751 0.172667 0.176330 -0.139304
C76   C     C_R   0.615974 0.807500 0.385119 0.067854
C77   C     C_R   0.190361 0.815166 0.387153 0.062739
C78   C     C_R   0.181789 0.369196 0.389489 0.059906
C79   C     C_3   0.770647 0.935008 0.722720 0.286612
C80   C     C_3   0.059472 0.845351 0.715822 0.308405
C81   C     C_3   0.148436 0.214882 0.716823 0.295194
C82   C     C_3   0.791187 0.942236 0.778830 0.073868
C83   C     C_3   0.045039 0.861397 0.770830 0.076396
C84   C     C_3   0.125605 0.183358 0.771614 0.069156
C85   C     C_1   0.734587 0.874026 0.902354 -0.000832
C86   C     C_1   0.107224 0.893468 0.895454 0.010161
C87   C     C_1   0.103136 0.213930 0.895472 0.009267
C88   C     C_3   0.657239 0.832294 0.710739 0.066313
C89   C     C_3   0.158371 0.824486 0.708956 0.038323
C90   C     C_3   0.164385 0.331346 0.708555 0.042055
C91   C     C_3   0.579658 0.860653 0.792096 0.518862
C92   C     C_3   0.121172 0.731812 0.794527 0.514378
C93   C     C_3   0.259230 0.386706 0.793481 0.513958
C94   C     C_3   0.685796 0.853837 0.806744 -0.059780
C95   C     C_3   0.131091 0.847372 0.802983 -0.038853
C96   C     C_3   0.142212 0.283484 0.802769 -0.038418
Cr1   Cr    Cr6+3 0.164410 0.584450 0.499910 1.126743
Cr2   Cr    Cr6+3 0.415550 0.579960 0.499910 1.136837
Cr3   Cr    Cr6+3 0.420040 0.835590 0.499910 1.124994
Cr4   Cr    Cr6+3 0.155170 0.075460 0.019960 1.104223
Cr5   Cr    Cr6+3 0.924540 0.079710 0.019960 1.084744
Cr6   Cr    Cr6+3 0.920290 0.844830 0.019960 1.092830
H1    H     H_    0.735212 0.727775 0.803231 0.148194
H2    H     H_    0.262112 0.018905 0.793683 0.178629
H3    H     H_    0.969446 0.245975 0.795537 0.182376
H4    H     H_    0.720205 0.707321 0.141566 0.227497
H5    H     H_    0.295345 0.005324 0.140840 0.237547
H6    H     H_    0.922596 0.144103 0.159361 0.185893
H7    H     H_    0.686349 0.605953 0.306516 0.178718
H8    H     H_    0.391975 0.084372 0.304880 0.182322
H9    H     H_    0.880684 0.230584 0.320919 0.142204
H10   H     H_    0.771121 0.010371 0.709453 0.216549
H11   H     H_    0.982347 0.774571 0.701362 0.219822
H12   H     H_    0.224211 0.213452 0.705021 0.216866
H13   H     H_    0.860344 0.925491 0.785815 0.183353
H14   H     H_    0.059077 0.945821 0.775252 0.206217
H15   H     H_    0.037909 0.116336 0.775179 0.203403
H16   H     H_    0.591442 0.673639 0.808623 0.179625
H17   H     H_    0.312909 0.931872 0.809043 0.191938
H18   H     H_    0.063321 0.385718 0.806158 0.197446
O1    O     O_R   0.137150 0.468200 0.553200 -0.492893
O2    O     O_R   0.531800 0.668950 0.553200 -0.484780
O3    O     O_R   0.331050 0.862850 0.553200 -0.481383
O4    O     O_R   0.179100 0.982980 0.967000 -0.482047
O5    O     O_R   0.017020 0.196120 0.967000 -0.464156
O6    O     O_R   0.803880 0.820900 0.967000 -0.505420
O7    O     O_R   0.173970 0.688730 0.549930 -0.503352
O8    O     O_R   0.311270 0.485240 0.549930 -0.498234
O9    O     O_R   0.514760 0.826030 0.549930 -0.501730
O10   O     O_R   0.140110 0.470540 0.446010 -0.444956
O11   O     O_R   0.529460 0.669570 0.446010 -0.429935
O12   O     O_R   0.330430 0.859890 0.446010 -0.448126
O13   O     O_R   0.176710 0.690910 0.450560 -0.452943
O14   O     O_R   0.309090 0.485800 0.450560 -0.451796
O15   O     O_R   0.514200 0.823290 0.450560 -0.455301
O16   O     O_3   0.333333 0.666667 0.499990 -0.328878
O17   O     O_R   0.176750 0.985260 0.074180 -0.509351
O18   O     O_R   0.014740 0.191490 0.074180 -0.479216
O19   O     O_R   0.808510 0.823250 0.074180 -0.510637
O20   O     O_R   0.146100 0.172630 0.068980 -0.420656
O21   O     O_R   0.827370 0.973470 0.068980 -0.475455
O22   O     O_R   0.026530 0.853900 0.068980 -0.436452
O23   O     O_3   1.000000 0.000000 0.020040 -0.326856
O24   O     O_R   0.148270 0.170520 0.969620 -0.475841
O25   O     O_R   0.829480 0.977750 0.969620 -0.514185
O26   O     O_R   0.022250 0.851730 0.969620 -0.469176
O27   O     O_3   0.586082 0.958416 0.809515 -0.629575
H19   H     H_    0.643931 0.022129 0.791359 0.390837
O28   O     O_3   0.022882 0.647141 0.815819 -0.627232
H20   H     H_    0.957800 0.635849 0.796626 0.386110
O29   O     O_3   0.344115 0.368300 0.811743 -0.636519
H21   H     H_    0.353420 0.317408 0.790051 0.382421
F1    F     F_    0.461478 0.760771 0.723435 -0.475296
F2    F     F_    0.209579 0.686361 0.728672 -0.506688
F3    F     F_    0.289168 0.520774 0.729747 -0.462782
O30   O     O_3   0.485432 0.771939 0.813632 -0.582704
H22   H     H_    0.487705 0.785923 0.849250 0.351388
O31   O     O_3   0.210649 0.730873 0.818534 -0.614345
H23   H     H_    0.196466 0.654146 0.818356 0.419582
O32   O     O_3   0.265053 0.475589 0.819698 -0.606425
H24   H     H_    0.343008 0.536432 0.818277 0.406763
O33   O     O_3   0.695151 0.016837 0.128049 -0.627673
H25   H     H_    0.723022 0.082179 0.149146 0.399956
O34   O     O_3   0.971912 0.683683 0.131603 -0.612773
H26   H     H_    0.973487 0.614343 0.136142 0.380162
O35   O     O_3   0.277941 0.219426 0.141111 -0.602323
H27   H     H_    0.334851 0.298190 0.138707 0.379400
O36   O     O_3   0.598296 0.969699 0.385252 -0.626864
H28   H     H_    0.651604 0.043609 0.372411 0.368501
O37   O     O_3   0.014983 0.649140 0.392050 -0.615437
H29   H     H_    0.942501 0.642905 0.384037 0.365711
O38   O     O_3   0.359511 0.379402 0.391356 -0.597820
H30   H     H_    0.373541 0.317200 0.387217 0.377296
F4    F     F_    0.582667 0.038963 0.203569 -0.558213
F5    F     F_    0.899767 0.573753 0.213919 -0.557373
F6    F     F_    0.404856 0.294809 0.216454 -0.555435
F7    F     F_    0.558221 0.029144 0.300036 -0.629956
F8    F     F_    0.919612 0.558505 0.309345 -0.582831
F9    F     F_    0.437808 0.362221 0.307746 -0.569288
O39   O     O_3   0.701115 0.592817 0.211278 -0.604991
H31   H     H_    0.698739 0.538103 0.235099 0.400841
O40   O     O_3   0.410221 0.101540 0.209427 -0.559904
H32   H     H_    0.468259 0.151964 0.232440 0.408673
O41   O     O_3   0.833408 0.175631 0.228882 -0.707032
H33   H     H_    0.785932 0.189428 0.251358 0.371517
O42   O     O_3   0.569406 0.945397 0.714750 -0.696446
H34   H     H_    0.536623 0.927485 0.681499 0.371225
O43   O     O_3   0.027303 0.628896 0.720225 -0.720868
H35   H     H_    0.040196 0.609501 0.687020 0.360972
O44   O     O_3   0.364424 0.411668 0.717836 -0.732462
H36   H     H_    0.383643 0.450851 0.685947 0.374293
O45   O     O_3   0.682265 0.679160 0.390932 -0.634737
H37   H     H_    0.748798 0.680679 0.377152 0.323405
O46   O     O_3   0.340826 0.002025 0.388349 -0.650113
H38   H     H_    0.413104 0.019727 0.373873 0.383073
O47   O     O_3   0.991800 0.328024 0.394556 -0.646639
H39   H     H_    0.961190 0.363821 0.373124 0.363119
F10   F     F_    0.856202 0.931166 0.698654 -0.498977
F11   F     F_    0.074980 0.936408 0.689222 -0.496989
F12   F     F_    0.061970 0.137894 0.688618 -0.504454
O48   O     O_3   0.824232 0.048845 0.795035 -0.728034
H40   H     H_    0.865012 0.059453 0.826223 0.309418
O49   O     O_3   0.935709 0.788265 0.785035 -0.734096
H41   H     H_    0.924731 0.811980 0.817611 0.308300
O50   O     O_3   0.194737 0.143540 0.787913 -0.744928
H42   H     H_    0.163599 0.103819 0.819135 0.301458
O51   O     O_3   0.553169 0.634201 0.721564 -0.582049
H43   H     H_    0.554420 0.569813 0.736088 0.351120
O52   O     O_3   0.357863 0.909442 0.723316 -0.597358
H44   H     H_    0.359069 0.860133 0.749063 0.424589
O53   O     O_3   0.071804 0.438776 0.720807 -0.584718
H45   H     H_    0.001347 0.434124 0.731349 0.368570
O54   O     O_3   0.742170 0.717302 0.713677 -0.589334
H46   H     H_    0.738735 0.650319 0.727811 0.338084
O55   O     O_3   0.286472 0.020962 0.706178 -0.567048
H47   H     H_    0.359716 0.080662 0.717358 0.362448
O56   O     O_3   0.962672 0.253224 0.707715 -0.625812
H48   H     H_    0.960316 0.277268 0.673747 0.360805

loop_
_geom_bond_atom_site_label_1
_geom_bond_atom_site_label_2
_ccdc_geom_bond_type
C15   C18   T    
O49   H41   S    
C4    H1    S    
C10   C85   T    
O44   H36   S    
C82   C94   S    
C2    C18   S    
C58   H7    S    
C33   C45   A    
O48   H40   S    
O27   H19   S    
C48   C75   A    
Cr1   O13   S    
Cr1   O7    S    
C8    O55   S    
C6    C9    S    
C91   O27   S    
C53   C59   A    
C36   O15   A    
C49   O45   S    
C54   C60   A    
O54   H46   S    
O39   H31   S    
C25   C28   A    
C23   O25   A    
Cr5   O25   S    
C67   C88   S    
C33   C39   A    
C31   C43   A    
Cr3   O12   S    
C5    H17   S    
C60   C63   A    
C39   F6    S    
C20   O19   A    
O30   H22   S    
C21   O22   A    
C37   C40   A    
C68   F2    S    
C51   O47   S    
C80   C83   S    
C34   C77   S    
C64   C70   A    
C2    O1    A    
C3    O2    A    
O37   H29   S    
C28   C40   A    
C11   C86   T    
C9    O56   S    
C30   C57   A    
Cr2   O16   S    
C24   O4    A    
C59   H8    S    
O41   H33   S    
C92   O31   S    
C84   C96   S    
C69   O44   S    
C80   C89   S    
O40   H32   S    
Cr1   O1    S    
C36   C76   S    
C33   C72   A    
C37   F4    S    
Cr5   O21   S    
C84   O50   S    
C31   C70   A    
C66   C72   A    
O53   H45   S    
C19   O20   A    
C20   C46   S    
C81   H12   S    
Cr5   O5    S    
O29   H21   S    
Cr5   O23   S    
C32   C38   A    
C39   C42   A    
C44   C47   A    
Cr4   O20   S    
C45   O35   S    
C38   F5    S    
C12   C87   T    
C52   C55   A    
C27   C78   A    
C58   C61   A    
Cr2   O8    S    
O46   H38   S    
C74   H5    S    
C63   C66   A    
C34   O12   A    
C75   H6    S    
C79   F10   S    
C27   C30   A    
C14   C17   T    
C4    H16   S    
C81   F12   S    
C4    C7    S    
C20   O21   A    
C35   O14   A    
C6    H18   S    
C79   C88   S    
C5    C95   S    
C28   C55   A    
C68   C89   S    
C32   C71   A    
C25   O36   S    
C26   C77   A    
Cr3   O9    S    
O51   H43   S    
C50   C53   A    
C41   F8    S    
C38   C41   A    
C7    O51   S    
Cr4   O24   S    
C36   O11   A    
C19   C48   S    
C84   H15   S    
C22   O5    A    
C34   O13   A    
O56   H48   S    
C65   C71   A    
C80   F11   S    
C92   C95   S    
C21   O17   A    
C31   C37   A    
O43   H35   S    
Cr4   O4    S    
Cr2   O11   S    
C93   O32   S    
O55   H47   S    
C1    O3    A    
C14   C89   S    
C62   O40   S    
C7    C88   S    
C42   F9    S    
C64   C73   A    
C49   C52   A    
C83   C95   S    
C67   C91   S    
O52   H44   S    
C32   C44   A    
C49   C76   A    
Cr3   O15   S    
C69   F3    S    
C22   C87   S    
C35   O10   A    
C68   O43   S    
C82   O48   S    
C7    O54   S    
C52   C58   A    
C61   O39   S    
C23   O6    A    
C4    C94   S    
C81   C90   S    
C79   H10   S    
C83   O49   S    
O36   H28   S    
C93   C96   S    
C6    C96   S    
O31   H23   S    
C93   O29   S    
C5    C8    S    
Cr6   O23   S    
C8    O52   S    
C50   C77   A    
C81   C84   S    
O38   H30   S    
Cr3   O3    S    
O33   H25   S    
C45   C48   A    
C11   C95   S    
Cr2   O2    S    
O50   H42   S    
O34   H26   S    
C59   C62   A    
C63   O41   S    
C62   C65   A    
C29   C41   A    
C3    O9    A    
C1    C17   S    
C83   H14   S    
C30   C42   A    
C1    O7    A    
C47   C74   A    
O47   H39   S    
Cr6   O6    S    
Cr4   O23   S    
C9    C90   S    
Cr1   O10   S    
C79   C82   S    
Cr5   O18   S    
C67   O42   S    
C29   C56   A    
C44   O34   S    
Cr2   O14   S    
C35   C78   S    
C69   C93   S    
C82   H13   S    
C67   F1    S    
C51   C54   A    
O32   H24   S    
C25   C76   A    
C51   C78   A    
C91   O30   S    
C60   H9    S    
C24   O26   A    
O28   H20   S    
O45   H37   S    
C91   C94   S    
C50   O46   S    
C73   H4    S    
O35   H27   S    
C9    O53   S    
C19   O18   A    
C66   C75   A    
C13   C88   S    
C68   C92   S    
C6    H3    S    
Cr3   O16   S    
Cr6   O19   S    
C57   C72   A    
C43   C46   A    
C53   C56   A    
C5    H2    S    
C55   C70   A    
Cr4   O17   S    
C65   C74   A    
C40   F7    S    
C43   O33   S    
C80   H11   S    
C26   O37   S    
C26   C29   A    
C23   C85   S    
C13   C16   T    
C22   O24   A    
C92   O28   S    
C61   C64   A    
C10   C94   S    
C12   C96   S    
C8    C89   S    
Cr6   O22   S    
Cr1   O16   S    
C21   C47   S    
O42   H34   S    
C24   C86   S    
C27   O38   S    
C46   C73   A    
Cr6   O26   S    
C3    C16   S    
C69   C90   S    
C56   C71   A    
C15   C90   S    
C54   C57   A    
C2    O8    A    
