data_mof_unit_14137.cif
_audit_creation_date              2012-12-11T14:45:34-0500
_audit_creation_method            fapswitch 2.2
_symmetry_space_group_name_H-M    P1
_symmetry_Int_Tables_number       1
_space_group_crystal_system       triclinic
_cell_length_a                    24.805976
_cell_length_b                    7.180754
_cell_length_c                    14.529703
_cell_angle_alpha                 89.999952
_cell_angle_beta                  102.898806
_cell_angle_gamma                 90.000054
_cell_volume                      2522.80340843

loop_
_atom_site_label
_atom_site_type_symbol
_atom_type_description
_atom_site_fract_x
_atom_site_fract_y
_atom_site_fract_z
_atom_type_partial_charge
O1    O     O_R   0.319150 0.364170 0.330530 -0.536222
O2    O     O_R   0.680850 0.635830 0.669470 -0.531003
O3    O     O_R   0.180850 0.864170 0.169470 -0.536222
O4    O     O_R   0.819150 0.135830 0.830530 -0.531010
O5    O     O_R   0.210330 0.696850 0.354180 -0.523124
O6    O     O_R   0.789670 0.303150 0.645820 -0.529011
O7    O     O_R   0.289670 0.196850 0.145820 -0.523124
O8    O     O_R   0.710330 0.803150 0.854180 -0.529004
C1    C     C_R   0.197591 0.524990 0.378446 0.723823
C2    C     C_R   0.802218 0.475720 0.621222 0.737401
C3    C     C_R   0.302409 0.024990 0.121554 0.723828
C4    C     C_R   0.697781 0.975720 0.878777 0.737403
O9    O     O_R   0.320550 0.694110 0.341970 -0.545025
O10   O     O_R   0.679450 0.305890 0.658030 -0.543843
O11   O     O_R   0.179450 0.194110 0.158030 -0.545025
O12   O     O_R   0.820550 0.805890 0.841970 -0.543836
O13   O     O_R   0.291860 0.861000 0.157170 -0.549149
O14   O     O_R   0.708140 0.139000 0.842830 -0.545422
O15   O     O_R   0.208140 0.361000 0.342830 -0.549149
O16   O     O_R   0.791860 0.639000 0.657170 -0.545418
C5    C     C_R   0.341660 0.524518 0.362916 0.686410
C6    C     C_R   0.658266 0.475088 0.637418 0.671070
C7    C     C_R   0.158340 0.024518 0.137084 0.686409
C8    C     C_R   0.841733 0.975088 0.862584 0.671028
O17   O     O_3   0.240460 0.529330 0.189380 -0.378368
O18   O     O_3   0.759540 0.470670 0.810620 -0.379251
O19   O     O_3   0.259540 0.029330 0.310620 -0.378369
O20   O     O_3   0.740460 0.970670 0.689380 -0.379252
V1    V     V_3+5 0.251770 0.805510 0.261240 1.441129
V2    V     V_3+5 0.748230 0.194490 0.738760 1.437590
V3    V     V_3+5 0.248230 0.305510 0.238760 1.441129
V4    V     V_3+5 0.751770 0.694490 0.761240 1.437611
C9    C     C_R   0.103376 0.007408 0.072062 -0.050885
C10   C     C_R   0.896728 0.990374 0.927367 -0.038682
C11   C     C_R   0.396624 0.507408 0.427938 -0.050877
C12   C     C_R   0.603271 0.490374 0.572635 -0.038674
C13   C     C_R   0.957616 0.154283 0.056745 -0.192733
C14   C     C_R   0.042326 0.838482 0.944305 -0.180132
C15   C     C_R   0.542384 0.654284 0.443257 -0.192729
C16   C     C_R   0.457673 0.338483 0.555696 -0.180134
C17   C     C_R   0.904822 0.120897 0.001158 -0.158984
C18   C     C_R   0.095372 0.876419 0.998296 -0.186317
C19   C     C_R   0.595177 0.620897 0.498844 -0.158994
C20   C     C_R   0.404627 0.376418 0.501704 -0.186313
C21   C     C_R   0.942449 0.891809 0.910167 -0.232793
C22   C     C_R   0.057317 0.100497 0.090952 -0.224403
C23   C     C_R   0.557550 0.391812 0.589836 -0.232795
C24   C     C_R   0.442683 0.600499 0.409049 -0.224406
C25   C     C_R   0.996097 0.929781 0.963626 0.154100
C26   C     C_R   0.003760 0.062690 0.037380 0.148652
C27   C     C_R   0.503902 0.429783 0.536376 0.154088
C28   C     C_R   0.496239 0.562692 0.462622 0.148650
H1    H     H_    0.062972 0.195770 0.149784 0.105278
H2    H     H_    0.936561 0.791898 0.852850 0.120128
H3    H     H_    0.437028 0.695772 0.350218 0.105282
H4    H     H_    0.563439 0.291902 0.647154 0.120125
H5    H     H_    0.130278 0.800451 0.983751 0.120048
H6    H     H_    0.870072 0.198336 0.015338 0.113927
H7    H     H_    0.369721 0.300449 0.516248 0.120046
H8    H     H_    0.629928 0.698335 0.484663 0.113925
H9    H     H_    0.962320 0.253877 0.113912 0.114290
H10   H     H_    0.037417 0.736229 0.888193 0.122723
H11   H     H_    0.537679 0.753878 0.386090 0.114288
H12   H     H_    0.462582 0.236230 0.611809 0.122725
C29   C     C_R   0.666507 0.996437 0.952677 -0.113733
C30   C     C_R   0.334916 0.012993 0.049099 -0.104565
C31   C     C_R   0.833492 0.496438 0.547321 -0.113757
C32   C     C_R   0.165083 0.512990 0.450900 -0.104564
C33   C     C_R   0.653893 0.187097 0.083052 -0.181065
C34   C     C_R   0.343387 0.895271 0.897648 -0.162231
C35   C     C_R   0.846106 0.687091 0.416944 -0.181082
C36   C     C_R   0.156612 0.395260 0.602349 -0.162229
C37   C     C_R   0.687920 0.115294 0.028028 -0.243360
C38   C     C_R   0.311669 0.926842 0.963509 -0.245381
C39   C     C_R   0.812079 0.615295 0.471970 -0.243366
C40   C     C_R   0.188331 0.426838 0.536490 -0.245379
C41   C     C_R   0.610953 0.939493 0.935650 0.318477
C42   C     C_R   0.390717 0.069550 0.069786 0.343961
C43   C     C_R   0.889045 0.439488 0.564346 0.318459
C44   C     C_R   0.109282 0.569543 0.430212 0.343959
C45   C     C_R   0.573692 0.030870 0.983501 -0.038290
C46   C     C_R   0.424066 0.039915 0.002286 -0.023586
C47   C     C_R   0.926306 0.530857 0.516493 -0.038280
C48   C     C_R   0.075932 0.539903 0.497710 -0.023589
C49   C     C_R   0.597016 0.151486 0.059723 0.100599
C50   C     C_R   0.399275 0.946385 0.916991 0.100280
C51   C     C_R   0.902982 0.651474 0.440271 0.100588
C52   C     C_R   0.100723 0.446371 0.583005 0.100280
C53   C     C_R   0.514591 0.012568 0.957784 0.054459
C54   C     C_R   0.481538 0.088491 0.017776 0.060876
C55   C     C_R   0.985407 0.512551 0.542209 0.054498
C56   C     C_R   0.018461 0.588476 0.482219 0.060868
C57   C     C_R   0.506690 0.216555 0.087798 -0.166826
C58   C     C_R   0.486867 0.934564 0.871032 -0.171106
C59   C     C_R   0.993309 0.716540 0.412196 -0.166818
C60   C     C_R   0.013130 0.434544 0.628961 -0.171091
C61   C     C_R   0.563247 0.245343 0.108986 -0.224441
C62   C     C_R   0.430373 0.903197 0.851067 -0.204538
C63   C     C_R   0.936751 0.745329 0.391008 -0.224428
C64   C     C_R   0.069624 0.403177 0.648927 -0.204553
H13   H     H_    0.580657 0.344692 0.163804 0.122783
H14   H     H_    0.411049 0.840104 0.783996 0.125168
H15   H     H_    0.919342 0.844679 0.336190 0.122780
H16   H     H_    0.088949 0.340083 0.715998 0.125171
H17   H     H_    0.268968 0.881023 0.948405 0.126613
H18   H     H_    0.730719 0.159771 0.041347 0.126573
H19   H     H_    0.231031 0.381020 0.551594 0.126612
H20   H     H_    0.769280 0.659778 0.458653 0.126578
H21   H     H_    0.671546 0.281031 0.140268 0.122519
H22   H     H_    0.324475 0.825781 0.832154 0.125692
H23   H     H_    0.828453 0.781027 0.359728 0.122524
H24   H     H_    0.175523 0.325769 0.667843 0.125691
H25   H     H_    0.483392 0.305362 0.124163 0.189383
H26   H     H_    0.507156 0.904701 0.814602 0.188138
H27   H     H_    0.016607 0.805350 0.375832 0.189383
H28   H     H_    0.992842 0.404680 0.685392 0.188147
O21   O     O_3   0.411214 0.151877 0.156496 -0.566824
C65   C     C_3   0.435029 0.014585 0.222607 0.043922
H29   H     H_    0.471249 0.947967 0.202477 0.127833
H30   H     H_    0.404301 0.905357 0.229037 0.119263
C66   C     C_3   0.454440 0.107618 0.318299 -0.677189
H31   H     H_    0.418285 0.166040 0.341394 0.238684
H32   H     H_    0.475115 0.005658 0.371807 0.171356
H33   H     H_    0.484008 0.221467 0.313522 0.222044
O22   O     O_3   0.594048 0.803090 0.868478 -0.569572
C67   C     C_3   0.592914 0.630888 0.914827 0.101346
H34   H     H_    0.561689 0.632432 0.959299 0.126790
H35   H     H_    0.634313 0.596293 0.959789 0.127365
C68   C     C_3   0.577129 0.479082 0.840889 -0.673157
H36   H     H_    0.609520 0.466797 0.799527 0.214464
H37   H     H_    0.573387 0.343917 0.875483 0.181054
H38   H     H_    0.536883 0.512596 0.792609 0.214990
O23   O     O_3   0.088785 0.651872 0.343502 -0.566825
C69   C     C_3   0.064972 0.514581 0.277390 0.043933
H39   H     H_    0.028756 0.447940 0.297524 0.127824
H40   H     H_    0.095704 0.405369 0.270952 0.119267
C70   C     C_3   0.045553 0.607623 0.181701 -0.677176
H41   H     H_    0.081703 0.666088 0.158607 0.238688
H42   H     H_    0.024886 0.505655 0.128190 0.171358
H43   H     H_    0.015975 0.721444 0.186483 0.222029
O24   O     O_3   0.905949 0.303086 0.631517 -0.569573
C71   C     C_3   0.907064 0.130870 0.585168 0.101315
H44   H     H_    0.938287 0.132366 0.540693 0.126795
H45   H     H_    0.865661 0.096314 0.540212 0.127367
C72   C     C_3   0.922835 0.979061 0.659105 -0.673083
H46   H     H_    0.890473 0.966993 0.700545 0.214511
H47   H     H_    0.926491 0.843826 0.624506 0.181041
H48   H     H_    0.963120 0.012427 0.707312 0.214931

loop_
_geom_bond_atom_site_label_1
_geom_bond_atom_site_label_2
_ccdc_geom_bond_type
O17   V3    S    
C24   H3    S    
C63   H15   S    
C36   H24   S    
O1    C5    A    
C67   H34   S    
O19   V1    S    
O13   V1    S    
O3    C7    A    
C64   H16   S    
C44   C48   A    
O4    V2    S    
O15   V3    S    
C69   C70   S    
C72   H46   S    
C58   H26   S    
C33   C49   A    
C14   C25   A    
C2    C31   S    
O18   V4    S    
C70   H42   S    
O22   C67   S    
C9    C18   A    
O9    V1    S    
C17   H6    S    
C14   C18   A    
O4    C8    A    
C59   C63   A    
C58   C62   A    
C20   H7    S    
C30   C38   A    
O1    V3    S    
C29   C37   A    
C12   C23   A    
O2    V4    S    
C53   C58   A    
O3    V1    S    
C65   H29   S    
C66   H33   S    
C34   H22   S    
C36   C52   A    
C55   C60   A    
C33   H21   S    
C1    O15   A    
C59   H27   S    
C7    C9    S    
C35   H23   S    
C34   C38   A    
C33   C37   A    
O14   V2    S    
C21   C25   A    
C16   C20   A    
C51   C63   A    
C3    C30   S    
C36   C40   A    
C68   H38   S    
C45   C53   A    
O11   C7    A    
C15   C28   A    
C39   H20   S    
O12   C8    A    
C9    C22   A    
C71   C72   S    
C10   C17   A    
O10   V2    S    
C11   C24   A    
C18   H5    S    
C72   H47   S    
C45   C49   A    
O5    V1    S    
C30   C42   A    
C70   H43   S    
O7    V3    S    
C27   C28   A    
O8    V4    S    
C42   O21   S    
C31   C43   A    
C2    O16   A    
C55   C56   A    
C15   C19   A    
C67   C68   S    
C46   C50   A    
C56   C59   A    
C8    C10   S    
C44   O23   S    
C65   C66   S    
O7    C3    A    
O5    C1    A    
C29   C41   A    
C42   C46   A    
C4    C29   S    
C13   H9    S    
C6    C12   S    
C41   C45   A    
O8    C4    A    
O9    C5    A    
C10   C21   A    
C57   H25   S    
C11   C20   A    
C66   H31   S    
C52   C64   A    
C19   H8    S    
C35   C51   A    
O6    V2    S    
C21   H2    S    
C40   H19   S    
O24   C71   S    
O23   C69   S    
C71   H45   S    
C31   C39   A    
C32   C44   A    
C34   C50   A    
C57   C61   A    
C72   H48   S    
C41   O22   S    
C54   C57   A    
C68   H36   S    
O16   V4    S    
C3    O13   A    
C67   H35   S    
C48   C52   A    
C46   C54   A    
C47   C51   A    
O6    C2    A    
C23   C27   A    
O11   V3    S    
C69   H39   S    
C5    C11   S    
C32   C40   A    
C16   C27   A    
C15   H11   S    
C70   H41   S    
C22   C26   A    
C16   H12   S    
O10   C6    A    
O20   V2    S    
C1    C32   S    
C62   H14   S    
O2    C6    A    
C38   H17   S    
C35   C39   A    
C13   C26   A    
C37   H18   S    
C43   O24   S    
O12   V4    S    
C60   C64   A    
C22   H1    S    
C69   H40   S    
C47   C55   A    
C13   C17   A    
C50   C62   A    
C65   H30   S    
C66   H32   S    
C49   C61   A    
C43   C47   A    
C24   C28   A    
C25   C26   A    
C4    O14   A    
C71   H44   S    
C60   H28   S    
C12   C19   A    
C48   C56   A    
C68   H37   S    
C53   C54   A    
O21   C65   S    
C61   H13   S    
C23   H4    S    
C14   H10   S    
