data_mof_unit_60222.cif
_audit_creation_date              2012-12-10T18:18:09-0500
_audit_creation_method            fapswitch 2.2
_symmetry_space_group_name_H-M    P1
_symmetry_Int_Tables_number       1
_space_group_crystal_system       triclinic
_cell_length_a                    19.376627
_cell_length_b                    14.657724
_cell_length_c                    15.905159
_cell_angle_alpha                 89.999359
_cell_angle_beta                  89.991142
_cell_angle_gamma                 89.999943
_cell_volume                      4517.33947553

loop_
_atom_site_label
_atom_site_type_symbol
_atom_type_description
_atom_site_fract_x
_atom_site_fract_y
_atom_site_fract_z
_atom_type_partial_charge
C1    C     C_R   0.500076 0.500000 0.339736 0.828879
C2    C     C_R   0.930070 0.500000 0.500283 0.417612
C3    C     C_R   0.182832 0.582672 0.500288 -0.135177
C4    C     C_R   0.182833 0.417328 0.500288 -0.135187
C5    C     C_R   0.254737 0.582659 0.500169 -0.156836
C6    C     C_R   0.254737 0.417341 0.500169 -0.156844
C7    C     C_R   0.291297 0.500000 0.500093 -0.038155
C8    C     C_R   0.146148 0.500000 0.500332 0.048476
C9    C     C_3   0.458453 0.584097 0.049851 -0.387880
C10   C     C_3   0.462364 0.412774 0.049855 -0.387227
C11   C     C_3   0.464362 0.409075 0.952037 0.452495
C12   C     C_3   0.460279 0.587944 0.952032 0.452458
C13   C     C_1   0.499670 0.499993 0.749600 -0.077974
C14   C     C_3   0.498540 0.499957 0.082756 0.115388
C15   C     C_3   0.498006 0.499933 0.917141 0.065361
C16   C     C_R   0.632970 0.500000 0.499909 0.781345
C17   C     C_3   0.573566 0.502948 0.951179 -0.439804
C18   C     C_3   0.573430 0.502944 0.048545 -0.366776
C19   C     C_1   0.499041 0.499972 0.825006 0.081322
C20   C     C_1   0.499215 0.499984 0.174794 -0.019108
C21   C     C_1   0.499682 0.499997 0.250217 -0.131200
C22   C     C_3   0.472782 0.053244 0.584736 -0.416472
C23   C     C_3   0.472782 0.946754 0.584736 -0.416727
C24   C     C_3   0.571023 0.053247 0.482638 -0.340021
C25   C     C_3   0.571023 0.946754 0.482637 -0.340123
C26   C     C_3   0.497553 0.091959 0.498929 0.080984
C27   C     C_3   0.497553 0.908042 0.498928 0.081168
C28   C     C_3   0.448152 0.946013 0.429590 0.129592
C29   C     C_3   0.448152 0.053990 0.429590 0.129501
C30   C     C_1   0.498103 0.804880 0.500748 0.171427
C31   C     C_1   0.498103 0.195120 0.500749 0.171772
C32   C     C_R   0.500110 0.499999 0.660120 0.826898
C33   C     C_R   0.367171 0.500000 0.499963 0.798310
C34   C     C_R   0.745412 0.582658 0.500027 -0.173163
C35   C     C_R   0.745412 0.417341 0.500035 -0.172767
C36   C     C_R   0.817318 0.582670 0.500132 -0.144678
C37   C     C_R   0.817318 0.417329 0.500141 -0.144542
C38   C     C_R   0.854002 0.500000 0.500192 0.051837
C39   C     C_R   0.708850 0.500000 0.499980 -0.035856
C40   C     C_R   0.070081 0.500000 0.500365 0.422593
Cu1   Cu    Cu3+1 0.500090 0.589920 0.499910 1.014179
Cu2   Cu    Cu3+1 0.500090 0.410080 0.499910 1.014652
H1    H     H_    0.718519 0.647434 0.499988 0.158854
H2    H     H_    0.718519 0.352565 0.500003 0.158957
H3    H     H_    0.601761 0.563815 0.927867 0.222204
H4    H     H_    0.604486 0.444439 0.927869 0.222074
H5    H     H_    0.506988 0.921632 0.635951 0.209628
H6    H     H_    0.506988 0.078365 0.635951 0.209897
H7    H     H_    0.591164 0.078543 0.421477 0.210628
H8    H     H_    0.591164 0.921461 0.421476 0.210613
H9    H     H_    0.606982 0.078270 0.532075 0.166788
H10   H     H_    0.606982 0.921729 0.532073 0.166621
H11   H     H_    0.394877 0.076828 0.445187 0.100548
H12   H     H_    0.394877 0.923175 0.445187 0.100546
H13   H     H_    0.419843 0.078460 0.598727 0.182359
H14   H     H_    0.419843 0.921538 0.598727 0.182365
H15   H     H_    0.844047 0.647540 0.500166 0.160005
H16   H     H_    0.844047 0.352459 0.500181 0.160048
H17   H     H_    0.156103 0.647542 0.500325 0.161964
H18   H     H_    0.156104 0.352458 0.500325 0.161975
H19   H     H_    0.281633 0.647434 0.500126 0.163106
H20   H     H_    0.281634 0.352566 0.500126 0.163115
H21   H     H_    0.404254 0.580696 0.072740 0.202751
H22   H     H_    0.408108 0.411851 0.072744 0.203283
H23   H     H_    0.487692 0.351557 0.077369 0.217945
H24   H     H_    0.480944 0.647223 0.077361 0.218230
H25   H     H_    0.600091 0.565263 0.071878 0.202973
H26   H     H_    0.602886 0.442865 0.071880 0.202369
N1    N     N_R   0.965761 0.420335 0.500313 -0.229648
N2    N     N_R   0.965761 0.579664 0.500309 -0.229706
N3    N     N_R   0.034390 0.420335 0.500353 -0.228038
N4    N     N_R   0.034390 0.579664 0.500348 -0.228065
N5    N     N_1   0.498600 0.724970 0.501390 -0.139659
N6    N     N_1   0.498600 0.275030 0.501390 -0.139558
O1    O     O_R   0.500080 0.575970 0.379360 -0.556331
O2    O     O_R   0.500080 0.424030 0.379360 -0.556342
O3    O     O_R   0.599930 0.575960 0.499920 -0.581313
O4    O     O_R   0.599930 0.424040 0.499920 -0.581150
O5    O     O_R   0.500070 0.575900 0.620490 -0.562568
O6    O     O_R   0.500070 0.424100 0.620490 -0.561852
O7    O     O_R   0.400220 0.575910 0.499940 -0.575287
O8    O     O_R   0.400220 0.424090 0.499940 -0.575327
Br1   Br    Br    0.466819 0.110580 0.320005 -0.413739
Br2   Br    Br    0.466818 0.889428 0.320004 -0.413835
Br3   Br    Br    0.366947 0.606184 0.908440 -0.379919
Br4   Br    Br    0.372033 0.383422 0.908446 -0.378874
Br5   Br    Br    0.516601 0.300781 0.916984 -0.454903
Br6   Br    Br    0.507482 0.700203 0.916972 -0.453463

loop_
_geom_bond_atom_site_label_1
_geom_bond_atom_site_label_2
_ccdc_geom_bond_type
C22   H6    S    
C15   C19   S    
C1    C21   S    
C40   N3    A    
C28   Br2   S    
Cu1   Cu2   S    
C14   C18   S    
C13   C32   S    
Cu2   O8    S    
C4    C8    A    
C23   H14   S    
Cu2   O6    S    
C12   Br3   S    
C28   C29   S    
C35   C37   A    
C24   C26   S    
C29   Br1   S    
Cu1   O3    S    
C32   O6    A    
C11   Br4   S    
C18   H26   S    
C16   O3    A    
N1    N3    A    
C25   H8    S    
C9    H24   S    
C11   C15   S    
C11   Br5   S    
C23   C27   S    
C2    N1    A    
C33   O8    A    
C16   O4    A    
C37   H16   S    
C24   H9    S    
C26   C31   S    
C27   C30   S    
C7    C33   S    
Cu2   N6    S    
C23   H5    S    
C12   Br6   S    
C34   C39   A    
C1    O1    A    
C14   C20   S    
C24   C25   S    
C4    C6    A    
C3    C8    A    
C10   C14   S    
C5    C7    A    
C30   N5    T    
C28   H12   S    
C31   N6    T    
C18   H25   S    
C35   C39   A    
C9    C14   S    
C37   C38   A    
Cu1   O1    S    
C2    C38   S    
C12   C15   S    
Cu1   O7    S    
C4    H18   S    
C17   C18   S    
C5    H19   S    
C17   H4    S    
C35   H2    S    
C6    C7    A    
C36   H15   S    
C10   H23   S    
C24   H7    S    
C15   C17   S    
C40   N4    A    
C9    H21   S    
C1    O2    A    
C10   H22   S    
C34   H1    S    
C17   H3    S    
C3    C5    A    
Cu1   O5    S    
Cu2   O4    S    
C22   H13   S    
C25   C27   S    
Cu2   O2    S    
C6    H20   S    
C36   C38   A    
C25   H10   S    
C32   O5    A    
C29   H11   S    
C34   C36   A    
C9    C12   S    
C10   C11   S    
C16   C39   S    
Cu1   N5    S    
C20   C21   T    
C26   C29   S    
C22   C26   S    
C27   C28   S    
C13   C19   T    
C22   C23   S    
N2    N4    A    
C8    C40   S    
C2    N2    A    
C33   O7    A    
C3    H17   S    
