data_mof_unit_51178.cif
_audit_creation_date              2012-12-11T16:57:11-0500
_audit_creation_method            fapswitch 2.2
_symmetry_space_group_name_H-M    P1
_symmetry_Int_Tables_number       1
_space_group_crystal_system       triclinic
_cell_length_a                    14.520467
_cell_length_b                    16.357397
_cell_length_c                    6.985209
_cell_angle_alpha                 89.63579
_cell_angle_beta                  98.057575
_cell_angle_gamma                 89.869667
_cell_volume                      1642.68543814

loop_
_atom_site_label
_atom_site_type_symbol
_atom_type_description
_atom_site_fract_x
_atom_site_fract_y
_atom_site_fract_z
_atom_type_partial_charge
O1    O     O_R   0.584990 0.413650 0.534420 -0.534483
O2    O     O_R   0.584990 0.586350 0.534420 -0.540183
O3    O     O_R   0.596190 0.585230 0.208380 -0.533952
O4    O     O_R   0.596190 0.414770 0.208380 -0.534383
O5    O     O_R   0.415010 0.586420 0.976930 -0.533598
O6    O     O_R   0.415010 0.413580 0.976930 -0.545006
C1    C     C_R   0.618955 0.613908 0.383007 0.706875
C2    C     C_R   0.619388 0.386203 0.384601 0.704166
O7    O     O_3   0.440560 0.500000 0.319140 -0.382302
V1    V     V_3+5 0.511030 0.500000 0.068070 1.493649
O8    O     O_R   0.403810 0.414840 0.643540 -0.548217
O9    O     O_R   0.403810 0.585160 0.643540 -0.551502
C3    C     C_R   0.379525 0.389007 0.806913 0.750499
C4    C     C_R   0.379201 0.610683 0.806435 0.769954
V2    V     V_3+5 0.488970 0.500000 0.560620 1.459581
O10   O     O_3   0.559440 0.500000 0.859420 -0.356798
H1    H     H_    0.336391 0.711562 0.085965 0.131200
H2    H     H_    0.336770 0.284719 0.080971 0.124567
C5    C     C_2   0.302241 0.669285 0.798926 -0.304845
C6    C     C_2   0.300712 0.332236 0.798893 -0.276686
C7    C     C_2   0.287644 0.715231 0.953023 -0.129977
C8    C     C_2   0.286119 0.284436 0.950633 -0.116747
H3    H     H_    0.242510 0.810436 0.235601 0.095184
H4    H     H_    0.245371 0.185047 0.230267 0.100710
C9    C     C_2   0.194538 0.818309 0.102930 -0.398176
C10   C     C_2   0.194364 0.180853 0.101282 -0.408061
C11   C     C_2   0.206799 0.771988 0.945774 0.344119
C12   C     C_2   0.203490 0.229985 0.945887 0.330606
H5    H     H_    0.254573 0.670891 0.665068 0.156319
H6    H     H_    0.251599 0.334031 0.667368 0.147758
C13   C     C_R   0.684414 0.736689 0.569662 -0.027061
C14   C     C_R   0.675369 0.252052 0.545909 -0.025479
C15   C     C_R   0.684897 0.684663 0.411637 -0.096948
C16   C     C_R   0.687376 0.316473 0.416992 -0.102063
C17   C     C_R   0.754774 0.698569 0.294925 -0.117339
C18   C     C_R   0.769473 0.314729 0.331006 -0.156509
H7    H     H_    0.763812 0.655895 0.182506 0.131716
H8    H     H_    0.787316 0.366601 0.247741 0.160059
C19   C     C_R   0.819677 0.762936 0.334641 -0.124379
C20   C     C_R   0.834442 0.249947 0.367546 -0.147827
H9    H     H_    0.877800 0.766815 0.256124 0.147156
H10   H     H_    0.900494 0.255002 0.314619 0.156810
C21   C     C_R   0.815846 0.818411 0.486043 -0.127226
C22   C     C_R   0.818880 0.182826 0.485755 -0.134882
C23   C     C_R   0.746223 0.803529 0.604636 0.019956
C24   C     C_R   0.738749 0.186146 0.578342 -0.009617
C25   C     C_3   0.758839 0.784718 0.817919 0.150268
C26   C     C_3   0.733625 0.185791 0.792389 0.158495
C27   C     C_3   0.693358 0.711222 0.776750 -0.191976
C28   C     C_3   0.663674 0.257330 0.755274 -0.186288
O11   O     O_R   0.921430 0.915960 0.371040 -0.546446
O12   O     O_R   0.921430 0.084040 0.371040 -0.531474
O13   O     O_R   0.910450 0.087500 0.697310 -0.530776
O14   O     O_R   0.910450 0.912500 0.697310 -0.544466
O15   O     O_R   0.091710 0.087460 0.928430 -0.533934
O16   O     O_R   0.091710 0.912540 0.928430 -0.535485
C29   C     C_R   0.888304 0.114463 0.520474 0.701232
C30   C     C_R   0.886940 0.886140 0.520819 0.690592
O17   O     O_3   0.065970 0.000000 0.586140 -0.392285
V3    V     V_3+5 0.995640 0.000000 0.837400 1.418794
O18   O     O_R   0.103020 0.915700 0.261710 -0.551839
O19   O     O_R   0.103020 0.084300 0.261710 -0.549145
C31   C     C_R   0.123526 0.884761 0.098620 0.771156
C32   C     C_R   0.123178 0.115213 0.097995 0.786148
V4    V     V_3+5 0.017940 0.000000 0.344880 1.357832
O20   O     O_3   0.947330 0.000000 0.046180 -0.380433
N1    N     N_2   0.141096 0.772609 0.773555 -0.506833
H11   H     H_    0.072326 0.780363 0.789161 0.290547
C33   C     C_3   0.169145 0.816084 0.610819 -0.479916
H12   H     H_    0.121940 0.798291 0.479300 0.197166
H13   H     H_    0.166419 0.882594 0.633650 0.227549
H14   H     H_    0.241538 0.801577 0.589420 0.169965
N2    N     N_2   0.131970 0.235362 0.783101 -0.514618
H15   H     H_    0.064928 0.228757 0.813509 0.276328
C34   C     C_3   0.149882 0.192479 0.611355 -0.442267
H16   H     H_    0.090906 0.203079 0.494453 0.181304
H17   H     H_    0.214408 0.213719 0.559968 0.169770
H18   H     H_    0.158620 0.126298 0.640509 0.220858
C35   C     C_1   0.737186 0.629695 0.813922 0.306271
N3    N     N_1   0.772367 0.566440 0.842356 -0.310083
C36   C     C_1   0.696608 0.335568 0.842725 0.309930
N4    N     N_1   0.723320 0.397373 0.907298 -0.304802
N5    N     N_2   0.718425 0.847872 0.928672 -0.548313
H19   H     H_    0.652230 0.866638 0.871699 0.263764
C37   C     C_3   0.774687 0.916227 0.997333 -0.412116
H20   H     H_    0.777755 0.960948 0.878384 0.216741
H21   H     H_    0.844339 0.894356 0.055595 0.228618
H22   H     H_    0.744710 0.945256 0.117475 0.176131
N6    N     N_2   0.694848 0.109856 0.856297 -0.531567
H23   H     H_    0.639868 0.086550 0.762999 0.264968
C38   C     C_3   0.681551 0.105798 0.058118 -0.539059
H24   H     H_    0.635128 0.053955 0.081693 0.188376
H25   H     H_    0.649603 0.162811 0.104194 0.207324
H26   H     H_    0.749514 0.095881 0.149142 0.212558
C39   C     C_1   0.856660 0.761490 0.890280 0.297357
N7    N     N_1   0.932684 0.742208 0.943508 -0.409511
C40   C     C_1   0.825980 0.205151 0.901309 0.379477
N8    N     N_1   0.899648 0.219966 0.978761 -0.410106
C41   C     C_1   0.604371 0.717255 0.854270 0.354573
N9    N     N_1   0.535323 0.724315 0.917220 -0.382387
C42   C     C_1   0.566969 0.239542 0.782594 0.315873
N10   N     N_1   0.491257 0.224578 0.804075 -0.390481

loop_
_geom_bond_atom_site_label_1
_geom_bond_atom_site_label_2
_ccdc_geom_bond_type
C42   N10   T    
O1    C2    A    
N2    C34   S    
N2    H15   S    
C39   N7    T    
O4    C2    A    
C40   N8    T    
C19   H9    S    
C6    H6    S    
C37   H20   S    
C26   C40   S    
N5    H19   S    
C5    C7    D    
H4    C10   S    
O3    C1    A    
C9    C31   S    
C27   C41   S    
V2    O10   S    
O18   C31   A    
O11   V4    S    
C33   H13   S    
C10   C32   S    
O19   C32   A    
C21   C30   S    
O8    V2    S    
O2    C1    A    
C13   C15   A    
O1    V2    S    
C25   N5    S    
N6    C38   S    
O7    V1    S    
C3    C6    S    
C20   H10   S    
C7    C11   S    
V3    O20   S    
O17   V3    S    
C8    C12   S    
O15   V3    S    
C1    C15   S    
C13   C27   S    
C12   N2    S    
O13   V3    S    
C22   C24   A    
C36   N4    T    
C23   C25   S    
C24   C26   S    
C37   H21   S    
N1    H11   S    
C18   C20   A    
C25   C27   S    
C38   H24   S    
O13   C29   A    
O14   V3    S    
H1    C7    S    
O16   V3    S    
N1    C33   S    
C14   C16   A    
C33   H14   S    
C17   C19   A    
C34   H16   S    
C38   H25   S    
C21   C23   A    
C41   N9    T    
O9    V2    S    
C22   C29   S    
O15   C32   A    
O16   C31   A    
O11   C30   A    
C2    C16   S    
O2    V2    S    
C34   H17   S    
C14   C28   S    
O5    C4    A    
N5    C37   S    
O9    C4    A    
C26   N6    S    
O4    V1    S    
C5    H5    S    
C27   C35   S    
O14   C30   A    
C37   H22   S    
O19   V4    S    
C17   H7    S    
H2    C8    S    
C14   C24   A    
C4    C5    S    
C6    C8    D    
O6    V1    S    
C19   C21   A    
C9    C11   D    
C10   C12   D    
C18   H8    S    
O7    V2    S    
O5    V1    S    
O3    V1    S    
V1    O10   S    
O17   V4    S    
O6    C3    A    
O8    C3    A    
C26   C28   S    
C15   C17   A    
C16   C18   A    
H3    C9    S    
C33   H12   S    
C34   H18   S    
C11   N1    S    
O12   C29   A    
C35   N3    T    
O18   V4    S    
C20   C22   A    
C28   C42   S    
V4    O20   S    
C13   C23   A    
C25   C39   S    
N6    H23   S    
O12   V4    S    
C28   C36   S    
C38   H26   S    
