data_mof_unit_23117.cif
_audit_creation_date              2012-12-10T17:50:47-0500
_audit_creation_method            fapswitch 2.2
_symmetry_space_group_name_H-M    P1
_symmetry_Int_Tables_number       1
_space_group_crystal_system       triclinic
_cell_length_a                    14.715828
_cell_length_b                    14.639302
_cell_length_c                    15.861348
_cell_angle_alpha                 76.682312
_cell_angle_beta                  103.14859
_cell_angle_gamma                 115.062451
_cell_volume                      2979.15578945

loop_
_atom_site_label
_atom_site_type_symbol
_atom_type_description
_atom_site_fract_x
_atom_site_fract_y
_atom_site_fract_z
_atom_type_partial_charge
C1    C     C_R   0.880346 0.311999 0.512784 0.802353
C2    C     C_R   0.359825 0.923342 0.494041 0.074688
C3    C     C_R   0.676439 0.001101 0.553479 0.120789
C4    C     C_R   0.323559 0.998894 0.446448 0.120838
C5    C     C_R   0.533917 0.051686 0.490732 0.055719
C6    C     C_R   0.466085 0.948313 0.509178 0.055717
C7    C     C_R   0.506391 0.872775 0.537876 -0.241080
C8    C     C_R   0.493608 0.127225 0.462026 -0.241148
C9    C     C_R   0.609599 0.899147 0.565405 -0.219831
C10   C     C_R   0.390397 0.100846 0.434508 -0.219821
C11   C     C_R   0.710921 0.664260 0.350050 -0.309996
C12   C     C_R   0.119654 0.688003 0.487211 0.802359
C13   C     C_R   0.289075 0.335727 0.649932 -0.310001
C14   C     C_R   0.794337 0.637512 0.375583 0.559644
C15   C     C_R   0.205662 0.362481 0.624410 0.559655
C16   C     C_R   0.000184 0.500366 0.659995 0.830281
C17   C     C_R   0.999815 0.499633 0.340005 0.830286
C18   C     C_R   0.714048 0.510467 0.487535 0.024473
C19   C     C_R   0.285954 0.489543 0.512465 0.024515
C20   C     C_R   0.629731 0.540188 0.468714 -0.012811
C21   C     C_R   0.370262 0.459813 0.531270 -0.012796
C22   C     C_R   0.626525 0.615654 0.394857 0.010821
C23   C     C_R   0.779578 0.028179 0.586097 -0.177661
C24   C     C_R   0.373464 0.384332 0.605116 0.010827
C25   C     C_R   0.546594 0.493792 0.518056 -0.060019
C26   C     C_R   0.453397 0.506212 0.481925 -0.060029
C27   C     C_R   0.447333 0.565711 0.398361 0.301937
C28   C     C_R   0.552654 0.434289 0.601618 0.301951
C29   C     C_R   0.536279 0.634088 0.363903 0.057053
C30   C     C_R   0.463705 0.365890 0.636057 0.057076
C31   C     C_3   0.033196 0.429990 0.050251 0.348114
C32   C     C_3   0.966802 0.570002 0.949752 0.348169
C33   C     C_3   0.939990 0.407767 0.977882 0.346514
C34   C     C_R   0.220415 0.971817 0.413850 -0.177658
C35   C     C_3   0.060010 0.592227 0.022121 0.346578
C36   C     C_1   0.000915 0.501082 0.749524 -0.083613
C37   C     C_1   0.999083 0.498914 0.250477 -0.083602
C38   C     C_3   0.095681 0.523326 0.988923 -0.108853
C39   C     C_3   0.904319 0.476667 0.011081 -0.108843
C40   C     C_3   0.002233 0.501064 0.916836 -0.140425
C41   C     C_3   0.997766 0.498928 0.083167 -0.140406
C42   C     C_1   0.001893 0.501351 0.825115 0.129757
C43   C     C_1   0.998105 0.498643 0.174887 0.129752
C44   C     C_R   0.812735 0.203370 0.519773 -0.093435
C45   C     C_R   0.846034 0.129972 0.574105 -0.159042
C46   C     C_R   0.187264 0.796636 0.480203 -0.093443
C47   C     C_3   0.796969 0.449881 0.028123 -0.344305
C48   C     C_3   0.718874 0.432682 0.944629 -0.258877
C49   C     C_3   0.612199 0.401810 0.964613 -0.830329
C50   C     C_3   0.203023 0.550069 0.971889 -0.344137
C51   C     C_3   0.281139 0.567381 0.055369 -0.259132
C52   C     C_3   0.387742 0.597882 0.035434 -0.830364
C53   C     C_3   0.305132 0.770372 0.618081 -0.376376
C54   C     C_3   0.357119 0.842411 0.687255 -0.349273
C55   C     C_3   0.354718 0.782952 0.779967 -0.816313
C56   C     C_R   0.153955 0.870027 0.425870 -0.159021
C57   C     C_3   0.694923 0.229662 0.381874 -0.376384
C58   C     C_3   0.642907 0.157627 0.312697 -0.349108
C59   C     C_3   0.645492 0.217095 0.219975 -0.816215
C60   C     C_3   0.529685 0.724202 0.294928 -0.365388
C61   C     C_3   0.500612 0.793511 0.333795 -0.347365
C62   C     C_3   0.490162 0.882239 0.265591 -0.781625
C63   C     C_3   0.470287 0.275758 0.705010 -0.365490
C64   C     C_3   0.499534 0.206561 0.666176 -0.347647
C65   C     C_3   0.509894 0.117766 0.734334 -0.781604
C66   C     C_R   0.712735 0.172953 0.474386 0.020516
C67   C     C_R   0.287279 0.827062 0.525567 0.020504
C68   C     C_R   0.640180 0.076660 0.505884 0.074638
Cl1   Cl    Cl    0.863898 0.284510 0.947720 -0.533800
Cl2   Cl    Cl    0.136091 0.715483 0.052288 -0.533813
Cl3   Cl    Cl    0.106273 0.297387 0.687244 -0.597563
Cl4   Cl    Cl    0.893731 0.702608 0.312756 -0.597570
Cl5   Cl    Cl    0.330785 0.540013 0.325787 -0.650822
Cl6   Cl    Cl    0.669184 0.460023 0.674215 -0.650798
Cl7   Cl    Cl    0.072791 0.334279 0.118461 -0.518649
Cl8   Cl    Cl    0.927207 0.665710 0.881538 -0.518658
Cu1   Cu    Cu3+1 0.081740 0.475690 0.522610 1.013142
Cu2   Cu    Cu3+1 0.918260 0.524310 0.477390 1.013126
H1    H     H_    0.286061 0.555569 0.465334 0.185111
H2    H     H_    0.192212 0.028499 0.375557 0.171171
H3    H     H_    0.459189 0.792933 0.538832 0.152118
H4    H     H_    0.540812 0.207080 0.461033 0.152151
H5    H     H_    0.590166 0.329326 0.011261 0.258461
H6    H     H_    0.608647 0.462468 0.993286 0.262555
H7    H     H_    0.557329 0.390414 0.903139 0.253617
H8    H     H_    0.737525 0.503583 0.896162 0.282909
H9    H     H_    0.719366 0.371561 0.914599 0.268390
H10   H     H_    0.775780 0.379561 0.077150 0.207377
H11   H     H_    0.797495 0.512939 0.056325 0.226405
H12   H     H_    0.713951 0.444461 0.534683 0.185104
H13   H     H_    0.391117 0.536988 0.006971 0.262661
H14   H     H_    0.409882 0.670222 0.988622 0.258449
H15   H     H_    0.442629 0.609386 0.096898 0.253624
H16   H     H_    0.280826 0.628727 0.085202 0.268288
H17   H     H_    0.262379 0.496619 0.103988 0.283050
H18   H     H_    0.202480 0.486943 0.943773 0.226505
H19   H     H_    0.224207 0.620329 0.922797 0.207240
H20   H     H_    0.275077 0.739337 0.792295 0.253073
H21   H     H_    0.392884 0.729412 0.789174 0.257765
H22   H     H_    0.394726 0.836812 0.828190 0.255753
H23   H     H_    0.713191 0.719858 0.292039 0.176439
H24   H     H_    0.437475 0.889032 0.678853 0.235441
H25   H     H_    0.317880 0.894741 0.679900 0.233719
H26   H     H_    0.230939 0.716547 0.638764 0.199382
H27   H     H_    0.346547 0.721720 0.620751 0.194123
H28   H     H_    0.607491 0.270799 0.210708 0.257708
H29   H     H_    0.725183 0.260538 0.207702 0.253081
H30   H     H_    0.605402 0.163245 0.171750 0.255721
H31   H     H_    0.682032 0.105169 0.320126 0.233704
H32   H     H_    0.562499 0.111129 0.321032 0.235359
H33   H     H_    0.653549 0.278354 0.379196 0.194080
H34   H     H_    0.286818 0.280131 0.707946 0.176433
H35   H     H_    0.769136 0.283458 0.361200 0.199378
H36   H     H_    0.563617 0.931249 0.241476 0.249910
H37   H     H_    0.431255 0.853213 0.209523 0.281773
H38   H     H_    0.467198 0.929074 0.295714 0.241383
H39   H     H_    0.427468 0.749616 0.359749 0.248776
H40   H     H_    0.560178 0.824669 0.388870 0.224463
H41   H     H_    0.601093 0.773546 0.268991 0.192845
H42   H     H_    0.473020 0.695692 0.237506 0.241658
H43   H     H_    0.568605 0.146709 0.790546 0.281747
H44   H     H_    0.436340 0.068642 0.758239 0.249875
H45   H     H_    0.637452 0.839406 0.593989 0.168510
H46   H     H_    0.533092 0.071083 0.704255 0.241450
H47   H     H_    0.440121 0.175496 0.611015 0.224524
H48   H     H_    0.572739 0.250504 0.640375 0.248950
H49   H     H_    0.526853 0.304251 0.762482 0.241629
H50   H     H_    0.398837 0.226338 0.730846 0.192927
H51   H     H_    0.362542 0.160584 0.405922 0.168513
H52   H     H_    0.076259 0.849160 0.393969 0.217772
H53   H     H_    0.923723 0.150837 0.606025 0.217770
H54   H     H_    0.807775 0.971491 0.624391 0.171168
N1    N     N_R   0.795440 0.560790 0.443380 -0.222634
N2    N     N_R   0.204560 0.439210 0.556620 -0.222633
O1    O     O_R   0.977900 0.338120 0.529810 -0.536460
O2    O     O_R   0.022100 0.661880 0.470190 -0.536455
O3    O     O_R   0.839850 0.379180 0.491620 -0.605605
O4    O     O_R   0.160150 0.620820 0.508380 -0.605603
O5    O     O_R   0.069010 0.479460 0.640020 -0.545180
O6    O     O_R   0.930990 0.520540 0.359980 -0.545185
O7    O     O_R   0.930960 0.520530 0.601820 -0.549451
O8    O     O_R   0.069040 0.479470 0.398180 -0.549432

loop_
_geom_bond_atom_site_label_1
_geom_bond_atom_site_label_2
_ccdc_geom_bond_type
C66   C68   A    
C21   C26   A    
C34   C56   A    
C23   C45   A    
C22   C29   A    
C27   C29   A    
C58   H31   S    
C47   H11   S    
C36   C42   T    
C3    C68   A    
C57   C66   S    
C28   Cl6   S    
C39   C41   S    
C15   N2    A    
C53   C54   S    
C19   N2    A    
C63   H49   S    
C26   C27   A    
C33   C39   S    
C60   H41   S    
C8    H4    S    
C49   H6    S    
C19   C21   A    
C62   H36   S    
C13   H34   S    
C5    C6    A    
C11   C14   A    
C32   C39   S    
C20   C25   A    
C53   H26   S    
C18   N1    A    
C65   H46   S    
C3    C23   A    
Cu1   O8    S    
C34   H2    S    
C44   C66   A    
C35   Cl2   S    
C55   H22   S    
C31   C33   S    
C47   H10   S    
C65   H43   S    
C18   C20   A    
C63   H50   S    
C33   Cl1   S    
C40   C42   S    
C30   C63   S    
C41   C43   S    
C2    C6    A    
C5    C68   A    
C35   C41   S    
C46   C56   A    
C4    C34   A    
C59   H28   S    
C61   H39   S    
C51   C52   S    
C33   C40   S    
C32   C35   S    
C49   H7    S    
C54   H25   S    
C35   C38   S    
Cu1   O4    S    
C12   C46   S    
C2    C67   A    
Cu2   O7    S    
C57   H35   S    
C25   C26   A    
Cu1   Cu2   S    
C59   H29   S    
C13   C24   A    
C17   O8    A    
C25   C28   A    
C18   H12   S    
C37   C43   T    
C2    C4    A    
C62   H38   S    
C3    C9    A    
C1    C44   S    
C31   Cl7   S    
C47   C48   S    
C29   C60   S    
C50   C51   S    
C48   H9    S    
C52   H15   S    
C11   H23   S    
C17   C37   S    
C65   H44   S    
C19   H1    S    
C48   C49   S    
C7    H3    S    
C20   C22   A    
C45   H53   S    
C64   H48   S    
C13   C15   A    
C12   O4    A    
C52   H14   S    
C16   O5    A    
Cu1   N2    S    
C4    C10   A    
Cu2   O3    S    
C1    O3    A    
C44   C45   A    
C39   C47   S    
C7    C9    A    
C54   C55   S    
C50   H19   S    
C31   C41   S    
C61   H40   S    
C58   H32   S    
C14   Cl4   S    
C54   H24   S    
Cu1   O5    S    
Cu2   O6    S    
C32   Cl8   S    
C5    C8    A    
C6    C7    A    
C38   C50   S    
C14   N1    A    
C15   Cl3   S    
C11   C22   A    
C59   H30   S    
C31   C38   S    
C64   C65   S    
C49   H5    S    
C28   C30   A    
C16   O7    A    
C58   C59   S    
C10   H51   S    
C46   C67   A    
C1    O1    A    
C16   C36   S    
C38   C40   S    
C50   H18   S    
C57   C58   S    
C57   H33   S    
C55   H20   S    
C9    H45   S    
C23   H54   S    
C60   H42   S    
C17   O6    A    
C48   H8    S    
C32   C40   S    
C61   C62   S    
C53   C67   S    
Cu2   N1    S    
C24   C30   A    
C51   H16   S    
C63   C64   S    
C53   H27   S    
C62   H37   S    
C8    C10   A    
C64   H47   S    
C12   O2    A    
C21   C24   A    
C55   H21   S    
C60   C61   S    
C52   H13   S    
Cu1   O1    S    
C27   Cl5   S    
Cu2   O2    S    
C56   H52   S    
C51   H17   S    
