data_mof_unit_46211.cif
_audit_creation_date              2012-10-26T17:13:02-0400
_audit_creation_method            fapswitch 2.2
_symmetry_space_group_name_H-M    P1
_symmetry_Int_Tables_number       1
_space_group_crystal_system       triclinic
_cell_length_a                    16.794038
_cell_length_b                    16.794039
_cell_length_c                    16.794039
_cell_angle_alpha                 67.565317
_cell_angle_beta                  67.565307
_cell_angle_gamma                 67.565314
_cell_volume                      3889.30516419

loop_
_atom_site_label
_atom_site_type_symbol
_atom_type_description
_atom_site_fract_x
_atom_site_fract_y
_atom_site_fract_z
_atom_type_partial_charge
C1    C     C_R   0.309343 0.009081 0.430971 -0.014032
C2    C     C_R   0.323978 0.449164 0.956702 -0.011382
C3    C     C_R   0.524968 0.405297 0.030054 0.003311
C4    C     C_R   0.969944 0.475033 0.594703 0.003313
C5    C     C_R   0.030052 0.524969 0.405297 0.003311
C6    C     C_2   0.262486 0.159647 0.737968 0.207956
C7    C     C_2   0.737514 0.840347 0.262036 0.207958
C8    C     C_2   0.159642 0.737972 0.262485 0.207955
C9    C     C_2   0.840338 0.262043 0.737513 0.207958
C10   C     C_2   0.737965 0.262486 0.159651 0.207958
C11   C     C_2   0.262036 0.737514 0.840347 0.207955
C12   C     C_2   0.164313 0.135060 0.647354 0.180247
C13   C     C_R   0.043297 0.676022 0.550836 -0.011383
C14   C     C_2   0.835687 0.864934 0.352649 0.180245
C15   C     C_2   0.647352 0.164314 0.135064 0.180247
C16   C     C_2   0.352649 0.835686 0.864935 0.180245
C17   C     C_2   0.135052 0.647360 0.164313 0.180247
C18   C     C_2   0.864925 0.352657 0.835685 0.180244
C19   C     C_R   0.956702 0.323978 0.449163 -0.011382
C20   C     C_R   0.451884 0.992609 0.451416 0.008952
C21   C     C_R   0.548116 0.007390 0.548584 0.008952
C22   C     C_R   0.992609 0.451416 0.451884 0.008952
C23   C     C_R   0.007389 0.548585 0.548116 0.008953
C24   C     C_R   0.451416 0.451884 0.992609 0.008953
C25   C     C_R   0.548584 0.548116 0.007390 0.008952
C26   C     C_R   0.028113 0.828308 0.564738 0.531772
C27   C     C_R   0.690657 0.990918 0.569030 -0.014032
C28   C     C_R   0.971887 0.171692 0.435262 0.531773
C29   C     C_R   0.828308 0.564738 0.028113 0.531773
C30   C     C_R   0.171692 0.435262 0.971887 0.531772
C31   C     C_R   0.564738 0.028113 0.828308 0.531773
C32   C     C_R   0.435262 0.971887 0.171692 0.531773
C33   C     C_R   0.430196 0.168418 0.986176 0.539771
C34   C     C_R   0.569804 0.831581 0.013824 0.539771
C35   C     C_R   0.986176 0.430196 0.168418 0.539771
C36   C     C_R   0.013824 0.569804 0.831581 0.539771
C37   C     C_R   0.168419 0.986175 0.430196 0.539771
C38   C     C_R   0.009081 0.430971 0.309343 -0.014033
C39   C     C_R   0.831581 0.013824 0.569804 0.539771
C40   C     C_R   0.403582 0.985343 0.402618 0.028272
C41   C     C_R   0.596418 0.014656 0.597382 0.028272
C42   C     C_R   0.985342 0.402618 0.403582 0.028272
C43   C     C_R   0.014657 0.597382 0.596418 0.028272
C44   C     C_R   0.402618 0.403582 0.985343 0.028272
C45   C     C_R   0.597382 0.596418 0.014657 0.028272
C46   C     C_R   0.262596 0.988854 0.389300 -0.026379
C47   C     C_R   0.737404 0.011145 0.610700 -0.026378
C48   C     C_R   0.988855 0.389300 0.262595 -0.026379
C49   C     C_R   0.990918 0.569029 0.690656 -0.014031
C50   C     C_R   0.011146 0.610700 0.737404 -0.026378
C51   C     C_R   0.389300 0.262596 0.988855 -0.026378
C52   C     C_R   0.610700 0.737404 0.011145 -0.026378
C53   C     C_R   0.601479 0.037667 0.730586 -0.023782
C54   C     C_R   0.398521 0.962333 0.269414 -0.023782
C55   C     C_R   0.730586 0.601479 0.037667 -0.023782
C56   C     C_R   0.269414 0.398521 0.962333 -0.023782
C57   C     C_R   0.037667 0.730586 0.601479 -0.023782
C58   C     C_R   0.962333 0.269414 0.398521 -0.023781
C59   C     C_R   0.457039 0.077389 0.696853 -0.074147
C60   C     C_R   0.430971 0.309343 0.009081 -0.014032
C61   C     C_R   0.542961 0.922610 0.303147 -0.074147
C62   C     C_R   0.077389 0.696854 0.457039 -0.074148
C63   C     C_R   0.922609 0.303148 0.542961 -0.074145
C64   C     C_R   0.696853 0.457039 0.077390 -0.074145
C65   C     C_R   0.303147 0.542961 0.922610 -0.074148
C66   C     C_R   0.264856 0.054253 0.497991 -0.080469
C67   C     C_R   0.735144 0.945746 0.502010 -0.080470
C68   C     C_R   0.497990 0.264856 0.054254 -0.080470
C69   C     C_R   0.502010 0.735144 0.945746 -0.080469
C70   C     C_R   0.054253 0.497991 0.264856 -0.080465
C71   C     C_R   0.569030 0.690657 0.990918 -0.014032
C72   C     C_R   0.945745 0.502010 0.735144 -0.080473
C73   C     C_R   0.307136 0.970379 0.306700 -0.142387
C74   C     C_R   0.692864 0.029621 0.693300 -0.142386
C75   C     C_R   0.970379 0.306700 0.307136 -0.142386
C76   C     C_R   0.029621 0.693299 0.692864 -0.142386
C77   C     C_R   0.306700 0.307136 0.970379 -0.142386
C78   C     C_R   0.693300 0.692864 0.029621 -0.142386
C79   C     C_R   0.689282 0.938304 0.451574 0.013503
C80   C     C_R   0.310718 0.061694 0.548427 0.013503
C81   C     C_R   0.938302 0.451575 0.689282 0.013501
C82   C     C_R   0.550836 0.043297 0.676022 -0.011383
C83   C     C_R   0.061693 0.548428 0.310718 0.013506
C84   C     C_R   0.451574 0.689282 0.938304 0.013504
C85   C     C_R   0.548427 0.310718 0.061695 0.013502
C86   C     C_R   0.592541 0.922821 0.354599 0.013363
C87   C     C_R   0.407459 0.077177 0.645402 0.013362
C88   C     C_R   0.354599 0.592541 0.922821 0.013362
C89   C     C_R   0.645401 0.407459 0.077178 0.013363
C90   C     C_R   0.922819 0.354601 0.592540 0.013364
C91   C     C_R   0.077175 0.645403 0.407459 0.013362
C92   C     C_R   0.735886 0.897643 0.380070 -0.006414
C93   C     C_R   0.449164 0.956702 0.323978 -0.011383
C94   C     C_R   0.264114 0.102353 0.619932 -0.006415
C95   C     C_R   0.897639 0.380074 0.735885 -0.006414
C96   C     C_R   0.102349 0.619935 0.264113 -0.006416
C97   C     C_R   0.380070 0.735886 0.897644 -0.006414
C98   C     C_R   0.619930 0.264114 0.102355 -0.006415
C99   C     C_R   0.687274 0.887221 0.333643 -0.003638
C100  C     C_R   0.312726 0.112775 0.666358 -0.003638
C101  C     C_R   0.333643 0.687274 0.887222 -0.003639
C102  C     C_R   0.666357 0.312726 0.112777 -0.003636
C103  C     C_R   0.887217 0.333647 0.687273 -0.003637
C104  C     C_R   0.676022 0.550836 0.043297 -0.011383
C105  C     C_R   0.112772 0.666361 0.312726 -0.003640
C106  C     C_R   0.546535 0.962243 0.426657 0.001538
C107  C     C_R   0.453466 0.037755 0.573344 0.001538
C108  C     C_R   0.962243 0.426658 0.546534 0.001539
C109  C     C_R   0.037754 0.573345 0.453465 0.001538
C110  C     C_R   0.426657 0.546535 0.962244 0.001540
C111  C     C_R   0.573344 0.453466 0.037755 0.001537
C112  C     C_R   0.594703 0.969945 0.475033 0.003312
C113  C     C_R   0.405297 0.030053 0.524968 0.003312
C114  C     C_R   0.475033 0.594703 0.969945 0.003313
Cu1   Cu    Cu3+1 0.995180 0.995180 0.424630 1.056602
Cu2   Cu    Cu3+1 0.004820 0.004820 0.575370 1.056602
Cu3   Cu    Cu3+1 0.995180 0.424630 0.995180 1.056599
Cu4   Cu    Cu3+1 0.004820 0.575370 0.004820 1.056606
Cu5   Cu    Cu3+1 0.424630 0.995180 0.995180 1.056602
Cu6   Cu    Cu3+1 0.575370 0.004820 0.004820 1.056600
H1    H     H_    0.269645 0.965107 0.269683 0.174135
H2    H     H_    0.893183 0.248080 0.577090 0.197230
H3    H     H_    0.751921 0.422910 0.106816 0.197230
H4    H     H_    0.248079 0.577090 0.893183 0.197229
H5    H     H_    0.194686 0.088854 0.506948 0.182550
H6    H     H_    0.805314 0.911145 0.493052 0.182551
H7    H     H_    0.506948 0.194686 0.088854 0.182551
H8    H     H_    0.493052 0.805314 0.911145 0.182551
H9    H     H_    0.088854 0.506947 0.194686 0.182552
H10   H     H_    0.911146 0.493052 0.805314 0.182551
H11   H     H_    0.202690 0.142982 0.787490 0.129200
H12   H     H_    0.730355 0.034893 0.730317 0.174134
H13   H     H_    0.797313 0.857008 0.212515 0.129199
H14   H     H_    0.142974 0.787495 0.202691 0.129196
H15   H     H_    0.856991 0.212526 0.797316 0.129202
H16   H     H_    0.787486 0.202688 0.142989 0.129201
H17   H     H_    0.212515 0.797313 0.857009 0.129199
H18   H     H_    0.131563 0.200687 0.659247 0.119952
H19   H     H_    0.868436 0.799306 0.340759 0.119948
H20   H     H_    0.659242 0.131564 0.200692 0.119950
H21   H     H_    0.340759 0.868436 0.799306 0.119950
H22   H     H_    0.200675 0.659263 0.131560 0.119951
H23   H     H_    0.965107 0.269682 0.269645 0.174135
H24   H     H_    0.799293 0.340776 0.868431 0.119949
H25   H     H_    0.034894 0.730317 0.730355 0.174135
H26   H     H_    0.269683 0.269645 0.965107 0.174135
H27   H     H_    0.730317 0.730355 0.034893 0.174135
H28   H     H_    0.422910 0.106816 0.751921 0.197229
H29   H     H_    0.577090 0.893183 0.248079 0.197230
H30   H     H_    0.106815 0.751922 0.422909 0.197231
O1    O     O_R   0.124540 0.978640 0.385460 -0.507679
O2    O     O_R   0.124540 0.385460 0.978640 -0.500494
O3    O     O_R   0.021360 0.875460 0.614540 -0.500493
O4    O     O_R   0.978640 0.124540 0.385460 -0.500493
O5    O     O_R   0.013780 0.867370 0.487190 -0.511793
O6    O     O_R   0.986220 0.132630 0.512810 -0.511793
O7    O     O_R   0.867370 0.487190 0.013780 -0.511792
O8    O     O_R   0.132630 0.512810 0.986220 -0.511792
O9    O     O_R   0.487190 0.013780 0.867370 -0.511792
O10   O     O_R   0.512810 0.986220 0.132630 -0.511792
O11   O     O_R   0.512810 0.132630 0.986220 -0.484686
O12   O     O_R   0.875460 0.021360 0.614540 -0.507679
O13   O     O_R   0.487190 0.867370 0.013780 -0.484685
O14   O     O_R   0.986220 0.512810 0.132630 -0.484680
O15   O     O_R   0.013780 0.487190 0.867370 -0.484689
O16   O     O_R   0.132630 0.986220 0.512810 -0.484684
O17   O     O_R   0.867370 0.013780 0.487190 -0.484685
O18   O     O_2   0.284650 0.220405 0.739144 -0.494765
O19   O     O_2   0.715346 0.779591 0.260859 -0.494764
O20   O     O_2   0.220400 0.739148 0.284648 -0.494764
O21   O     O_2   0.779586 0.260867 0.715340 -0.494767
O22   O     O_2   0.739141 0.284653 0.220407 -0.494765
O23   O     O_R   0.978640 0.385460 0.124540 -0.507680
O24   O     O_2   0.260860 0.715347 0.779591 -0.494764
O25   O     O_2   0.118207 0.087254 0.661337 -0.506308
O26   O     O_2   0.881794 0.912740 0.338664 -0.506311
O27   O     O_2   0.661336 0.118206 0.087258 -0.506310
O28   O     O_2   0.338664 0.881794 0.912741 -0.506310
O29   O     O_2   0.087247 0.661334 0.118208 -0.506310
O30   O     O_2   0.912731 0.338665 0.881795 -0.506310
O31   O     O_R   0.021360 0.614540 0.875460 -0.507679
O32   O     O_R   0.385460 0.124540 0.978640 -0.507679
O33   O     O_R   0.614540 0.875460 0.021360 -0.507679
O34   O     O_R   0.614540 0.021360 0.875460 -0.500494
O35   O     O_R   0.385460 0.978640 0.124540 -0.500493
O36   O     O_R   0.875460 0.614540 0.021360 -0.500492

loop_
_geom_bond_atom_site_label_1
_geom_bond_atom_site_label_2
_ccdc_geom_bond_type
C96   C105  A    
C38   C70   A    
C18   C95   S    
C74   H12   S    
C31   O34   A    
C3    C85   A    
C91   C105  A    
C53   C74   A    
C59   C82   A    
C40   C93   A    
C2    C65   A    
C12   C94   S    
C8    C105  S    
C21   C112  A    
C51   C77   A    
C88   C101  A    
Cu4   O36   S    
C22   C108  A    
C106  C112  A    
C4    C108  A    
Cu4   O14   S    
C7    C99   S    
C32   O35   A    
C84   C97   A    
C57   C76   A    
Cu2   O12   S    
C10   H16   S    
C38   C42   A    
C20   C113  A    
C81   C95   A    
C61   C93   A    
C1    C46   A    
C13   C57   A    
C83   C96   A    
C25   C45   A    
C10   O22   D    
Cu1   Cu2   S    
C23   C43   A    
C29   O36   A    
C80   C94   A    
C64   C104  A    
C87   C100  A    
C65   H4    S    
C32   C54   S    
C69   C71   A    
Cu3   O23   S    
C107  C113  A    
C54   C93   A    
C14   O26   D    
C85   C98   A    
C1    C40   A    
C13   C62   A    
C69   H8    S    
C2    C44   A    
C95   C103  A    
C49   C72   A    
C110  C114  A    
C38   C48   A    
C72   C81   A    
C37   C46   S    
C19   C42   A    
C88   C110  A    
C59   H28   S    
C17   O29   D    
C18   O30   D    
C28   O4    A    
C68   C85   A    
C48   C75   A    
Cu2   O16   S    
C3    C24   A    
C86   C106  A    
C14   H19   S    
C64   C89   A    
C37   O1    A    
C52   C78   A    
C35   C48   S    
C26   O5    A    
Cu6   O33   S    
C8    O20   D    
C58   C75   A    
C20   C106  A    
C19   C58   A    
C23   C109  A    
C6    O18   D    
C5    C22   A    
Cu3   O7    S    
C35   O23   A    
C10   C102  S    
C24   C110  A    
C34   O13   A    
C67   H6    S    
C19   C63   A    
C55   C78   A    
C43   C49   A    
C29   O7    A    
C29   C55   S    
C98   C102  A    
C30   C56   S    
C55   C104  A    
C70   H9    S    
C56   C77   A    
C17   H22   S    
Cu5   O32   S    
C6    C100  S    
C33   O11   A    
Cu5   O35   S    
C86   C99   A    
C45   C104  A    
C50   C76   A    
C54   C73   A    
C27   C41   A    
C30   O2    A    
C27   C67   A    
C8    H14   S    
C94   C100  A    
C9    C103  S    
C28   O6    A    
C62   C91   A    
C89   C102  A    
C1    C66   A    
C79   C92   A    
C67   C79   A    
C34   O33   A    
C11   C101  S    
C17   C96   S    
C31   C53   S    
C39   O12   A    
C72   H10   S    
C70   C83   A    
Cu6   O34   S    
C68   H7    S    
C14   C92   S    
Cu2   O3    S    
C21   C107  A    
C75   H23   S    
Cu6   O11   S    
C12   O25   D    
C21   C41   A    
C78   H27   S    
C16   O28   D    
C76   H25   S    
C73   H1    S    
C7    O19   D    
Cu1   O4    S    
C24   C44   A    
C12   H18   S    
Cu4   O8    S    
C15   C98   S    
Cu1   O17   S    
C9    H15   S    
C13   C43   A    
C63   H2    S    
C36   C50   S    
C45   C71   A    
C65   C88   A    
C39   C47   S    
C15   H20   S    
Cu4   O31   S    
C27   C47   A    
C30   O8    A    
C11   O24   D    
C84   C114  A    
C62   H30   S    
Cu1   O5    S    
C31   O9    A    
C47   C74   A    
C6    H11   S    
C79   C112  A    
Cu5   Cu6   S    
C5    C83   A    
C7    H13   S    
C37   O16   A    
C51   C60   A    
C28   C58   S    
C33   C51   S    
C64   H3    S    
C66   C80   A    
C89   C111  A    
C34   C52   S    
C35   O14   A    
C66   H5    S    
Cu5   O13   S    
C91   C109  A    
C15   O27   D    
C16   H21   S    
C11   H17   S    
C90   C108  A    
Cu3   O15   S    
C69   C84   A    
C52   C71   A    
C25   C114  A    
C22   C42   A    
C5    C109  A    
C44   C60   A    
C20   C40   A    
C41   C82   A    
C4    C81   A    
C63   C90   A    
C18   H24   S    
C36   O15   A    
Cu3   O2    S    
C39   O17   A    
C16   C97   S    
C26   C57   S    
C59   C87   A    
C90   C103  A    
Cu2   O6    S    
C9    O21   D    
C61   C86   A    
C25   C111  A    
C3    C111  A    
C87   C107  A    
C80   C113  A    
C60   C68   A    
Cu5   O9    S    
C49   C50   A    
Cu1   O1    S    
C33   O32   A    
Cu6   O10   S    
C53   C82   A    
C26   O3    A    
C2    C56   A    
C36   O31   A    
C4    C23   A    
Cu3   Cu4   S    
C61   H29   S    
C77   H26   S    
C46   C73   A    
C97   C101  A    
C92   C99   A    
C32   O10   A    
