data_mof_unit_29720.cif
_audit_creation_date              2012-12-11T15:40:35-0500
_audit_creation_method            fapswitch 2.2
_symmetry_space_group_name_H-M    P1
_symmetry_Int_Tables_number       1
_space_group_crystal_system       triclinic
_cell_length_a                    7.056642
_cell_length_b                    18.711256
_cell_length_c                    20.801946
_cell_angle_alpha                 107.263495
_cell_angle_beta                  89.361117
_cell_angle_gamma                 91.070461
_cell_volume                      2622.42072744

loop_
_atom_site_label
_atom_site_type_symbol
_atom_type_description
_atom_site_fract_x
_atom_site_fract_y
_atom_site_fract_z
_atom_type_partial_charge
O1    O     O_R   0.494330 0.423860 0.422200 -0.532153
O2    O     O_R   0.819690 0.434890 0.556180 -0.531324
O3    O     O_R   0.994310 0.576140 0.577800 -0.529194
C1    C     C_R   0.650755 0.420406 0.575839 0.728089
O4    O     O_R   0.823770 0.415220 0.421380 -0.537687
O5    O     O_R   0.998410 0.556340 0.442040 -0.543182
C2    C     C_R   0.654702 0.393622 0.396005 0.709906
O6    O     O_R   0.490230 0.443660 0.557960 -0.534989
O7    O     O_3   0.662220 0.546320 0.506940 -0.370823
V1    V     V_3+5 0.935390 0.491410 0.498710 1.430470
O8    O     O_R   0.328380 0.565110 0.443820 -0.535874
C3    C     C_R   0.162765 0.578557 0.423136 0.716830
O9    O     O_R   0.324310 0.584780 0.578620 -0.533539
C4    C     C_R   0.155753 0.606094 0.604271 0.731215
V2    V     V_3+5 0.435920 0.508590 0.501290 1.432814
O10   O     O_3   0.159220 0.453680 0.493060 -0.367882
C5    C     C_1   0.146030 0.668289 0.666723 -0.177920
C6    C     C_1   0.134903 0.719754 0.719101 0.019828
C7    C     C_1   0.120606 0.780129 0.780924 0.019128
C8    C     C_1   0.109453 0.831457 0.833389 -0.176857
C9    C     C_3   0.162730 0.788852 0.308722 0.223408
C10   C     C_3   0.974582 0.791000 0.271786 0.302490
C11   C     C_1   0.089708 0.874467 0.121053 -0.194356
C12   C     C_1   0.165922 0.621828 0.375466 -0.211223
C13   C     C_3   0.276547 0.786558 0.243723 0.239747
C14   C     C_3   0.089839 0.791178 0.206937 -0.142887
C15   C     C_3   0.261127 0.699776 0.221155 -0.142604
C16   C     C_3   0.147609 0.701333 0.286496 -0.159592
C17   C     C_3   0.076348 0.705155 0.184338 0.331085
C18   C     C_3   0.961587 0.704711 0.248119 0.290711
C19   C     C_1   0.083012 0.836574 0.159425 0.057422
C20   C     C_1   0.167434 0.657438 0.335044 0.039317
C21   C     C_3   0.503158 0.182060 0.716949 -0.170288
C22   C     C_3   0.692964 0.202090 0.686677 0.222148
C23   C     C_1   0.644721 0.373111 0.619856 -0.180429
C24   C     C_1   0.605573 0.125108 0.878454 -0.196076
C25   C     C_3   0.443965 0.265095 0.731200 0.426297
C26   C     C_3   0.632648 0.284907 0.701638 -0.037358
C27   C     C_3   0.535017 0.285563 0.802544 -0.252851
C28   C     C_3   0.596667 0.203150 0.787998 -0.019173
C29   C     C_3   0.723929 0.303621 0.771807 -0.125605
C30   C     C_3   0.783568 0.221556 0.756964 0.349061
C31   C     C_1   0.642746 0.333209 0.656500 0.079788
C32   C     C_1   0.597508 0.161490 0.838880 0.041426
H1    H     H_    0.467904 0.320143 0.849794 0.152459
C33   C     C_1   0.643873 0.331371 0.333618 -0.187660
C34   C     C_1   0.633562 0.279957 0.281162 0.005004
C35   C     C_1   0.620931 0.219659 0.219218 0.010671
C36   C     C_1   0.610682 0.168349 0.166685 -0.192013
O11   O     O_R   0.764940 0.056420 0.942120 -0.535725
O12   O     O_R   0.431180 0.084790 0.078640 -0.534138
O13   O     O_R   0.256690 0.943640 0.057940 -0.532979
C37   C     C_R   0.600112 0.106323 0.104123 0.715946
O14   O     O_R   0.435470 0.065130 0.943840 -0.539330
O15   O     O_R   0.261010 0.923840 0.922180 -0.532721
C38   C     C_R   0.603932 0.079729 0.924234 0.722804
O16   O     O_R   0.760620 0.076220 0.077880 -0.534250
O17   O     O_3   0.592970 0.953720 0.993110 -0.364295
V3    V     V_3+5 0.319740 0.008590 0.001280 1.420817
O18   O     O_R   0.931020 0.915140 0.921290 -0.532218
C39   C     C_R   0.099653 0.893431 0.895983 0.712955
O19   O     O_R   0.926730 0.934800 0.056090 -0.536226
C40   C     C_R   0.092633 0.920484 0.075921 0.722156
V4    V     V_3+5 0.819230 0.991300 0.998610 1.424758
O20   O     O_3   0.095870 0.046270 0.006890 -0.370240
O21   O     O_3   0.820879 0.834096 0.305116 -0.556556
C41   C     C_3   0.783780 0.819229 0.367795 0.079105
H2    H     H_    0.785988 0.872983 0.408450 0.120350
H3    H     H_    0.882628 0.780977 0.381996 0.150125
C42   C     C_3   0.589044 0.786308 0.368773 -0.275944
H4    H     H_    0.499711 0.826981 0.357552 0.260112
H5    H     H_    0.567864 0.733517 0.328607 0.227317
C43   C     C_3   0.539654 0.775664 0.437135 -0.807633
H6    H     H_    0.636631 0.734805 0.448229 0.218385
H7    H     H_    0.392374 0.754055 0.436797 0.264568
H8    H     H_    0.550379 0.829704 0.477624 0.225733
C44   C     C_2   0.850079 0.369086 0.804903 0.488803
H9    H     H_    0.908694 0.374115 0.853973 0.040342
O22   O     O_2   0.888132 0.416524 0.777065 -0.520112
O23   O     O_3   0.272028 0.299697 0.723892 -0.549966
C45   C     C_3   0.167632 0.259367 0.666644 0.173850
H10   H     H_    0.025576 0.284508 0.672747 0.194376
H11   H     H_    0.144887 0.200310 0.664387 0.133435
C46   C     C_3   0.249047 0.266694 0.600306 -0.402210
H12   H     H_    0.276235 0.326732 0.605468 0.226529
H13   H     H_    0.382417 0.234849 0.587730 0.187009
C47   C     C_3   0.111219 0.235984 0.542298 -0.765205
H14   H     H_    0.080282 0.175992 0.535609 0.239631
H15   H     H_    0.175357 0.241636 0.495028 0.223266
H16   H     H_    0.976801 0.267474 0.552111 0.244037
O24   O     O_3   0.192325 0.835677 0.376018 -0.580250
C48   C     C_3   0.176985 0.913206 0.381772 0.104039
H17   H     H_    0.037329 0.933541 0.402604 0.140629
H18   H     H_    0.184724 0.925794 0.333333 0.098938
C49   C     C_3   0.324054 0.960570 0.431124 -0.338648
H19   H     H_    0.298112 0.954987 0.482170 0.204739
H20   H     H_    0.470127 0.942087 0.416276 0.189216
C50   C     C_3   0.314824 0.042979 0.434235 -0.855271
H21   H     H_    0.359514 0.050340 0.385185 0.232872
H22   H     H_    0.411324 0.076726 0.473987 0.234852
H23   H     H_    0.168775 0.063892 0.445911 0.229079
O25   O     O_3   0.786183 0.665000 0.239944 -0.577247
C51   C     C_3   0.766690 0.615021 0.279078 0.085701
H24   H     H_    0.612874 0.606978 0.286529 0.179428
H25   H     H_    0.819047 0.638800 0.331059 0.106853
C52   C     C_3   0.846264 0.537832 0.242333 -0.326732
H26   H     H_    0.789340 0.518506 0.190403 0.213343
H27   H     H_    0.003057 0.540883 0.239659 0.200293
C53   C     C_3   0.789144 0.479911 0.277445 -0.789761
H28   H     H_    0.840429 0.497600 0.329930 0.236183
H29   H     H_    0.852708 0.425247 0.250504 0.228086
H30   H     H_    0.632493 0.472780 0.277586 0.232567
O26   O     O_3   0.040788 0.667686 0.115651 -0.560266
C54   C     C_3   0.986367 0.592564 0.106105 0.107420
H31   H     H_    0.831346 0.589564 0.115001 0.159676
H32   H     H_    0.064431 0.567086 0.139584 0.145086
C55   C     C_3   0.029451 0.547295 0.033526 -0.288366
H33   H     H_    0.950063 0.570389 0.998515 0.210489
H34   H     H_    0.183619 0.551661 0.023407 0.210496
C56   C     C_3   0.974204 0.465016 0.020677 -0.839173
H35   H     H_    0.051183 0.440916 0.055487 0.239863
H36   H     H_    0.012235 0.433213 0.968244 0.235181
H37   H     H_    0.819119 0.459037 0.027868 0.233859
C57   C     C_2   0.409559 0.646560 0.185143 0.452888
H38   H     H_    0.517473 0.665018 0.155840 0.118848
O27   O     O_2   0.402996 0.581311 0.184974 -0.565247
O28   O     O_3   0.457551 0.816228 0.234211 -0.547926
C58   C     C_3   0.459822 0.894603 0.246809 0.143412
H39   H     H_    0.503420 0.921370 0.299593 0.142112
H40   H     H_    0.322691 0.917752 0.238022 0.082290
C59   C     C_3   0.606445 0.915558 0.200825 -0.252066
H41   H     H_    0.744908 0.892204 0.207785 0.231217
H42   H     H_    0.563287 0.891260 0.147425 0.197284
C60   C     C_3   0.628720 0.000229 0.216877 -0.853628
H43   H     H_    0.493633 0.024895 0.207502 0.224338
H44   H     H_    0.741414 0.013374 0.184332 0.234800
H45   H     H_    0.670287 0.025585 0.270276 0.229190
O29   O     O_3   0.790569 0.165117 0.626146 -0.584212
C61   C     C_3   0.748194 0.087647 0.605278 0.084174
H46   H     H_    0.612789 0.077512 0.577035 0.124124
H47   H     H_    0.738109 0.064517 0.648493 0.145760
C62   C     C_3   0.901964 0.044535 0.558267 -0.330941
H48   H     H_    0.890642 0.054906 0.508597 0.187198
H49   H     H_    0.043880 0.063564 0.579542 0.196874
C63   C     C_3   0.879333 0.960708 0.549024 -0.832689
H50   H     H_    0.896017 0.949019 0.597977 0.239094
H51   H     H_    0.988647 0.929126 0.514025 0.236884
H52   H     H_    0.737103 0.940789 0.528399 0.224216
C64   C     C_2   0.397532 0.110145 0.686191 0.302436
H53   H     H_    0.324194 0.101102 0.639028 0.024958
O30   O     O_2   0.407189 0.058753 0.710792 -0.547055
O31   O     O_3   0.964209 0.200963 0.773071 -0.571272
C65   C     C_3   0.973685 0.122418 0.760068 0.086061
H54   H     H_    0.047128 0.098128 0.711636 0.143271
H55   H     H_    0.835127 0.092408 0.754587 0.119102
C66   C     C_3   0.079709 0.105656 0.817254 -0.252085
H56   H     H_    0.225292 0.129142 0.819803 0.226842
H57   H     H_    0.008890 0.133332 0.866010 0.187960
C67   C     C_3   0.086499 0.021712 0.807515 -0.746733
H58   H     H_    0.942713 0.999586 0.813991 0.209410
H59   H     H_    0.182318 0.011516 0.845489 0.232433
H60   H     H_    0.140707 0.991223 0.756680 0.251072

loop_
_geom_bond_atom_site_label_1
_geom_bond_atom_site_label_2
_ccdc_geom_bond_type
C47   H14   S    
O15   V3    S    
C15   C17   S    
C17   O26   S    
O11   V4    S    
C43   H6    S    
C49   H19   S    
C22   C30   S    
C46   C47   S    
C1    O6    A    
C59   C60   S    
C58   H39   S    
C45   C46   S    
C60   H45   S    
C45   H10   S    
C49   C50   S    
C64   H53   S    
C27   C29   S    
C44   H9    S    
C17   C18   S    
C66   H56   S    
C46   H13   S    
C53   H29   S    
C29   C44   S    
C61   C62   S    
C11   C40   S    
C52   H26   S    
V2    O10   S    
O8    C3    A    
C6    C7    S    
C29   C30   S    
C8    C39   S    
C10   O21   S    
O19   V4    S    
C51   H24   S    
C63   H51   S    
O8    V2    S    
C7    C8    T    
C34   C35   S    
C67   H59   S    
C42   H4    S    
O1    V2    S    
C65   H55   S    
C23   C31   T    
O7    V1    S    
C56   H37   S    
C27   H1    S    
C28   C30   S    
O21   C41   S    
C1    C23   S    
C14   C19   S    
O1    C2    A    
O9    C4    A    
C43   H7    S    
C4    C5    S    
C42   C43   S    
C45   H11   S    
C56   H36   S    
C63   H50   S    
O14   V3    S    
C44   O22   D    
O17   V4    S    
C25   O23   S    
O14   C38   A    
C21   C28   S    
C62   C63   S    
C41   H2    S    
C2    C33   S    
C16   C20   S    
C46   H12   S    
C26   C29   S    
C55   C56   S    
O24   C48   S    
O4    C2    A    
C55   H34   S    
C60   H44   S    
O17   V3    S    
C22   O29   S    
C48   C49   S    
C21   C25   S    
C26   C31   S    
O18   C39   A    
O12   C37   A    
C11   C19   T    
O2    C1    A    
C12   C20   T    
C25   C26   S    
C24   C38   S    
O13   V3    S    
C67   H58   S    
C15   C57   S    
C18   O25   S    
O19   C40   A    
C48   H18   S    
C5    C6    T    
C67   H60   S    
C51   H25   S    
C65   C66   S    
O3    C4    A    
C35   C36   T    
C9    C16   S    
O6    V2    S    
C50   H22   S    
O9    V2    S    
C43   H8    S    
C64   O30   D    
C53   H30   S    
O12   V3    S    
C59   H41   S    
O2    V1    S    
C58   C59   S    
C27   C28   S    
C63   H52   S    
C30   O31   S    
C56   H35   S    
O16   V4    S    
C57   O27   D    
O26   C54   S    
C9    O24   S    
C9    C13   S    
C33   C34   T    
C37   O16   A    
C10   C18   S    
C22   C26   S    
C66   C67   S    
O23   C45   S    
C59   H42   S    
O13   C40   A    
C58   H40   S    
O5    V1    S    
C54   H32   S    
C61   H46   S    
C49   H20   S    
C54   H31   S    
C60   H43   S    
C13   C15   S    
C50   H23   S    
C3    C12   S    
O18   V4    S    
C41   C42   S    
V4    O20   S    
C66   H57   S    
C13   C14   S    
O4    V1    S    
C25   C27   S    
O3    V1    S    
C21   C64   S    
C55   H33   S    
V3    O20   S    
O5    C3    A    
C61   H47   S    
C52   H27   S    
C36   C37   S    
O15   C39   A    
C16   C18   S    
C48   H17   S    
C21   C22   S    
C51   C52   S    
C62   H49   S    
C13   O28   S    
O25   C51   S    
O11   C38   A    
C54   C55   S    
C24   C32   T    
O29   C61   S    
C28   C32   S    
C42   H5    S    
O31   C65   S    
C14   C17   S    
C50   H21   S    
C10   C14   S    
C47   H16   S    
C53   H28   S    
C15   C16   S    
C47   H15   S    
C62   H48   S    
V1    O10   S    
C41   H3    S    
C65   H54   S    
C9    C10   S    
O28   C58   S    
O7    V2    S    
C57   H38   S    
C52   C53   S    
