data_mof_unit_60677.cif
_audit_creation_date              2013-03-05T16:01:13-0500
_audit_creation_method            fapswitch 2.2
_symmetry_space_group_name_H-M    P1
_symmetry_Int_Tables_number       1
_space_group_crystal_system       triclinic
_cell_length_a                    42.32539
_cell_length_b                    29.205721
_cell_length_c                    30.580863
_cell_angle_alpha                 90.072183
_cell_angle_beta                  136.366152
_cell_angle_gamma                 89.945945
_cell_volume                      26085.3766751

loop_
_atom_site_label
_atom_site_type_symbol
_atom_site_description
_atom_site_fract_x
_atom_site_fract_y
_atom_site_fract_z
_atom_type_partial_charge
O1    O     O_R   0.563110 0.535630 0.563620 -0.596226
O2    O     O_R   0.563110 0.464370 0.563620 -0.594108
O3    O     O_R   0.063110 0.035630 0.563620 -0.596205
O4    O     O_R   0.063110 0.964370 0.563620 -0.594118
C1    C     C_R   0.586686 0.499999 0.587102 0.910008
C2    C     C_R   0.086686 0.999999 0.587102 0.910032
O5    O     O_R   0.499970 0.535640 0.438200 -0.613880
O6    O     O_R   0.499970 0.464360 0.438200 -0.609549
O7    O     O_R   0.999970 0.035640 0.438200 -0.613853
O8    O     O_R   0.999970 0.964360 0.438200 -0.609586
C3    C     C_R   0.499436 0.499952 0.417084 0.949188
C4    C     C_R   0.999432 0.999952 0.417080 0.949191
Zn1   Zn    Zn3+2 0.499970 0.547590 0.500630 0.976874
Zn2   Zn    Zn3+2 0.499970 0.452410 0.500630 0.982278
Zn3   Zn    Zn3+2 0.999970 0.047590 0.500630 0.976915
Zn4   Zn    Zn3+2 0.999970 0.952410 0.500630 0.982202
O9    O     O_R   0.436830 0.535630 0.437320 -0.596788
O10   O     O_R   0.436830 0.464370 0.437320 -0.596460
O11   O     O_R   0.936830 0.035630 0.437320 -0.596782
O12   O     O_R   0.936830 0.964370 0.437320 -0.596483
O13   O     O_R   0.499970 0.535630 0.562740 -0.591140
O14   O     O_R   0.499970 0.464370 0.562740 -0.591395
O15   O     O_R   0.999970 0.035630 0.562740 -0.591133
O16   O     O_R   0.999970 0.964370 0.562740 -0.591403
C5    C     C_R   0.413255 0.500001 0.413651 0.904818
C6    C     C_R   0.913255 0.000001 0.413651 0.904805
C7    C     C_R   0.499971 0.500026 0.586143 0.891101
C8    C     C_R   0.999971 0.000026 0.586143 0.891104
C9    C     C_3   0.543525 0.526057 0.315611 -0.459010
C10   C     C_3   0.508636 0.446858 0.282158 -0.418937
C11   C     C_3   0.043297 0.026414 0.315382 -0.458978
C12   C     C_3   0.009060 0.946930 0.282578 -0.418933
C13   C     C_3   0.503866 0.444012 0.227084 0.178004
C14   C     C_3   0.545054 0.523367 0.266703 0.171453
C15   C     C_3   0.004307 0.944052 0.227521 0.177989
C16   C     C_3   0.044841 0.023743 0.266489 0.171437
H1    H     H_    0.576072 0.514154 0.363297 0.216690
H2    H     H_    0.542738 0.433956 0.326986 0.227124
H3    H     H_    0.075942 0.014777 0.363162 0.216692
H4    H     H_    0.043269 0.934308 0.327507 0.227111
C17   C     C_1   0.500552 0.497657 0.121170 -0.129134
C18   C     C_1   0.000556 0.997670 0.121174 -0.129115
C19   C     C_3   0.502916 0.497124 0.291723 0.240853
C20   C     C_3   0.002929 0.997146 0.291736 0.240847
C21   C     C_3   0.503687 0.494147 0.208477 0.117227
C22   C     C_3   0.003713 0.994186 0.208503 0.117231
C23   C     C_3   0.459024 0.517574 0.179999 -0.542861
C24   C     C_3   0.958862 0.017244 0.179843 -0.542811
C25   C     C_3   0.457531 0.516953 0.228611 -0.402725
C26   C     C_3   0.957381 0.016604 0.228467 -0.402759
C27   C     C_1   0.501909 0.495241 0.160607 -0.004500
C28   C     C_1   0.001924 0.995269 0.160623 -0.004561
C29   C     C_1   0.501995 0.498644 0.336805 -0.066771
C30   C     C_1   0.002001 0.998654 0.336812 -0.066772
C31   C     C_1   0.500798 0.499636 0.373744 -0.194227
C32   C     C_1   0.000800 0.999638 0.373746 -0.194224
H5    H     H_    0.457323 0.553676 0.166644 0.196627
H6    H     H_    0.428231 0.499674 0.136062 0.197193
H7    H     H_    0.956863 0.053332 0.166194 0.196643
H8    H     H_    0.928215 0.999093 0.136054 0.197187
C33   C     C_1   0.637267 0.499997 0.637565 -0.214341
C34   C     C_1   0.137267 0.999997 0.637565 -0.214322
C35   C     C_1   0.679405 0.499997 0.679605 0.012289
C36   C     C_1   0.179405 0.999996 0.679605 0.012317
C37   C     C_1   0.729139 0.499997 0.729233 0.014821
C38   C     C_1   0.229139 0.999997 0.729233 0.014850
C39   C     C_1   0.771275 0.499997 0.771292 0.013959
C40   C     C_1   0.271275 0.999997 0.771292 0.013987
C41   C     C_1   0.821010 0.499998 0.820958 0.011193
C42   C     C_1   0.321010 0.999998 0.820958 0.011218
C43   C     C_1   0.863147 0.499999 0.863074 -0.207521
C44   C     C_1   0.363147 0.999999 0.863074 -0.207497
C45   C     C_1   0.499959 0.500067 0.636014 -0.216562
C46   C     C_1   0.999959 0.000067 0.636014 -0.216565
C47   C     C_1   0.499947 0.500071 0.677179 0.020392
C48   C     C_1   0.999947 0.000071 0.677179 0.020391
C49   C     C_1   0.499934 0.500062 0.726167 0.008302
C50   C     C_1   0.999934 0.000062 0.726167 0.008301
C51   C     C_1   0.499925 0.500049 0.767336 0.008232
C52   C     C_1   0.999925 0.000049 0.767336 0.008233
C53   C     C_1   0.499922 0.500031 0.816334 0.019852
C54   C     C_1   0.999922 0.000031 0.816334 0.019854
C55   C     C_1   0.499934 0.500016 0.857522 -0.214125
C56   C     C_1   0.999934 0.000016 0.857522 -0.214120
C57   C     C_1   0.362677 0.500002 0.363010 -0.217188
C58   C     C_1   0.862677 0.000002 0.363010 -0.217202
C59   C     C_1   0.320541 0.500003 0.320835 0.008400
C60   C     C_1   0.820541 0.000003 0.320835 0.008383
C61   C     C_1   0.270811 0.500002 0.271067 0.011611
C62   C     C_1   0.770811 0.000002 0.271067 0.011597
C63   C     C_1   0.228676 0.500002 0.228903 0.011660
C64   C     C_1   0.728676 0.000002 0.228903 0.011648
C65   C     C_1   0.178945 0.500001 0.179133 0.009689
C66   C     C_1   0.678945 0.000001 0.179133 0.009680
C67   C     C_1   0.136810 0.500000 0.136953 -0.208393
C68   C     C_1   0.636810 0.000000 0.136953 -0.208397
O17   O     O_R   0.535670 0.563060 0.029670 -0.593275
O18   O     O_R   0.535670 0.436940 0.029670 -0.586862
O19   O     O_R   0.035670 0.063060 0.029670 -0.593202
O20   O     O_R   0.035670 0.936940 0.029670 -0.586878
O21   O     O_R   0.464380 0.563080 0.958370 -0.599675
O22   O     O_R   0.464380 0.436920 0.958370 -0.599560
O23   O     O_R   0.964380 0.063080 0.958370 -0.599689
O24   O     O_R   0.964380 0.936920 0.958370 -0.599588
C69   C     C_R   0.500031 0.586642 0.994570 0.900494
C70   C     C_R   0.500033 0.413360 0.994590 0.914054
C71   C     C_R   0.000031 0.086642 0.994570 0.900564
C72   C     C_R   0.000033 0.913360 0.994590 0.913922
O25   O     O_R   0.535670 0.500000 0.091080 -0.576508
O26   O     O_R   0.035670 0.000000 0.091080 -0.576382
O27   O     O_R   0.464370 0.500000 0.019780 -0.626427
O28   O     O_R   0.964370 1.000000 0.019780 -0.626515
C73   C     C_R   0.500093 0.500624 0.076092 0.945163
C74   C     C_R   0.000094 0.000620 0.076092 0.945198
Zn5   Zn    Zn3+2 0.547630 0.500000 0.040770 1.020798
Zn6   Zn    Zn3+2 0.047630 0.000000 0.040770 1.020948
Zn7   Zn    Zn3+2 0.452420 0.500000 0.945550 0.974538
Zn8   Zn    Zn3+2 0.952420 1.000000 0.945550 0.974475
O29   O     O_R   0.535670 0.500000 0.966540 -0.594305
O30   O     O_R   0.035670 0.000000 0.966540 -0.594300
O31   O     O_R   0.464380 0.500000 0.895240 -0.593772
O32   O     O_R   0.964380 0.000000 0.895240 -0.593774
C75   C     C_R   0.499990 0.500000 0.907463 0.886449
C76   C     C_R   0.999990 0.000000 0.907463 0.886446
O33   O     O_R   0.000010 0.436840 0.964010 -0.591752
O34   O     O_R   0.000010 0.563160 0.964010 -0.592841
O35   O     O_R   0.500010 0.936840 0.964010 -0.591751
O36   O     O_R   0.500010 0.063160 0.964010 -0.592843
O37   O     O_R   0.000000 0.436830 0.034310 -0.593728
O38   O     O_R   0.000000 0.563170 0.034310 -0.591350
O39   O     O_R   0.500000 0.936830 0.034310 -0.593739
O40   O     O_R   0.500000 0.063170 0.034310 -0.591326
C77   C     C_R   0.000015 0.413719 0.999109 0.896244
C78   C     C_R   0.000015 0.586282 0.999159 0.896710
C79   C     C_R   0.500015 0.913719 0.999109 0.896232
C80   C     C_R   0.500015 0.086282 0.999159 0.896715
O41   O     O_R   0.936840 0.500000 0.901700 -0.590792
O42   O     O_R   0.436840 0.000000 0.901700 -0.590784
O43   O     O_R   0.936840 0.500000 0.972000 -0.593856
O44   O     O_R   0.436840 0.000000 0.972000 -0.593851
C81   C     C_R   0.913729 0.499999 0.913705 0.896587
C82   C     C_R   0.413729 1.000000 0.913705 0.896589
Zn9   Zn    Zn3+2 0.999990 0.500000 0.953050 0.982271
Zn10  Zn    Zn3+2 0.499990 0.000000 0.953050 0.982290
Zn11  Zn    Zn3+2 0.999980 0.500000 0.046950 0.979534
Zn12  Zn    Zn3+2 0.499980 0.000000 0.046950 0.979567
O45   O     O_R   0.063130 0.500000 0.028000 -0.593038
O46   O     O_R   0.563130 0.000000 0.028000 -0.593042
O47   O     O_R   0.063120 0.500000 0.098300 -0.592241
O48   O     O_R   0.563120 0.000000 0.098300 -0.592241
C83   C     C_R   0.086232 0.499999 0.086297 0.896786
C84   C     C_R   0.586232 0.999999 0.086297 0.896777
C85   C     C_1   0.500041 0.637228 0.995392 -0.212625
C86   C     C_1   0.500047 0.362774 0.995457 -0.202514
C87   C     C_1   0.000041 0.137228 0.995392 -0.212545
C88   C     C_1   0.000047 0.862774 0.995457 -0.202632
C89   C     C_1   0.500043 0.679367 0.996119 0.010096
C90   C     C_1   0.500051 0.320636 0.996223 0.019894
C91   C     C_1   0.000043 0.179367 0.996119 0.010158
C92   C     C_1   0.000051 0.820636 0.996223 0.019778
C93   C     C_1   0.500041 0.729105 0.996981 0.012439
C94   C     C_1   0.500049 0.270899 0.997124 0.019693
C95   C     C_1   0.000041 0.229105 0.996981 0.012485
C96   C     C_1   0.000049 0.770899 0.997124 0.019603
C97   C     C_1   0.000037 0.271244 0.997677 0.012038
C98   C     C_1   0.000044 0.728761 0.997842 0.016981
C99   C     C_1   0.500037 0.771244 0.997677 0.012004
C100  C     C_1   0.500044 0.228761 0.997842 0.017048
C101  C     C_1   0.000031 0.320984 0.998410 0.009642
C102  C     C_1   0.000036 0.679021 0.998579 0.012984
C103  C     C_1   0.500031 0.820984 0.998410 0.009619
C104  C     C_1   0.500036 0.179021 0.998579 0.013033
C105  C     C_1   0.000025 0.363127 0.998878 -0.208690
C106  C     C_1   0.000027 0.636877 0.999020 -0.206532
C107  C     C_1   0.500025 0.863127 0.998878 -0.208704
C108  C     C_1   0.500027 0.136877 0.999020 -0.206493
N1    N     N_R   0.589442 0.506462 0.295267 0.246913
O49   O     O_R   0.611235 0.473850 0.337305 -0.332169
O50   O     O_R   0.609490 0.527243 0.282978 -0.361500
N2    N     N_R   0.538574 0.412873 0.243307 0.246393
O51   O     O_R   0.558755 0.421376 0.226478 -0.320733
O52   O     O_R   0.542683 0.371994 0.263858 -0.366495
N3    N     N_R   0.089365 0.007205 0.295183 0.246917
O53   O     O_R   0.111427 0.974771 0.337486 -0.332165
O54   O     O_R   0.109239 0.028156 0.282721 -0.361535
N4    N     N_R   0.039265 0.913200 0.243988 0.246379
O55   O     O_R   0.059377 0.921874 0.227091 -0.320663
O56   O     O_R   0.043708 0.872352 0.264867 -0.366500
H9    H     H_    0.482251 0.424593 0.271192 0.164407
H10   H     H_    0.539069 0.562408 0.321392 0.160990
H11   H     H_    0.982862 0.924448 0.271800 0.164418
H12   H     H_    0.038543 0.062726 0.320869 0.160998
H13   H     H_    0.469884 0.428417 0.185726 0.096535
H14   H     H_    0.540639 0.558962 0.249730 0.103482
H15   H     H_    0.970452 0.928180 0.186293 0.096523
H16   H     H_    0.040132 0.059302 0.249226 0.103478
H17   H     H_    0.452051 0.552386 0.235591 0.188847
H18   H     H_    0.428151 0.495652 0.210351 0.186199
H19   H     H_    0.951610 0.051989 0.235161 0.188834
H20   H     H_    0.928177 0.995060 0.210385 0.186203

loop_
_geom_bond_atom_site_label_1
_geom_bond_atom_site_label_2
_geom_bond_distance
_ccdc_geom_bond_type
C38   C40   1.230669 T    
C80   C108  1.477679 S    
C89   C93   1.452844 S    
C13   C21   1.569592 S    
C94   C100  1.230888 T    
Zn2   O10   1.876876 S    
C69   C85   1.477601 S    
O20   Zn6   1.874792 S    
Zn10  O46   1.878496 S    
O3    C2    1.247796 A    
C8    C46   1.525499 S    
C35   C37   1.452569 S    
O3    Zn3   1.876892 S    
C96   C98   1.230885 T    
C23   C25   1.533077 S    
C25   H17   1.113954 S    
Zn3   O11   1.876906 S    
C46   C48   1.259213 T    
O1    C1    1.247796 A    
C92   C96   1.452914 S    
C95   C97   1.230842 T    
C48   C50   1.498506 S    
C86   C90   1.230912 T    
O39   C79   1.270258 A    
O47   C83   1.269428 A    
C58   C60   1.230632 T    
O40   C80   1.270433 A    
C10   H9    1.114039 S    
C23   H5    1.114485 S    
C21   C27   1.410800 S    
O33   C77   1.268673 A    
C68   C84   1.477201 S    
C22   C28   1.410792 S    
O34   Zn9   1.874311 S    
C15   H15   1.114611 S    
C10   H2    1.113865 S    
O39   Zn12  1.884636 S    
C41   C43   1.230702 T    
Zn8   O32   1.936664 S    
C21   C23   1.554366 S    
C33   C35   1.230701 T    
O11   C6    1.247780 A    
Zn7   O31   1.936664 S    
C34   C36   1.230701 T    
C44   C82   1.477316 S    
Zn12  O48   1.879657 S    
O30   C76   1.263002 A    
C18   C74   1.367406 S    
N2    O52   1.301503 A    
N1    O50   1.301070 A    
O6    Zn2   1.941238 S    
C16   C22   1.565430 S    
C61   C63   1.230603 T    
C70   C86   1.477661 S    
O26   C74   1.216007 A    
O37   Zn11  1.884636 S    
O25   C73   1.216024 A    
C43   C81   1.477316 S    
O17   C69   1.248210 A    
C14   H14   1.116078 S    
C49   C51   1.259235 T    
O41   Zn9   1.880004 S    
C13   H13   1.114610 S    
Zn4   O16   1.930794 S    
C9    C19   1.544545 S    
C13   N2    1.474739 S    
O21   C69   1.248182 A    
C45   C47   1.259213 T    
O38   C78   1.270433 A    
O10   C5    1.247772 A    
C64   C66   1.452461 S    
C53   C55   1.259219 T    
C19   C29   1.407783 S    
C24   H8    1.114425 S    
O24   Zn8   1.875315 S    
C25   H18   1.113871 S    
C29   C31   1.167119 T    
C97   C101  1.452849 S    
C22   C24   1.554354 S    
O20   C72   1.248216 A    
C11   C20   1.544540 S    
C57   C59   1.230632 T    
C87   C91   1.230868 T    
C12   C15   1.546532 S    
O46   C84   1.269258 A    
C88   C92   1.230909 T    
O40   Zn12  1.885588 S    
C52   C54   1.498506 S    
O42   C82   1.269425 A    
O44   Zn12  1.878498 S    
O19   Zn6   1.874691 S    
C51   C53   1.498506 S    
O25   Zn5   1.936664 S    
C19   C25   1.544161 S    
C99   C103  1.452849 S    
C6    C58   1.477205 S    
C37   C39   1.230669 T    
C103  C107  1.230875 T    
C9    C14   1.545021 S    
C15   N4    1.474738 S    
Zn6   O30   1.935423 S    
C12   H11   1.114040 S    
C39   C41   1.452570 S    
C79   C107  1.477602 S    
O4    Zn4   1.876927 S    
O1    Zn1   1.876892 S    
O5    C3    1.217006 A    
N3    O53   1.302154 A    
C16   H16   1.116081 S    
O48   C84   1.269428 A    
C63   C65   1.452461 S    
O36   Zn10  1.874311 S    
C62   C64   1.230603 T    
C72   C88   1.477661 S    
C100  C104  1.452921 S    
Zn4   O12   1.876876 S    
C5    C57   1.477205 S    
C12   C20   1.549212 S    
C1    C33   1.477314 S    
O27   C73   1.217758 A    
C16   N3    1.469780 S    
C4    C32   1.367710 S    
O15   C8    1.263042 A    
C66   C68   1.230637 T    
C24   C26   1.533080 S    
C47   C49   1.498506 S    
C36   C38   1.452569 S    
C93   C99   1.230842 T    
O22   Zn7   1.875315 S    
O8    C4    1.215958 A    
O37   C77   1.270258 A    
O28   C74   1.217762 A    
O4    C2    1.247802 A    
O36   C80   1.268551 A    
C60   C62   1.452461 S    
Zn9   O45   1.878496 S    
C54   C56   1.259219 T    
O14   C7    1.262810 A    
C59   C61   1.452461 S    
O13   C7    1.263042 A    
C91   C95   1.452847 S    
C10   C19   1.549221 S    
O2    C1    1.247802 A    
O17   Zn5   1.874691 S    
N4    O56   1.301505 A    
O26   Zn6   1.936664 S    
O24   C72   1.248189 A    
C3    C31   1.367712 S    
N2    O51   1.301248 A    
C24   H7    1.114486 S    
C102  C106  1.230920 T    
C20   C26   1.544170 S    
O41   C81   1.269425 A    
O43   Zn11  1.878498 S    
C26   H20   1.113875 S    
C78   C106  1.477679 S    
C10   C13   1.546539 S    
C11   C16   1.545008 S    
C14   C21   1.565429 S    
O16   C8    1.262810 A    
O35   C79   1.268673 A    
C42   C44   1.230702 T    
C26   H19   1.113957 S    
C30   C32   1.167113 T    
C98   C102  1.452924 S    
O44   C82   1.269118 A    
O29   C75   1.263002 A    
C56   C76   1.525510 S    
O19   C71   1.248210 A    
Zn5   O29   1.935423 S    
O18   C70   1.248216 A    
Zn1   O9    1.876906 S    
O27   Zn7   1.935671 S    
O9    C5    1.247780 A    
C2    C34   1.477314 S    
N3    O54   1.301073 A    
O7    Zn3   1.940373 S    
C17   C73   1.367414 S    
O21   Zn7   1.875280 S    
O42   Zn10  1.880004 S    
Zn1   O13   1.931659 S    
C23   H6    1.114427 S    
O28   Zn8   1.935671 S    
O43   C81   1.269118 A    
Zn2   O14   1.930794 S    
O18   Zn5   1.874792 S    
O8    Zn4   1.941238 S    
O12   C6    1.247772 A    
O33   Zn9   1.875143 S    
O6    C3    1.215955 A    
O45   C83   1.269258 A    
C11   H12   1.114189 S    
Zn3   O15   1.931659 S    
C11   H3    1.112454 S    
O22   C70   1.248189 A    
C50   C52   1.259235 T    
O35   Zn10  1.875143 S    
C12   H4    1.113866 S    
C85   C89   1.230871 T    
O2    Zn2   1.876927 S    
O7    C4    1.216999 A    
C71   C87   1.477601 S    
O31   C75   1.263283 A    
C90   C94   1.452911 S    
O23   Zn8   1.875280 S    
C20   C30   1.407773 S    
O5    Zn1   1.940373 S    
C67   C83   1.477201 S    
O34   C78   1.268551 A    
C65   C67   1.230637 T    
N1    O49   1.302152 A    
C9    H1    1.112454 S    
C40   C42   1.452570 S    
C101  C105  1.230875 T    
C9    H10   1.114187 S    
C14   N1    1.469779 S    
O23   C71   1.248182 A    
C55   C75   1.525510 S    
N4    O55   1.301247 A    
C7    C45   1.525499 S    
C15   C22   1.569603 S    
O32   C76   1.263283 A    
C17   C27   1.167349 T    
Zn11  O47   1.879657 S    
C104  C108  1.230920 T    
C18   C28   1.167341 T    
C77   C105  1.477602 S    
O38   Zn11  1.885588 S    
