data_mof_unit_7388.cif
_audit_creation_date              2013-03-05T15:54:00-0500
_audit_creation_method            fapswitch 2.2
_symmetry_space_group_name_H-M    P1
_symmetry_Int_Tables_number       1
_space_group_crystal_system       triclinic
_cell_length_a                    15.737933
_cell_length_b                    10.727607
_cell_length_c                    9.902997
_cell_angle_alpha                 88.881631
_cell_angle_beta                  90.160832
_cell_angle_gamma                 91.930261
_cell_volume                      1670.65566495

loop_
_atom_site_label
_atom_site_type_symbol
_atom_site_description
_atom_site_fract_x
_atom_site_fract_y
_atom_site_fract_z
_atom_type_partial_charge
O1    O     O_R   0.500000 0.316780 0.614690 -0.663114
O2    O     O_R   0.499990 0.316750 0.385360 -0.636296
C1    C     C_R   0.503993 0.259632 0.502503 0.855635
O3    O     O_R   0.377150 0.500020 0.614720 -0.646676
O4    O     O_R   0.377140 0.499990 0.385380 -0.632607
C2    C     C_R   0.338375 0.499626 0.499911 0.866533
Zn1   Zn    Zn3+2 0.500010 0.500020 0.653130 0.983471
Zn2   Zn    Zn3+2 0.499990 0.499980 0.346870 0.955489
O5    O     O_R   0.500010 0.683250 0.614640 -0.584393
O6    O     O_R   0.500000 0.683220 0.385310 -0.626623
O7    O     O_R   0.622860 0.500010 0.614620 -0.564123
O8    O     O_R   0.622850 0.499980 0.385280 -0.602815
C3    C     C_R   0.491446 0.738665 0.499015 0.898096
C4    C     C_R   0.661617 0.500392 0.500116 0.927750
C5    C     C_3   0.046875 0.387998 0.583465 -0.376330
C6    C     C_3   0.049209 0.491944 0.352549 -0.440893
C7    C     C_3   0.950722 0.495001 0.351651 0.136904
H1    H     H_    0.922833 0.298566 0.543490 0.221094
H2    H     H_    0.068379 0.299349 0.540329 0.191099
H3    H     H_    0.075713 0.571639 0.290407 0.165591
H4    H     H_    0.071725 0.405405 0.306105 0.221509
H5    H     H_    0.932896 0.582678 0.297849 0.118771
C8    C     C_1   0.750487 0.500550 0.500486 -0.065826
C9    C     C_3   0.082805 0.500912 0.499410 0.226093
C10   C     C_3   0.948903 0.387705 0.583954 -0.318522
C11   C     C_3   0.917360 0.500929 0.500070 0.055042
C12   C     C_3   0.954375 0.625102 0.560538 0.129321
C13   C     C_3   0.052907 0.622996 0.562517 -0.456476
C14   C     C_1   0.825790 0.500715 0.500492 0.002303
C15   C     C_1   0.174210 0.500231 0.499514 -0.064467
C16   C     C_1   0.249510 0.499830 0.499619 -0.174827
H6    H     H_    0.078192 0.630925 0.667168 0.220896
H7    H     H_    0.079373 0.705089 0.504100 0.159319
H8    H     H_    0.070947 0.392352 0.689166 0.197685
H9    H     H_    0.925336 0.389468 0.689366 0.231597
H10   H     H_    0.936165 0.703301 0.491607 0.108821
H11   H     H_    0.526909 0.115591 0.292364 0.180811
C17   C     C_R   0.498062 0.103511 0.763188 -0.138592
C18   C     C_R   0.464506 0.037702 0.874834 -0.114554
H12   H     H_    0.470930 0.075925 0.974886 0.147122
C19   C     C_R   0.421259 0.924243 0.857111 -0.113853
H13   H     H_    0.392014 0.875336 0.942566 0.133641
C20   C     C_R   0.419718 0.870677 0.730178 -0.119741
H14   H     H_    0.386701 0.781214 0.719951 0.143297
C21   C     C_R   0.461137 0.931535 0.619102 0.114183
C22   C     C_R   0.488629 0.056091 0.630799 0.094152
C23   C     C_R   0.505793 0.125380 0.508974 -0.114752
C24   C     C_R   0.512343 0.065019 0.385731 -0.196668
H15   H     H_    0.514805 0.892695 0.286798 0.179935
C25   C     C_R   0.502512 0.938047 0.381281 -0.203665
C26   C     C_R   0.479671 0.870668 0.498109 -0.127247
H16   H     H_    0.598441 0.635566 0.124238 0.182799
C27   C     C_R   0.385695 0.339724 0.142656 -0.134677
H17   H     H_    0.382773 0.332204 0.249798 0.201711
C28   C     C_R   0.328578 0.262302 0.073570 -0.205544
H18   H     H_    0.284752 0.200595 0.128996 0.157586
C29   C     C_R   0.328364 0.262913 0.933822 -0.184715
H19   H     H_    0.284707 0.201209 0.880273 0.156874
C30   C     C_R   0.385636 0.340374 0.862390 -0.135903
H20   H     H_    0.384033 0.331839 0.755531 0.204156
C31   C     C_R   0.443448 0.421548 0.928937 0.077508
C32   C     C_R   0.443523 0.421379 0.073570 0.156015
N1    N     N_R   0.499210 0.498800 0.142780 -0.142946
C33   C     C_R   0.554185 0.574810 0.070742 -0.160441
C34   C     C_R   0.554675 0.574762 0.927568 0.332510
N2    N     N_R   0.499180 0.498720 0.857170 -0.186387
H21   H     H_    0.534264 0.187880 0.784682 0.181114
N3    N     N_R   0.615144 0.653625 0.857243 0.232886
O9    O     O_R   0.692642 0.617074 0.844918 -0.308642
O10   O     O_R   0.600238 0.771459 0.841193 -0.373030
N4    N     N_R   0.912637 0.389969 0.276796 0.230672
O11   O     O_R   0.860199 0.411800 0.177970 -0.332696
O12   O     O_R   0.934705 0.275839 0.301087 -0.392393
N5    N     N_R   0.920056 0.650180 0.694930 0.240023
O13   O     O_R   0.943839 0.587550 0.801605 -0.362246
O14   O     O_R   0.869369 0.742291 0.709547 -0.317334

loop_
_geom_bond_atom_site_label_1
_geom_bond_atom_site_label_2
_geom_bond_distance
_ccdc_geom_bond_type
C28   H18   1.082777 S    
C6    H4    1.112966 S    
C19   H13   1.082511 S    
C18   C19   1.388285 A    
C27   H17   1.063519 S    
C5    H2    1.113440 S    
C11   C12   1.565006 S    
N5    O14   1.301158 A    
C7    C11   1.565328 S    
C8    C14   1.185055 T    
C17   C18   1.395496 A    
O7    C4    1.288957 A    
C5    C10   1.541809 S    
C21   C26   1.411542 A    
H15   C25   1.083853 S    
O5    C3    1.288652 A    
C3    C26   1.434182 S    
C31   N2    1.375290 A    
C6    C7    1.551423 S    
C12   N5    1.470767 S    
C5    H8    1.113499 S    
Zn2   O8    1.969573 S    
C24   C25   1.367231 A    
C2    C16   1.398620 S    
C30   H20   1.064115 S    
C6    C9    1.549744 S    
C19   C20   1.392116 A    
H1    C10   1.109461 S    
O3    Zn1   1.969575 S    
C27   C28   1.390808 A    
C30   C31   1.409283 A    
N5    O13   1.301736 A    
C13   H6    1.112869 S    
O3    C2    1.288872 A    
H16   C33   1.082312 S    
C18   H12   1.082858 S    
N4    O12   1.301611 A    
N3    O9    1.300427 A    
C10   C11   1.552658 S    
C21   C22   1.397427 A    
O1    C1    1.282057 A    
C4    C8    1.398565 S    
Zn1   O7    1.971712 S    
C20   H14   1.082247 S    
C32   N1    1.377471 A    
C27   C32   1.410693 A    
C23   C24   1.398403 A    
C15   C16   1.185213 T    
C6    H3    1.113774 S    
C34   N3    1.425799 S    
C25   C26   1.393688 A    
H11   C24   1.083981 S    
C20   C21   1.417184 A    
C10   H9    1.109524 S    
Zn2   O6    2.009523 S    
C5    C9    1.548222 S    
O8    C4    1.289053 A    
C13   H7    1.113757 S    
C7    N4    1.470691 S    
C28   C29   1.383803 A    
Zn1   O5    1.994918 S    
C22   C23   1.426267 A    
O1    Zn1   2.009522 S    
O2    Zn2   1.994919 S    
C9    C13   1.549941 S    
O6    C3    1.293138 A    
O4    Zn2   1.971712 S    
C12   H10   1.115608 S    
C7    H5    1.115630 S    
C33   C34   1.417902 A    
O2    C1    1.303694 A    
N4    O11   1.301243 A    
Zn1   N2    2.020460 S    
C29   H19   1.082800 S    
O4    C2    1.289251 A    
C1    C23   1.441604 S    
C31   C32   1.432261 A    
C9    C15   1.438799 S    
C17   C22   1.421102 A    
C29   C30   1.390505 A    
Zn2   N1    2.021390 S    
N1    C33   1.362209 A    
C17   H21   1.077583 S    
C11   C14   1.441058 S    
N3    O10   1.300051 A    
C34   N2    1.372962 A    
C12   C13   1.551680 S    
