data_mof_unit_27439.cif
_audit_creation_date              2012-12-10T19:00:46-0500
_audit_creation_method            fapswitch 2.2
_symmetry_space_group_name_H-M    P1
_symmetry_Int_Tables_number       1
_space_group_crystal_system       triclinic
_cell_length_a                    15.084373
_cell_length_b                    10.836792
_cell_length_c                    9.538891
_cell_angle_alpha                 90.456364
_cell_angle_beta                  89.994532
_cell_angle_gamma                 90.284041
_cell_volume                      1559.21776018

loop_
_atom_site_label
_atom_site_type_symbol
_atom_type_description
_atom_site_fract_x
_atom_site_fract_y
_atom_site_fract_z
_atom_type_partial_charge
C1    C     C_R   0.497912 0.262379 0.499434 0.801334
C2    C     C_R   0.907138 0.497278 0.371550 0.109743
C3    C     C_R   0.953763 0.495997 0.755474 -0.211762
C4    C     C_R   0.046194 0.496581 0.755497 -0.210471
C5    C     C_R   0.092893 0.497465 0.628417 0.109605
C6    C     C_R   0.046487 0.497601 0.499978 0.061377
C7    C     C_R   0.092916 0.498316 0.371551 0.109592
C8    C     C_R   0.046242 0.498296 0.244453 -0.210380
C9    C     C_R   0.953811 0.497745 0.244451 -0.211208
C10   C     C_R   0.185264 0.498243 0.627525 -0.246627
C11   C     C_R   0.231674 0.499101 0.500005 -0.071861
C12   C     C_R   0.328579 0.499753 0.500010 0.814598
C13   C     C_R   0.185285 0.499073 0.372470 -0.246384
C14   C     C_R   0.481694 0.065148 0.623667 0.126819
C15   C     C_R   0.488359 0.129460 0.498091 -0.098897
C16   C     C_R   0.482519 0.063376 0.371016 -0.216216
C17   C     C_R   0.483084 0.934662 0.371718 -0.215031
C18   C     C_R   0.489538 0.871077 0.499484 -0.099232
C19   C     C_R   0.482316 0.938096 0.624558 0.133475
C20   C     C_3   0.537824 0.935390 0.754141 -0.489494
C21   C     C_3   0.536631 0.075249 0.753259 -0.452182
C22   C     C_R   0.575401 0.528155 0.074051 0.259817
C23   C     C_R   0.498486 0.737838 0.500255 0.803520
C24   C     C_R   0.428439 0.459307 0.073969 -0.088277
C25   C     C_R   0.428389 0.459452 0.925231 -0.085167
C26   C     C_R   0.575647 0.527237 0.926624 0.257473
C27   C     C_3   0.627359 0.644526 0.921866 -0.513838
C28   C     C_3   0.626356 0.646149 0.080887 -0.497142
C29   C     C_R   0.671426 0.499283 0.499982 0.815604
C30   C     C_R   0.814779 0.497235 0.372481 -0.247837
C31   C     C_R   0.768346 0.497664 0.499963 -0.073248
C32   C     C_R   0.814755 0.496312 0.627424 -0.251314
C33   C     C_R   0.907114 0.496385 0.628368 0.110212
C34   C     C_R   0.953550 0.497108 0.499966 0.062477
Cu1   Cu    Cu3+1 0.500000 0.499980 0.640670 0.940437
Cu2   Cu    Cu3+1 0.500000 0.500020 0.359330 0.939801
H1    H     H_    0.779242 0.496743 0.273798 0.147388
H2    H     H_    0.482962 0.885796 0.272232 0.162475
H3    H     H_    0.501087 0.896090 0.844544 0.197401
H4    H     H_    0.604920 0.896749 0.734751 0.198041
H5    H     H_    0.499063 0.115946 0.842465 0.197904
H6    H     H_    0.602879 0.117316 0.733912 0.200857
H7    H     H_    0.694695 0.631564 0.877255 0.189429
H8    H     H_    0.588838 0.720192 0.875238 0.215052
H9    H     H_    0.693212 0.634280 0.127411 0.189698
H10   H     H_    0.779199 0.495044 0.726073 0.147345
H11   H     H_    0.587143 0.723452 0.126029 0.212462
H12   H     H_    0.918777 0.495458 0.854716 0.135113
H13   H     H_    0.220860 0.498181 0.726269 0.147426
H14   H     H_    0.220898 0.499674 0.273735 0.147547
H15   H     H_    0.081204 0.498787 0.145196 0.134918
H16   H     H_    0.918845 0.497889 0.145199 0.135131
H17   H     H_    0.482231 0.110398 0.271246 0.165890
N1    N     N_R   0.500570 0.500930 0.147930 -0.185217
N2    N     N_R   0.500570 0.500890 0.852020 -0.184008
O1    O     O_R   0.500000 0.319640 0.618810 -0.579723
O2    O     O_R   0.500010 0.319680 0.381230 -0.584733
O3    O     O_R   0.370250 0.499950 0.618800 -0.593829
O4    O     O_R   0.370260 0.499990 0.381220 -0.593628
O5    O     O_R   0.499990 0.680320 0.618770 -0.576014
O6    O     O_R   0.500000 0.680360 0.381190 -0.584483
O7    O     O_R   0.629740 0.500010 0.618780 -0.587413
O8    O     O_R   0.629750 0.500050 0.381200 -0.585500
H18   H     H_    0.370042 0.427624 0.128819 0.138075
H19   H     H_    0.369945 0.427934 0.869839 0.138153
H20   H     H_    0.081138 0.496414 0.854762 0.134929

loop_
_geom_bond_atom_site_label_1
_geom_bond_atom_site_label_2
_ccdc_geom_bond_type
C11   C12   S    
C29   O8    A    
C28   H11   S    
C6    C7    A    
C1    C15   S    
C1    O2    A    
Cu2   O8    S    
C11   C13   A    
C19   C20   S    
C14   C15   A    
C7    C13   A    
C2    C30   A    
Cu2   O4    S    
C12   O3    A    
C32   C33   A    
C2    C34   A    
C17   C18   A    
C24   C25   A    
C5    C10   A    
C22   N1    A    
C22   C28   S    
C26   N2    A    
C4    H20   S    
C23   O5    A    
C2    C9    A    
C8    H15   S    
C26   C27   S    
C5    C6    A    
C9    H16   S    
Cu1   O3    S    
C21   H5    S    
C4    C5    A    
C14   C19   A    
C14   C21   S    
C13   H14   S    
C1    O1    A    
C33   C34   A    
Cu1   O7    S    
C17   H2    S    
C12   O4    A    
Cu2   O6    S    
C22   C26   A    
C30   C31   A    
C20   H4    S    
C31   C32   A    
C28   H9    S    
Cu2   N1    S    
C15   C16   A    
C3    C33   A    
C24   N1    A    
C18   C23   S    
C27   H7    S    
C3    H12   S    
C23   O6    A    
C25   H19   S    
C20   C21   S    
Cu2   O2    S    
C6    C34   A    
C24   H18   S    
C7    C8    A    
C10   C11   A    
C27   C28   S    
C20   H3    S    
C18   C19   A    
C30   H1    S    
C29   O7    A    
Cu1   O5    S    
C21   H6    S    
Cu1   O1    S    
C29   C31   S    
C10   H13   S    
C32   H10   S    
C27   H8    S    
Cu1   N2    S    
C3    C4    A    
C25   N2    A    
C16   C17   A    
C8    C9    A    
C16   H17   S    
Cu1   Cu2   S    
