data_mof_unit_17184.cif
_audit_creation_date              2012-12-11T15:15:38-0500
_audit_creation_method            fapswitch 2.2
_symmetry_space_group_name_H-M    P1
_symmetry_Int_Tables_number       1
_space_group_crystal_system       triclinic
_cell_length_a                    20.486381
_cell_length_b                    22.724131
_cell_length_c                    6.940035
_cell_angle_alpha                 89.808486
_cell_angle_beta                  87.340732
_cell_angle_gamma                 89.97355
_cell_volume                      3227.33319298

loop_
_atom_site_label
_atom_site_type_symbol
_atom_type_description
_atom_site_fract_x
_atom_site_fract_y
_atom_site_fract_z
_atom_type_partial_charge
O1    O     O_R   0.387100 0.552640 0.378490 -0.529677
O2    O     O_R   0.612900 0.052640 0.621510 -0.542374
O3    O     O_R   0.249610 0.559600 0.072250 -0.549505
O4    O     O_R   0.750390 0.059600 0.927750 -0.550645
O5    O     O_R   0.249120 0.447360 0.902040 -0.540514
O6    O     O_R   0.750880 0.947360 0.097960 -0.541395
C1    C     C_R   0.228053 0.574717 0.243650 0.684441
C2    C     C_R   0.771877 0.074726 0.755998 0.684211
O7    O     O_R   0.386610 0.559560 0.048860 -0.542915
O8    O     O_R   0.613390 0.059560 0.951140 -0.529074
O9    O     O_R   0.387100 0.447320 0.878470 -0.534045
O10   O     O_R   0.612900 0.947320 0.121530 -0.523402
C3    C     C_R   0.408297 0.574496 0.214318 0.746838
C4    C     C_R   0.591567 0.074332 0.784883 0.747617
O11   O     O_R   0.249120 0.552680 0.402050 -0.547011
O12   O     O_R   0.750880 0.052680 0.597950 -0.545299
O13   O     O_3   0.318110 0.463180 0.223790 -0.345397
O14   O     O_3   0.681890 0.963180 0.776210 -0.346470
V1    V     V_3+5 0.318110 0.506830 0.948930 1.483962
V2    V     V_3+5 0.681890 0.006830 0.051070 1.494712
O15   O     O_R   0.386610 0.440400 0.548840 -0.516351
O16   O     O_R   0.613390 0.940400 0.451160 -0.527192
C5    C     C_R   0.408165 0.425370 0.715164 0.730715
C6    C     C_R   0.591876 0.925300 0.285638 0.732512
O17   O     O_R   0.249610 0.440440 0.572240 -0.522019
O18   O     O_R   0.750390 0.940440 0.427760 -0.521482
C7    C     C_R   0.228619 0.425108 0.743934 0.742957
C8    C     C_R   0.771400 0.925044 0.256422 0.740490
V3    V     V_3+5 0.318110 0.493170 0.448930 1.539321
V4    V     V_3+5 0.681890 0.993170 0.551070 1.527035
O19   O     O_3   0.318110 0.536820 0.723940 -0.383325
O20   O     O_3   0.681890 0.036820 0.276060 -0.381885
C9    C     C_R   0.177886 0.379197 0.757940 -0.095993
C10   C     C_R   0.822295 0.879165 0.243035 -0.096244
C11   C     C_R   0.183581 0.327341 0.646492 0.239570
C12   C     C_R   0.817778 0.827953 0.359193 0.238700
C13   C     C_R   0.132801 0.286215 0.653098 -0.108017
C14   C     C_R   0.868681 0.786900 0.352066 -0.108185
C15   C     C_R   0.075790 0.296387 0.766700 0.116204
C16   C     C_R   0.924570 0.796406 0.232737 0.118587
C17   C     C_R   0.071022 0.346763 0.882795 -0.029741
C18   C     C_R   0.928102 0.846009 0.111954 -0.049052
C19   C     C_R   0.121892 0.387796 0.878947 -0.195215
C20   C     C_R   0.877171 0.887029 0.116674 -0.191229
C21   C     C_R   0.870004 0.209431 0.882699 0.008315
C22   C     C_R   0.130368 0.710098 0.115998 0.013193
C23   C     C_R   0.825052 0.162806 0.891966 -0.175109
C24   C     C_R   0.174787 0.662963 0.106433 -0.175815
C25   C     C_R   0.863091 0.128203 0.578100 -0.176357
C26   C     C_R   0.137049 0.628314 0.421140 -0.161649
C27   C     C_R   0.909995 0.173388 0.563338 0.006320
C28   C     C_R   0.090539 0.673899 0.436245 0.021502
C29   C     C_R   0.913711 0.214507 0.717836 -0.050338
C30   C     C_R   0.087248 0.715472 0.282236 -0.044191
C31   C     C_2   0.022571 0.252665 0.767249 -0.157348
C32   C     C_2   0.978113 0.752979 0.231916 -0.219305
C33   C     C_2   0.961908 0.263218 0.705485 0.031052
C34   C     C_2   0.038611 0.763808 0.294056 0.041387
C35   C     C_R   0.821199 0.122264 0.741671 -0.091389
C36   C     C_R   0.178728 0.622322 0.257299 -0.095396
H1    H     H_    0.791822 0.158383 0.017271 0.160833
H2    H     H_    0.207931 0.658407 0.981119 0.160404
H3    H     H_    0.859427 0.096684 0.462362 0.162239
H4    H     H_    0.140686 0.596746 0.537534 0.156733
H5    H     H_    0.027770 0.354581 0.974639 0.163828
H6    H     H_    0.970470 0.853216 0.015743 0.162522
H7    H     H_    0.116810 0.427056 0.966511 0.139775
H8    H     H_    0.881346 0.925707 0.025247 0.137988
H9    H     H_    0.034516 0.208485 0.814947 0.129217
H10   H     H_    0.966570 0.708858 0.183841 0.138745
H11   H     H_    0.137383 0.246589 0.567093 0.164743
H12   H     H_    0.865062 0.747829 0.441871 0.158538
C37   C     C_R   0.577487 0.361824 0.735214 -0.130790
C38   C     C_R   0.423423 0.859499 0.342954 -0.132487
H13   H     H_    0.536863 0.448476 0.714792 0.149392
H14   H     H_    0.464163 0.946038 0.362619 0.146269
H15   H     H_    0.667424 0.278862 0.764903 0.149928
H16   H     H_    0.333772 0.775437 0.356788 0.150907
H17   H     H_    0.626971 0.378579 0.737507 0.145983
H18   H     H_    0.374392 0.875108 0.379184 0.144946
C39   C     C_R   0.461852 0.381951 0.719563 -0.057458
C40   C     C_R   0.538249 0.881732 0.286587 -0.057997
C41   C     C_R   0.471006 0.092164 0.774720 -0.032870
C42   C     C_R   0.528329 0.593991 0.165678 -0.031033
C43   C     C_R   0.418331 0.130912 0.758549 -0.130002
C44   C     C_R   0.580740 0.633557 0.150682 -0.129235
C45   C     C_R   0.427355 0.191519 0.749412 -0.161392
C46   C     C_R   0.571925 0.693514 0.181969 -0.157947
C47   C     C_R   0.490090 0.216673 0.755375 0.082860
C48   C     C_R   0.509681 0.717165 0.229747 0.083677
C49   C     C_R   0.544656 0.177743 0.771367 0.051324
C50   C     C_R   0.455379 0.677385 0.245060 0.051201
C51   C     C_R   0.500410 0.279208 0.743903 0.074852
C52   C     C_R   0.499604 0.779081 0.261797 0.075902
C53   C     C_R   0.565320 0.301050 0.746891 0.114406
C54   C     C_R   0.435251 0.799469 0.308470 0.115344
C55   C     C_R   0.617865 0.262270 0.762197 -0.164413
C56   C     C_R   0.382930 0.759932 0.321560 -0.170347
C57   C     C_R   0.607851 0.201840 0.774639 -0.174224
C58   C     C_R   0.392663 0.700098 0.290457 -0.178172
C59   C     C_R   0.448888 0.321128 0.730337 -0.188963
C60   C     C_R   0.550851 0.821708 0.250589 -0.185695
C61   C     C_R   0.526266 0.401791 0.721884 -0.148091
C62   C     C_R   0.474450 0.900078 0.333197 -0.147450
C63   C     C_R   0.535108 0.115430 0.781489 -0.163406
C64   C     C_R   0.464689 0.615744 0.212712 -0.164485
H19   H     H_    0.398290 0.308248 0.730353 0.135230
H20   H     H_    0.601026 0.809823 0.217362 0.126978
H21   H     H_    0.383808 0.217511 0.736483 0.150960
H22   H     H_    0.615260 0.720249 0.167301 0.143778
H23   H     H_    0.368939 0.114120 0.753726 0.169936
H24   H     H_    0.629788 0.617855 0.115469 0.169589
H25   H     H_    0.650459 0.174090 0.786538 0.105044
H26   H     H_    0.350247 0.671701 0.302838 0.107834
Br1   Br    Br    0.260587 0.309099 0.489319 -0.570182
Br2   Br    Br    0.742114 0.810278 0.523239 -0.564178
C65   C     C_2   0.953436 0.175692 0.383601 0.762888
O21   O     O_2   0.996004 0.213083 0.361412 -0.554336
O22   O     O_R   0.945367 0.134433 0.237279 -0.672262
H27   H     H_    0.976916 0.140686 0.122082 0.297038
C66   C     C_2   0.046532 0.676089 0.614958 0.760293
O23   O     O_2   0.045004 0.634461 0.727429 -0.562767
O24   O     O_R   0.007464 0.725206 0.658041 -0.663632
H28   H     H_    0.980705 0.720794 0.783858 0.303976
C67   C     C_2   0.456893 0.027645 0.782377 0.725735
O25   O     O_2   0.406788 0.008736 0.715825 -0.557562
O26   O     O_R   0.499515 0.988450 0.868315 -0.661656
H29   H     H_    0.483965 0.946134 0.864135 0.298590
C68   C     C_2   0.542202 0.530238 0.130910 0.728334
O27   O     O_2   0.590775 0.515663 0.033325 -0.558581
O28   O     O_R   0.501177 0.486689 0.212157 -0.661862
H30   H     H_    0.516283 0.445413 0.177320 0.299044
C69   C     C_2   0.940861 0.319947 0.619326 0.819561
O29   O     O_2   0.980811 0.356897 0.563352 -0.552340
O30   O     O_R   0.874302 0.330035 0.596696 -0.655967
H31   H     H_    0.865539 0.369522 0.534550 0.304462
C70   C     C_2   0.059145 0.820604 0.380069 0.856794
O31   O     O_2   0.018983 0.857864 0.431340 -0.555230
O32   O     O_R   0.125452 0.830430 0.407520 -0.653721
H32   H     H_    0.133868 0.869999 0.468676 0.299780
C71   C     C_2   0.868841 0.251912 0.047612 0.789963
O33   O     O_2   0.822526 0.252003 0.165543 -0.553512
O34   O     O_R   0.920169 0.291280 0.071566 -0.665855
H33   H     H_    0.912902 0.317321 0.188886 0.317636
C72   C     C_2   0.131374 0.752556 0.949599 0.786450
O35   O     O_2   0.170159 0.745352 0.812178 -0.556576
O36   O     O_R   0.088903 0.800661 0.947349 -0.671652
H34   H     H_    0.094896 0.825379 0.825963 0.316788

loop_
_geom_bond_atom_site_label_1
_geom_bond_atom_site_label_2
_ccdc_geom_bond_type
H14   C62   S    
H13   C61   S    
C59   H19   S    
C25   H3    S    
C48   C52   A    
C26   H4    S    
C49   C63   A    
C44   H24   S    
O36   H34   S    
O4    C2    A    
V1    O19   S    
C72   O35   D    
O30   H31   S    
C15   C17   A    
C13   H11   S    
C39   C59   A    
C7    C9    S    
C70   O32   S    
O9    V1    S    
O10   V2    S    
C11   C13   A    
C42   C44   A    
O3    C1    A    
C65   O22   S    
C2    C35   S    
C30   C34   S    
C9    C11   A    
C44   C46   A    
C22   C72   S    
O12   V4    S    
O34   H33   S    
C42   C68   S    
O13   V3    S    
C69   O30   S    
C26   C28   A    
C6    C40   S    
C51   C53   A    
O7    C3    A    
C27   C65   S    
O5    C7    A    
C24   H2    S    
O7    V1    S    
C4    C63   S    
O6    C8    A    
O8    V2    S    
C16   C32   S    
C54   C56   A    
H16   C56   S    
C42   C64   A    
C24   C36   A    
O14   V4    S    
C47   C49   A    
C5    C39   S    
O14   V2    S    
C46   H22   S    
C43   C45   A    
C8    C10   S    
C2    O12   A    
C38   H18   S    
C21   C71   S    
C17   C19   A    
C33   C69   S    
C18   C20   A    
C41   C67   S    
C72   O36   S    
C28   C30   A    
O11   V3    S    
C14   H12   S    
C21   C23   A    
O17   V3    S    
C22   C24   A    
C23   C35   A    
C9    C19   A    
C38   C54   A    
O24   H28   S    
C58   H26   S    
O8    C4    A    
C51   C59   A    
C29   C33   S    
C3    C64   S    
C17   H5    S    
C1    O11   A    
C25   C27   A    
O15   V3    S    
C41   C63   A    
C27   C29   A    
C39   C61   A    
C52   C54   A    
C23   H1    S    
V4    O20   S    
C28   C66   S    
C48   C50   A    
O22   H27   S    
O3    V1    S    
C22   C30   A    
O1    V3    S    
C40   C60   A    
C10   C20   A    
C31   C33   D    
C60   H20   S    
C66   O23   D    
C31   H9    S    
O5    V1    S    
C34   C70   S    
C50   C64   A    
C41   C43   A    
C46   C48   A    
O18   V4    S    
C32   H10   S    
O15   C5    A    
C67   O25   D    
O16   C6    A    
C20   H8    S    
O1    C3    A    
C37   C53   A    
O26   H29   S    
C12   Br2   S    
C1    C36   S    
C50   C58   A    
C38   C62   A    
C68   O27   D    
V2    O20   S    
C55   C57   A    
O16   V4    S    
V3    O19   S    
O18   C8    A    
C18   H6    S    
C16   C18   A    
C37   H17   S    
C57   H25   S    
O32   H32   S    
C53   C55   A    
C45   H21   S    
C15   C31   S    
O6    V2    S    
C70   O31   D    
O10   C6    A    
C56   C58   A    
C25   C35   A    
O2    V4    S    
C26   C36   A    
C71   O34   S    
C13   C15   A    
C71   O33   D    
C12   C14   A    
C14   C16   A    
C69   O29   D    
O9    C5    A    
O13   V1    S    
C32   C34   D    
C10   C12   A    
C47   C51   A    
O2    C4    A    
C66   O24   S    
C21   C29   A    
O4    V2    S    
C43   H23   S    
C37   C61   A    
C11   Br1   S    
C52   C60   A    
C19   H7    S    
C67   O26   S    
C45   C47   A    
C40   C62   A    
H15   C55   S    
C49   C57   A    
C65   O21   D    
O28   H30   S    
C68   O28   S    
O17   C7    A    
