data_mof_unit_60435.cif
_audit_creation_date              2012-10-26T19:17:28-0400
_audit_creation_method            fapswitch 2.2
_symmetry_space_group_name_H-M    P1
_symmetry_Int_Tables_number       1
_space_group_crystal_system       triclinic
_cell_length_a                    14.335756
_cell_length_b                    15.962853
_cell_length_c                    17.117304
_cell_angle_alpha                 95.826679
_cell_angle_beta                  93.453904
_cell_angle_gamma                 91.680463
_cell_volume                      3887.32227091

loop_
_atom_site_label
_atom_site_type_symbol
_atom_type_description
_atom_site_fract_x
_atom_site_fract_y
_atom_site_fract_z
_atom_type_partial_charge
C1    C     C_R   0.499291 0.489834 0.348745 0.554613
C2    C     C_R   0.551537 0.158839 0.537851 0.012561
C3    C     C_R   0.506613 0.891279 0.518934 0.130582
C4    C     C_R   0.493393 0.108720 0.481063 0.130579
C5    C     C_R   0.564511 0.850489 0.570057 -0.102814
C6    C     C_R   0.435541 0.149511 0.429908 -0.102848
C7    C     C_R   0.567395 0.761677 0.565104 0.112425
C8    C     C_R   0.432659 0.238323 0.434859 0.112407
C9    C     C_R   0.331139 0.500354 0.499834 0.549126
C10   C     C_R   0.668860 0.499646 0.500166 0.549126
C11   C     C_1   0.228835 0.501001 0.499864 -0.010716
C12   C     C_R   0.500710 0.510166 0.651255 0.554596
C13   C     C_1   0.771165 0.498999 0.500136 -0.010668
C14   C     C_1   0.143402 0.500874 0.499895 -0.011673
C15   C     C_1   0.856598 0.499126 0.500105 -0.011639
C16   C     C_1   0.042725 0.500296 0.499965 0.025959
C17   C     C_1   0.957275 0.499704 0.500035 0.025969
C18   C     C_R   0.498759 0.484612 0.262703 0.005986
C19   C     C_R   0.501240 0.515387 0.737295 0.006031
C20   C     C_R   0.509733 0.558124 0.225256 -0.132141
C21   C     C_R   0.490100 0.441889 0.774735 -0.132124
C22   C     C_R   0.508797 0.553536 0.143702 -0.071967
C23   C     C_R   0.486230 0.401677 0.135541 -0.090877
C24   C     C_R   0.491028 0.446476 0.856289 -0.071957
C25   C     C_R   0.496890 0.474798 0.098016 0.227524
C26   C     C_R   0.503106 0.525197 0.901981 0.227534
C27   C     C_2   0.619471 0.117583 0.588957 0.289893
C28   C     C_2   0.380461 0.882424 0.411102 0.289890
C29   C     C_2   0.632386 0.725044 0.622452 0.252497
C30   C     C_2   0.367746 0.274956 0.377457 0.252557
C31   C     C_R   0.513928 0.598305 0.864463 -0.090889
C32   C     C_R   0.487152 0.406273 0.217247 -0.137369
C33   C     C_R   0.513008 0.593711 0.782758 -0.137423
C34   C     C_R   0.450721 0.751601 0.458662 0.222002
C35   C     C_R   0.549252 0.248399 0.541359 0.222010
C36   C     C_R   0.448431 0.841161 0.462173 0.012574
Cu1   Cu    Cu3+1 0.495850 0.415220 0.496180 0.974783
Cu2   Cu    Cu3+1 0.504150 0.584780 0.503820 0.974782
H1    H     H_    0.480417 0.380702 0.741111 0.165576
H2    H     H_    0.391695 0.110793 0.385697 0.188136
H3    H     H_    0.665660 0.071439 0.562841 0.131104
H4    H     H_    0.334294 0.928569 0.437246 0.131078
H5    H     H_    0.645664 0.659039 0.618724 0.167327
H6    H     H_    0.354251 0.340925 0.381317 0.167285
H7    H     H_    0.519284 0.619326 0.258873 0.165644
H8    H     H_    0.482252 0.388439 0.883139 0.154779
H9    H     H_    0.517432 0.611586 0.116847 0.154789
H10   H     H_    0.477071 0.340852 0.101172 0.142144
H11   H     H_    0.523217 0.659117 0.898837 0.142110
H12   H     H_    0.478504 0.348546 0.244656 0.158621
H13   H     H_    0.521791 0.651424 0.755353 0.158394
H14   H     H_    0.608387 0.889211 0.614244 0.188154
I1    I     I_    0.650989 0.316785 0.623518 -0.243374
I2    I     I_    0.348981 0.683215 0.376506 -0.243431
N1    N     N_2   0.495217 0.466095 0.014696 -0.237517
N2    N     N_2   0.504784 0.533898 0.985300 -0.237531
N3    N     N_R   0.510380 0.712130 0.509560 -0.261106
N4    N     N_R   0.489620 0.287870 0.490440 -0.261107
N5    N     N_2   0.505352 0.981846 0.530660 -0.231018
N6    N     N_2   0.494651 0.018152 0.469339 -0.230956
O1    O     O_R   0.496120 0.420530 0.382500 -0.528351
O2    O     O_2   0.379114 0.868760 0.339558 -0.451720
O3    O     O_2   0.673814 0.769759 0.676496 -0.518342
O4    O     O_2   0.326649 0.230295 0.323211 -0.518398
O5    O     O_R   0.503880 0.579470 0.617500 -0.528460
O6    O     O_R   0.503120 0.563720 0.388950 -0.471600
O7    O     O_R   0.496880 0.436280 0.611050 -0.471586
O8    O     O_R   0.372550 0.428390 0.496770 -0.513387
O9    O     O_R   0.627450 0.571610 0.503230 -0.513326
O10   O     O_R   0.379550 0.571580 0.503220 -0.451541
O11   O     O_R   0.620450 0.428420 0.496780 -0.451564
O12   O     O_2   0.620768 0.131253 0.660498 -0.451730

loop_
_geom_bond_atom_site_label_1
_geom_bond_atom_site_label_2
_ccdc_geom_bond_type
C2    C35   A    
C34   N3    A    
Cu1   O1    S    
N1    N2    D    
C31   C33   A    
C5    H14   S    
C34   I2    S    
Cu1   Cu2   S    
C7    C29   S    
C30   O4    D    
C35   I1    S    
Cu2   N3    S    
C5    C7    A    
C12   O5    A    
C27   H3    S    
C2    C4    A    
Cu1   N4    S    
C21   H1    S    
Cu2   O5    S    
C8    C30   S    
C23   C32   A    
C4    N6    S    
Cu2   O10   S    
C22   H9    S    
C9    O8    A    
C24   H8    S    
N5    N6    D    
C23   C25   A    
C29   H5    S    
C33   H13   S    
C9    C11   S    
C30   H6    S    
C1    C18   S    
C2    C27   S    
C26   N2    S    
C3    C36   A    
C31   H11   S    
C35   N4    A    
Cu1   O7    S    
C12   C19   S    
C28   H4    S    
C29   O3    D    
C11   C14   T    
C22   C25   A    
C24   C26   A    
C1    O6    A    
C34   C36   A    
Cu1   O11   S    
C13   C15   T    
C12   O7    A    
C14   C16   S    
Cu2   O9    S    
C18   C32   A    
C20   C22   A    
C10   O11   A    
Cu1   O8    S    
C25   N1    S    
C26   C31   A    
C6    H2    S    
Cu2   O6    S    
C9    O10   A    
C28   C36   S    
C18   C20   A    
C4    C6    A    
C19   C33   A    
C21   C24   A    
C15   C17   S    
C3    N5    S    
C10   O9    A    
C6    C8    A    
C23   H10   S    
C8    N4    A    
C19   C21   A    
C7    N3    A    
C32   H12   S    
C27   O12   D    
C20   H7    S    
C1    O1    A    
C16   C17   T    
C3    C5    A    
C10   C13   S    
C28   O2    D    
