data_mof_unit_63492.cif
_audit_creation_date              2012-12-10T19:46:56-0500
_audit_creation_method            fapswitch 2.2
_symmetry_space_group_name_H-M    P1
_symmetry_Int_Tables_number       1
_space_group_crystal_system       triclinic
_cell_length_a                    28.61951
_cell_length_b                    18.288895
_cell_length_c                    21.715629
_cell_angle_alpha                 89.452312
_cell_angle_beta                  140.392197
_cell_angle_gamma                 90.421277
_cell_volume                      7246.06325862

loop_
_atom_site_label
_atom_site_type_symbol
_atom_type_description
_atom_site_fract_x
_atom_site_fract_y
_atom_site_fract_z
_atom_type_partial_charge
C1    C     C_R   0.858858 0.499932 0.861015 0.936830
C2    C     C_R   0.946010 0.530338 0.224696 0.096025
C3    C     C_R   0.554036 0.969737 0.775354 0.096062
C4    C     C_R   0.446356 0.031000 0.225118 0.094626
C5    C     C_R   0.001466 0.509403 0.688317 -0.089987
C6    C     C_R   0.998581 0.490638 0.311754 -0.090063
C7    C     C_R   0.501420 0.009377 0.688248 -0.090129
C8    C     C_R   0.498582 0.990788 0.311764 -0.087751
C9    C     C_1   0.782322 0.499887 0.784604 -0.200338
C10   C     C_1   0.217681 0.500107 0.215476 -0.199465
C11   C     C_1   0.282319 0.999893 0.784528 -0.199369
C12   C     C_R   0.141150 0.500065 0.139107 0.936477
C13   C     C_1   0.717681 0.000105 0.215468 -0.203168
C14   C     C_1   0.717488 0.499939 0.719184 -0.177400
C15   C     C_1   0.282513 0.500055 0.280844 -0.177238
C16   C     C_1   0.217487 0.999944 0.719157 -0.177242
C17   C     C_1   0.782513 0.000050 0.280846 -0.186279
C18   C     C_R   0.999999 0.641305 0.500210 0.922522
C19   C     C_R   0.000001 0.358695 0.499789 0.922226
C20   C     C_R   0.499999 0.141305 0.500210 0.922139
C21   C     C_R   0.500001 0.858695 0.499789 0.922219
C22   C     C_R   0.000683 0.503271 0.621106 0.887821
C23   C     C_R   0.358851 0.999934 0.860899 0.936636
C24   C     C_R   0.999320 0.496818 0.378902 0.887770
C25   C     C_R   0.500680 0.003190 0.621098 0.887810
C26   C     C_R   0.499324 0.996829 0.378912 0.890105
C27   C     C_R   0.500032 0.640954 0.499784 0.924066
C28   C     C_R   0.499968 0.359046 0.500217 0.924222
C29   C     C_R   0.000032 0.140954 0.499783 0.924924
C30   C     C_R   0.999967 0.859046 0.500216 0.922965
C31   C     C_R   0.640959 0.500006 0.641490 0.927539
C32   C     C_R   0.359041 0.499992 0.358514 0.927839
C33   C     C_R   0.140958 0.000007 0.641486 0.928103
C34   C     C_R   0.641148 0.000067 0.139077 0.940885
C35   C     C_R   0.859041 0.999987 0.358515 0.926383
C36   C     C_1   0.999979 0.717782 0.500576 -0.176470
C37   C     C_1   0.000021 0.282218 0.499423 -0.176051
C38   C     C_1   0.499979 0.217782 0.500576 -0.176035
C39   C     C_1   0.500021 0.782218 0.499422 -0.177040
C40   C     C_R   0.995639 0.500316 0.875498 0.926542
C41   C     C_R   0.004619 0.499655 0.124758 0.925798
C42   C     C_R   0.495383 0.000345 0.875245 0.926252
C43   C     C_R   0.504426 0.999676 0.124581 0.931735
C44   C     C_1   0.499960 0.282550 0.500652 -0.170278
C45   C     C_R   0.050067 0.468171 0.834689 -0.271970
C46   C     C_1   0.500040 0.717450 0.499348 -0.170876
C47   C     C_1   0.999960 0.782550 0.500651 -0.171151
C48   C     C_1   0.000039 0.217450 0.499348 -0.170468
C49   C     C_R   0.868151 0.561696 0.674425 0.070260
C50   C     C_R   0.131316 0.436296 0.325153 0.072016
C51   C     C_R   0.368627 0.063578 0.674791 0.071982
C52   C     C_R   0.630890 0.935698 0.324609 0.012051
C53   C     C_R   0.815487 0.599409 0.585343 0.079921
C54   C     C_R   0.183731 0.398427 0.414193 0.077504
C55   C     C_R   0.316172 0.101390 0.585710 0.077507
C56   C     C_R   0.950549 0.532332 0.165927 -0.271410
C57   C     C_R   0.682582 0.896118 0.412871 0.083104
C58   C     C_R   0.830907 0.617818 0.539722 0.163242
C59   C     C_R   0.168509 0.381213 0.460292 0.148772
C60   C     C_R   0.331381 0.118631 0.539602 0.148765
C61   C     C_R   0.666911 0.878993 0.458202 0.223656
C62   C     C_R   0.895600 0.593932 0.578714 -0.204902
C63   C     C_R   0.103889 0.405537 0.421135 -0.201794
C64   C     C_R   0.396032 0.094385 0.578793 -0.201780
C65   C     C_R   0.602978 0.904579 0.420062 -0.243897
C66   C     C_R   0.944421 0.547566 0.660701 -0.015557
C67   C     C_R   0.549496 0.967737 0.834122 -0.271425
C68   C     C_R   0.055331 0.451937 0.339174 -0.015126
C69   C     C_R   0.444633 0.048025 0.660793 -0.015094
C70   C     C_R   0.554968 0.951618 0.338767 -0.013799
C71   C     C_R   0.934994 0.537686 0.715033 0.056211
C72   C     C_R   0.064831 0.461432 0.284870 0.055809
C73   C     C_R   0.435139 0.038514 0.715101 0.055766
C74   C     C_R   0.564581 0.961200 0.284604 0.080435
C75   C     C_R   0.991626 0.501131 0.805474 -0.090052
C76   C     C_R   0.008645 0.498709 0.194821 -0.091090
C77   C     C_R   0.491361 0.001292 0.805186 -0.091109
C78   C     C_R   0.450832 0.032967 0.166285 -0.276955
C79   C     C_R   0.508607 0.998853 0.194809 -0.089735
C80   C     C_R   0.054472 0.470179 0.775771 0.096522
H1    H     H_    0.092469 0.439941 0.903739 0.152895
H2    H     H_    0.837484 0.591150 0.728515 0.230133
H3    H     H_    0.196261 0.486654 0.328602 0.195600
H4    H     H_    0.161143 0.405475 0.270304 0.231118
H5    H     H_    0.303742 0.013139 0.671400 0.195629
H6    H     H_    0.338758 0.094363 0.729595 0.231061
H7    H     H_    0.696160 0.986759 0.328647 0.178615
H8    H     H_    0.659121 0.906601 0.267103 0.210900
H9    H     H_    0.737904 0.673527 0.528811 0.246498
H10   H     H_    0.705075 0.590892 0.474823 0.211887
H11   H     H_    0.260040 0.322779 0.470033 0.239395
H12   H     H_    0.908476 0.561028 0.097191 0.153291
H13   H     H_    0.294250 0.405330 0.524167 0.213915
H14   H     H_    0.205659 0.094363 0.475734 0.213949
H15   H     H_    0.239774 0.176949 0.529788 0.239389
H16   H     H_    0.742352 0.842287 0.409627 0.217915
H17   H     H_    0.780777 0.920839 0.474024 0.193339
H18   H     H_    0.107946 0.375680 0.812886 0.186558
H19   H     H_    0.162195 0.450547 0.870995 0.192048
H20   H     H_    0.893459 0.625354 0.188507 0.186294
H21   H     H_    0.838470 0.551033 0.129556 0.191936
H22   H     H_    0.606718 0.874789 0.811691 0.186306
H23   H     H_    0.591600 0.939088 0.902891 0.153213
H24   H     H_    0.661603 0.949187 0.870519 0.191978
H25   H     H_    0.394626 0.126446 0.189831 0.186697
H26   H     H_    0.339017 0.052583 0.130300 0.192616
H27   H     H_    0.408953 0.061991 0.097781 0.154472
H28   H     H_    0.906205 0.611072 0.542561 0.183523
H29   H     H_    0.093270 0.388849 0.457377 0.183996
H30   H     H_    0.406641 0.111099 0.542546 0.184012
H31   H     H_    0.592405 0.888203 0.456435 0.183490
H32   H     H_    0.803679 0.509710 0.670858 0.195834
I1    I     I_    0.755637 0.676165 0.407072 -0.421791
I2    I     I_    0.244151 0.324713 0.594400 -0.423306
I3    I     I_    0.255675 0.175042 0.405427 -0.422902
I4    I     I_    0.742384 0.821233 0.591178 -0.370376
N1    N     N_3   0.850367 0.542867 0.718572 -0.449822
N2    N     N_3   0.888867 0.570314 0.196762 -0.426923
N3    N     N_3   0.611232 0.929832 0.803346 -0.426802
N4    N     N_3   0.389598 0.071443 0.197642 -0.426704
N5    N     N_3   0.149095 0.454171 0.280800 -0.449408
N6    N     N_3   0.350867 0.045681 0.719163 -0.449408
N7    N     N_3   0.648724 0.954736 0.280542 -0.456576
N8    N     N_3   0.746006 0.617274 0.541490 -0.451472
N9    N     N_3   0.252752 0.379088 0.457479 -0.450324
N10   N     N_3   0.247125 0.120647 0.542396 -0.450318
N11   N     N_3   0.751745 0.874103 0.458013 -0.413036
N12   N     N_3   0.111971 0.430755 0.804026 -0.426236
O1    O     O_R   0.892670 0.439420 0.892670 -0.613541
O2    O     O_R   0.000010 0.560580 0.091620 -0.624694
O3    O     O_R   0.000010 0.439420 0.091620 -0.612572
O4    O     O_R   0.999990 0.560580 0.908380 -0.612110
O5    O     O_R   0.499990 0.939420 0.908380 -0.624682
O6    O     O_R   0.500010 0.060580 0.091620 -0.624929
O7    O     O_R   0.500010 0.939420 0.091620 -0.612622
O8    O     O_R   0.499990 0.060580 0.908380 -0.612572
O9    O     O_R   0.060590 0.607350 0.560620 -0.618335
O10   O     O_R   0.939410 0.392650 0.439380 -0.618670
O11   O     O_R   0.939410 0.607350 0.439380 -0.614328
O12   O     O_R   0.107330 0.560580 0.107330 -0.613943
O13   O     O_R   0.060590 0.392650 0.560620 -0.613261
O14   O     O_R   0.560590 0.107350 0.560620 -0.618772
O15   O     O_R   0.439410 0.892650 0.439380 -0.618197
O16   O     O_R   0.439410 0.107350 0.439380 -0.613196
O17   O     O_R   0.560590 0.892650 0.560620 -0.614771
O18   O     O_R   0.060610 0.500000 0.652240 -0.597070
O19   O     O_R   0.939390 0.500000 0.347760 -0.597472
O20   O     O_R   0.560610 0.000000 0.652240 -0.597440
O21   O     O_R   0.439390 0.000000 0.347760 -0.597881
O22   O     O_R   0.939430 0.500000 0.531050 -0.628395
O23   O     O_R   0.107330 0.439420 0.107330 -0.621982
O24   O     O_R   0.060570 0.500000 0.468950 -0.627889
O25   O     O_R   0.439430 0.000000 0.531050 -0.627841
O26   O     O_R   0.560570 0.000000 0.468950 -0.627740
O27   O     O_R   0.500010 0.607330 0.448300 -0.615211
O28   O     O_R   0.499990 0.392670 0.551700 -0.614979
O29   O     O_R   0.499990 0.607330 0.551700 -0.619807
O30   O     O_R   0.500010 0.392670 0.448300 -0.619896
O31   O     O_R   0.000010 0.107330 0.448300 -0.614860
O32   O     O_R   0.999990 0.892670 0.551700 -0.615067
O33   O     O_R   0.999990 0.107330 0.551700 -0.619341
O34   O     O_R   0.892670 0.560580 0.892670 -0.622066
O35   O     O_R   0.000010 0.892670 0.448300 -0.619752
O36   O     O_R   0.607330 0.500000 0.555630 -0.616747
O37   O     O_R   0.392670 0.500000 0.444370 -0.616690
O38   O     O_R   0.107330 0.000000 0.555630 -0.616699
O39   O     O_R   0.892670 0.000000 0.444370 -0.623191
O40   O     O_R   0.607340 0.500000 0.659080 -0.620662
O41   O     O_R   0.392660 0.500000 0.340920 -0.620597
O42   O     O_R   0.107340 0.000000 0.659080 -0.619846
O43   O     O_R   0.892660 0.000000 0.340920 -0.618628
O44   O     O_R   0.392670 0.939420 0.892670 -0.614088
O45   O     O_R   0.607330 0.060580 0.107330 -0.612876
O46   O     O_R   0.607330 0.939420 0.107330 -0.624314
O47   O     O_R   0.392670 0.060580 0.892670 -0.622055
O48   O     O_R   0.999990 0.439420 0.908380 -0.624280
Zn1   Zn    Zn3+2 0.000000 0.419100 0.000000 0.988271
Zn2   Zn    Zn3+2 0.500000 0.500000 0.569060 0.982831
Zn3   Zn    Zn3+2 1.000000 0.000000 0.430940 0.983085
Zn4   Zn    Zn3+2 0.000000 0.000000 0.569060 0.980893
Zn5   Zn    Zn3+2 0.000000 0.580900 0.000000 0.988740
Zn6   Zn    Zn3+2 0.500000 0.919100 0.000000 0.985220
Zn7   Zn    Zn3+2 0.500000 0.080900 0.000000 0.988290
Zn8   Zn    Zn3+2 0.080920 0.500000 0.580940 1.002520
Zn9   Zn    Zn3+2 0.919080 0.500000 0.419060 1.000513
Zn10  Zn    Zn3+2 0.580920 0.000000 0.580940 1.000303
Zn11  Zn    Zn3+2 0.419080 0.000000 0.419060 1.002717
Zn12  Zn    Zn3+2 0.500000 0.500000 0.430940 0.982526

loop_
_geom_bond_atom_site_label_1
_geom_bond_atom_site_label_2
_ccdc_geom_bond_type
C58   C62   A    
H7    N7    S    
C32   O41   A    
C22   O22   A    
C56   C76   A    
C43   O6    A    
C8    C26   S    
C20   O16   A    
C33   O38   A    
C67   C77   A    
O6    Zn7   S    
C72   C76   A    
H10   N8    S    
O46   Zn6   S    
O22   Zn9   S    
O3    Zn1   S    
C67   H23   S    
C15   C32   S    
C29   O31   A    
O9    Zn8   S    
O19   Zn9   S    
C30   O32   A    
O26   Zn10  S    
C50   C54   A    
C52   C74   A    
C42   O5    A    
H21   N2    S    
C1    O1    A    
O27   Zn12  S    
C59   I2    S    
H32   N1    S    
C16   C33   S    
C52   N7    S    
O40   Zn2   S    
H18   N12   S    
O23   Zn1   S    
C62   H28   S    
O20   Zn10  S    
C65   C70   A    
C35   O43   A    
C36   C47   T    
C42   O8    A    
C4    C78   A    
C53   N8    S    
C50   C72   A    
O32   Zn4   S    
C19   C37   S    
C63   C68   A    
O28   Zn2   S    
C65   H31   S    
C23   O44   A    
C22   O18   A    
C70   C74   A    
C58   I1    S    
C35   O39   A    
C12   O12   A    
H25   N4    S    
C69   C73   A    
O24   Zn8   S    
C24   O24   A    
C14   C31   S    
C51   C55   A    
C4    C8    A    
H24   N3    S    
C55   C60   A    
C6    C68   A    
O39   Zn4   S    
C40   O4    A    
C19   O13   A    
C32   O37   A    
C27   O27   A    
O37   Zn2   S    
C12   O23   A    
O43   Zn3   S    
C2    C6    A    
C50   N5    S    
O15   Zn11  S    
C30   O35   A    
H8    N7    S    
C33   O42   A    
C10   C12   S    
C54   C59   A    
H14   N10   S    
C2    N2    S    
O14   Zn10  S    
C54   N9    S    
C49   N1    S    
C5    C22   S    
C29   C48   S    
C25   O25   A    
C29   O33   A    
C30   C47   S    
H2    N1    S    
O10   Zn9   S    
C1    C9    S    
C21   O15   A    
O34   Zn5   S    
C41   O3    A    
C62   C66   A    
C78   C79   A    
C80   N12   S    
H4    N5    S    
O1    Zn1   S    
C28   C44   S    
H16   N11   S    
O42   Zn4   S    
C78   H27   S    
C37   C48   T    
C21   O17   A    
C63   H29   S    
C18   O9    A    
C9    C14   T    
C38   C44   T    
C34   O46   A    
C20   O14   A    
O4    Zn5   S    
C20   C38   S    
C11   C16   T    
C64   H30   S    
C66   C71   A    
C21   C39   S    
C55   N10   S    
C68   C72   A    
C6    C24   S    
C61   I4    S    
C28   O30   A    
H5    N6    S    
C64   C69   A    
H3    N5    S    
C5    C80   A    
C43   O7    A    
C45   C75   A    
C43   C79   S    
C3    N3    S    
C39   C46   T    
C27   C46   S    
O48   Zn1   S    
C1    O34   A    
O21   Zn11  S    
C74   C79   A    
O35   Zn3   S    
C59   C63   A    
C26   O26   A    
H20   N2    S    
O47   Zn7   S    
H17   N11   S    
C31   O36   A    
O33   Zn4   S    
H11   N9    S    
H26   N4    S    
C10   C15   T    
C8    C70   A    
C26   O21   A    
C3    C67   A    
H6    N6    S    
C51   C73   A    
O41   Zn12  S    
O31   Zn3   S    
C5    C66   A    
O36   Zn12  S    
C24   O19   A    
O30   Zn12  S    
C57   N11   S    
C53   C58   A    
C57   C61   A    
H19   N12   S    
H9    N8    S    
O18   Zn8   S    
C27   O29   A    
O25   Zn11  S    
C40   O48   A    
C3    C7    A    
O12   Zn5   S    
C7    C25   S    
C40   C75   S    
C13   C17   T    
O17   Zn10  S    
C60   C64   A    
O13   Zn8   S    
C7    C69   A    
C13   C34   S    
O2    Zn5   S    
C34   O45   A    
C2    C56   A    
C41   C76   S    
C71   C75   A    
H15   N10   S    
C41   O2    A    
C19   O10   A    
C49   C53   A    
O8    Zn7   S    
C11   C23   S    
C45   C80   A    
C45   H1    S    
O29   Zn2   S    
C61   C65   A    
C18   O11   A    
H13   N9    S    
C52   C57   A    
O44   Zn6   S    
O5    Zn6   S    
C56   H12   S    
C23   O47   A    
C31   O40   A    
O45   Zn7   S    
C42   C77   S    
C49   C71   A    
C28   O28   A    
C51   N6    S    
C73   C77   A    
C4    N4    S    
C60   I3    S    
O38   Zn3   S    
C17   C35   S    
O7    Zn6   S    
O11   Zn9   S    
C25   O20   A    
C18   C36   S    
H22   N3    S    
O16   Zn11  S    
