data_mof_unit_67962.cif
_audit_creation_date              2012-12-10T20:47:09-0500
_audit_creation_method            fapswitch 2.2
_symmetry_space_group_name_H-M    P1
_symmetry_Int_Tables_number       1
_space_group_crystal_system       triclinic
_cell_length_a                    10.765358
_cell_length_b                    8.963182
_cell_length_c                    8.175008
_cell_angle_alpha                 89.564207
_cell_angle_beta                  92.007374
_cell_angle_gamma                 89.455549
_cell_volume                      788.277207628

loop_
_atom_site_label
_atom_site_type_symbol
_atom_type_description
_atom_site_fract_x
_atom_site_fract_y
_atom_site_fract_z
_atom_type_partial_charge
C1    C     C_R   0.500438 0.218217 0.500335 0.888093
C2    C     C_R   0.063478 0.556475 0.645926 -0.124471
C3    C     C_R   0.124161 0.509094 0.503015 -0.047147
C4    C     C_R   0.872382 0.463371 0.526085 -0.054556
C5    C     C_R   0.059176 0.427648 0.384234 -0.162420
C6    C     C_R   0.933659 0.406763 0.394062 -0.162273
C7    C     C_1   0.501487 0.065168 0.500435 -0.202971
C8    C     C_1   0.501370 0.934806 0.499413 -0.204473
C9    C     C_3   0.222454 0.857405 0.830981 0.129266
C10   C     C_3   0.127092 0.966490 0.750647 -0.435845
C11   C     C_3   0.171289 0.031117 0.589900 -0.825343
C12   C     C_R   0.500493 0.781783 0.499602 0.951643
C13   C     C_3   0.827888 0.279225 0.919416 0.143960
C14   C     C_3   0.815031 0.178207 0.769002 -0.368732
C15   C     C_3   0.798389 0.015472 0.817151 -1.005842
C16   C     C_3   0.212329 0.380025 0.962763 0.126214
C17   C     C_3   0.250310 0.253449 0.083300 -0.414619
C18   C     C_3   0.355793 0.157113 0.019604 -0.910462
C19   C     C_3   0.867002 0.716677 0.141177 0.138677
C20   C     C_3   0.962330 0.830351 0.205020 -0.374777
C21   C     C_3   0.898777 0.967586 0.275330 -1.002009
C22   C     C_R   0.258697 0.506952 0.498751 0.908014
C23   C     C_R   0.740153 0.487328 0.505945 0.849809
C24   C     C_R   0.125257 0.632794 0.775791 0.319533
C25   C     C_R   0.896082 0.508783 0.832519 0.360166
C26   C     C_R   0.092978 0.593972 0.935451 0.256213
C27   C     C_R   0.967882 0.572110 0.959289 0.269306
C28   C     C_R   0.940930 0.509155 0.668821 -0.174883
H1    H     H_    0.103996 0.380388 0.282482 0.190470
H2    H     H_    0.762619 0.241072 0.013014 0.163763
H3    H     H_    0.923020 0.268026 0.977217 0.100385
H4    H     H_    0.733248 0.213016 0.691713 0.252025
H5    H     H_    0.899264 0.187963 0.695201 0.207482
H6    H     H_    0.877858 0.978281 0.897196 0.257943
H7    H     H_    0.794487 0.945187 0.705836 0.265876
H8    H     H_    0.710602 0.001262 0.882815 0.278234
H9    H     H_    0.292468 0.403075 0.889312 0.217422
H10   H     H_    0.138184 0.334360 0.878936 0.077281
H11   H     H_    0.283446 0.295668 0.202028 0.277910
H12   H     H_    0.883281 0.352225 0.294524 0.177605
H13   H     H_    0.168356 0.182109 0.104536 0.178505
H14   H     H_    0.343933 0.141575 0.885864 0.254243
H15   H     H_    0.358274 0.047314 0.083517 0.253372
H16   H     H_    0.446676 0.211475 0.042933 0.281774
H17   H     H_    0.797486 0.701578 0.236143 0.197809
H18   H     H_    0.813805 0.760052 0.031185 0.119467
H19   H     H_    0.023479 0.778001 0.302142 0.259880
H20   H     H_    0.020970 0.866214 0.103459 0.189129
H21   H     H_    0.853436 0.937817 0.390967 0.272953
H22   H     H_    0.827572 0.013907 0.187113 0.264794
H23   H     H_    0.316569 0.905292 0.826328 0.181618
H24   H     H_    0.968823 0.055022 0.301251 0.260972
H25   H     H_    0.205171 0.841745 0.963158 0.099736
H26   H     H_    0.037744 0.908870 0.726334 0.226118
H27   H     H_    0.109644 0.059442 0.835976 0.194968
H28   H     H_    0.257437 0.095791 0.611557 0.238570
H29   H     H_    0.099125 0.108225 0.536942 0.235091
H30   H     H_    0.188537 0.940608 0.501190 0.280100
N1    N     N_1   0.500000 0.500000 0.073640 -0.020258
N2    N     N_1   0.500000 0.500000 0.926360 -0.018190
O1    O     O_R   0.500000 0.285350 0.636850 -0.637688
O2    O     O_3   0.793737 0.428231 0.878615 -0.581456
O3    O     O_3   0.177056 0.516493 0.039402 -0.602691
O4    O     O_3   0.923862 0.576335 0.114852 -0.609319
O5    O     O_R   0.500000 0.714650 0.636850 -0.592091
O6    O     O_R   0.500000 0.285360 0.363100 -0.629842
O7    O     O_R   0.500000 0.714640 0.363100 -0.623962
O8    O     O_R   0.316770 0.500000 0.636900 -0.608738
O9    O     O_R   0.683230 0.500000 0.636900 -0.565275
O10   O     O_R   0.316780 0.500000 0.363150 -0.609886
O11   O     O_R   0.683220 0.500000 0.363150 -0.628262
O12   O     O_3   0.226987 0.721667 0.745887 -0.585107
Zn1   Zn    Zn3+2 0.500000 0.500000 0.682780 1.005797
Zn2   Zn    Zn3+2 0.500000 0.500000 0.317220 0.981395

loop_
_geom_bond_atom_site_label_1
_geom_bond_atom_site_label_2
_ccdc_geom_bond_type
O10   Zn2   S    
O11   Zn2   S    
C16   H10   S    
C26   O3    S    
C19   H17   S    
O9    Zn1   S    
C16   O3    S    
C18   H16   S    
C25   C27   A    
C11   H30   S    
C9    C10   S    
C15   H8    S    
C15   H6    S    
O6    Zn2   S    
C19   C20   S    
C9    H23   S    
C9    O12   S    
C19   O4    S    
C8    C12   S    
C12   O5    A    
C14   H5    S    
C21   H21   S    
C2    C3    A    
C19   H18   S    
N1    N2    T    
O7    Zn2   S    
C11   H29   S    
C13   C14   S    
C20   C21   S    
C25   C28   A    
C10   H27   S    
N1    Zn2   S    
C22   O8    A    
C26   C27   A    
C20   H20   S    
C15   H7    S    
C21   H22   S    
C4    C28   A    
C24   C26   A    
C1    O6    A    
C5    H1    S    
C25   O2    S    
C18   H14   S    
C2    C24   A    
C5    C6    A    
C10   H26   S    
C12   O7    A    
C6    H12   S    
C17   H13   S    
C9    H25   S    
C10   C11   S    
C11   H28   S    
C20   H19   S    
C23   O11   A    
N2    Zn1   S    
C7    C8    T    
O5    Zn1   S    
C13   H2    S    
C24   O12   S    
C17   C18   S    
C4    C6    A    
C27   O4    S    
C18   H15   S    
C4    C23   S    
C17   H11   S    
C14   C15   S    
C3    C22   S    
C2    C28   A    
C22   O10   A    
O1    Zn1   S    
O8    Zn1   S    
C1    C7    S    
C23   O9    A    
C13   H3    S    
C21   H24   S    
C13   O2    S    
C16   H9    S    
C14   H4    S    
C16   C17   S    
C3    C5    A    
C1    O1    A    
