data_mof_unit_14549.cif
_audit_creation_date              2012-12-10T19:16:17-0500
_audit_creation_method            fapswitch 2.2
_symmetry_space_group_name_H-M    P1
_symmetry_Int_Tables_number       1
_space_group_crystal_system       triclinic
_cell_length_a                    10.633368
_cell_length_b                    9.680565
_cell_length_c                    27.729867
_cell_angle_alpha                 89.964455
_cell_angle_beta                  90.072402
_cell_angle_gamma                 89.994027
_cell_volume                      2854.42675522

loop_
_atom_site_label
_atom_site_type_symbol
_atom_type_description
_atom_site_fract_x
_atom_site_fract_y
_atom_site_fract_z
_atom_type_partial_charge
C1    C     C_R   0.257826 0.500275 0.499673 0.902978
C2    C     C_R   0.375632 0.503597 0.974449 0.046523
C3    C     C_R   0.607999 0.496233 0.974498 0.046730
C4    C     C_R   0.499941 0.500040 0.405940 0.931724
C5    C     C_R   0.491767 0.499800 0.949243 0.070840
C6    C     C_R   0.263013 0.516163 0.947559 -0.214664
C7    C     C_R   0.264230 0.518447 0.897570 -0.133944
C8    C     C_R   0.377552 0.508760 0.872520 -0.023001
C9    C     C_R   0.491690 0.499573 0.898167 -0.051523
C10   C     C_R   0.605775 0.490184 0.872617 -0.022342
C11   C     C_R   0.603533 0.489851 0.822205 0.505296
C12   C     C_R   0.505750 0.625292 0.277865 -0.101930
C13   C     C_R   0.379746 0.508873 0.822085 0.505571
C14   C     C_R   0.503222 0.374564 0.722111 -0.096605
C15   C     C_R   0.505523 0.374547 0.672038 -0.227408
C16   C     C_R   0.742578 0.500246 0.499893 0.860775
C17   C     C_R   0.485299 0.624736 0.671953 -0.196038
C18   C     C_R   0.482587 0.624282 0.722031 -0.093437
C19   C     C_R   0.491876 0.499332 0.746994 0.323191
C20   C     C_R   0.375772 0.495914 0.025467 0.046780
C21   C     C_R   0.492008 0.500336 0.050705 0.070634
C22   C     C_R   0.608101 0.504543 0.025482 0.046842
C23   C     C_R   0.493045 0.500683 0.252965 0.326305
C24   C     C_R   0.263343 0.482731 0.052326 -0.214503
C25   C     C_R   0.719548 0.520830 0.102280 -0.135994
C26   C     C_R   0.720518 0.483196 0.947699 -0.214927
C27   C     C_R   0.719157 0.480529 0.897731 -0.134075
C28   C     C_R   0.499531 0.499952 0.594028 0.869489
C29   C     C_R   0.720684 0.518190 0.052312 -0.215261
C30   C     C_3   0.072365 0.427713 0.545985 -0.200943
C31   C     C_3   0.071292 0.418701 0.454435 -0.161309
C32   C     C_3   0.927253 0.427815 0.545806 -0.381287
C33   C     C_3   0.926334 0.424217 0.454209 -0.483173
C34   C     C_R   0.492175 0.500539 0.101781 -0.051947
C35   C     C_3   0.070886 0.652322 0.497505 -0.351886
C36   C     C_3   0.121482 0.501170 0.499274 0.104578
C37   C     C_3   0.878721 0.500865 0.499705 0.138129
C38   C     C_3   0.928376 0.651786 0.498826 -0.399075
C39   C     C_3   0.391389 0.081471 0.471452 -0.239225
C40   C     C_3   0.391437 0.918667 0.471428 -0.221392
C41   C     C_3   0.615715 0.081392 0.476638 -0.232801
C42   C     C_3   0.615766 0.918685 0.476682 -0.239515
C43   C     C_3   0.492069 0.081166 0.548566 -0.230526
C44   C     C_3   0.491957 0.918671 0.548564 -0.233433
C45   C     C_R   0.378206 0.490710 0.127396 -0.022980
C46   C     C_R   0.380636 0.490578 0.177831 0.506462
C47   C     C_R   0.604330 0.510822 0.177777 0.502406
C48   C     C_R   0.482327 0.375870 0.277924 -0.104362
C49   C     C_R   0.484881 0.375398 0.328004 -0.226621
C50   C     C_R   0.507876 0.625294 0.327943 -0.195822
C51   C     C_2   0.126239 0.486953 0.592247 0.396393
C52   C     C_2   0.122516 0.461630 0.405536 0.370308
C53   C     C_R   0.264810 0.480426 0.102315 -0.135907
C54   C     C_R   0.606333 0.510542 0.127364 -0.020421
C55   C     C_R   0.497822 0.500203 0.353319 -0.023075
C56   C     C_R   0.497012 0.499779 0.646648 -0.045728
H1    H     H_    0.517863 0.722809 0.346697 0.148082
H2    H     H_    0.099353 0.308545 0.458932 0.103600
H3    H     H_    0.892976 0.319120 0.546822 0.151803
H4    H     H_    0.888800 0.316834 0.453233 0.165820
H5    H     H_    0.514072 0.721754 0.258331 0.134556
H6    H     H_    0.888101 0.479932 0.578279 0.199598
H7    H     H_    0.889932 0.477853 0.421455 0.166598
H8    H     H_    0.107124 0.714125 0.528323 0.201581
H9    H     H_    0.102662 0.706374 0.464331 0.208004
H10   H     H_    0.895947 0.708720 0.531432 0.195185
H11   H     H_    0.891918 0.707565 0.466542 0.169722
H12   H     H_    0.472659 0.279542 0.258435 0.135524
H13   H     H_    0.393723 0.120329 0.433705 0.147293
H14   H     H_    0.393873 0.880013 0.433672 0.161062
H15   H     H_    0.301721 0.119150 0.487302 0.144910
H16   H     H_    0.301767 0.880921 0.487244 0.147921
H17   H     H_    0.624926 0.120268 0.439046 0.145564
H18   H     H_    0.625214 0.879744 0.439125 0.144052
H19   H     H_    0.572817 0.119189 0.570384 0.148425
H20   H     H_    0.572556 0.880415 0.570434 0.151053
H21   H     H_    0.405471 0.119734 0.566577 0.145452
H22   H     H_    0.405225 0.880215 0.566522 0.153044
H23   H     H_    0.808297 0.531043 0.121195 0.190743
H24   H     H_    0.699890 0.118973 0.496519 0.147394
H25   H     H_    0.699841 0.881264 0.496666 0.147676
H26   H     H_    0.176185 0.470464 0.121249 0.190381
H27   H     H_    0.514477 0.276899 0.653307 0.150977
H28   H     H_    0.510459 0.278002 0.741657 0.136025
H29   H     H_    0.175470 0.527918 0.878611 0.191589
H30   H     H_    0.171943 0.527715 0.964006 0.138658
H31   H     H_    0.172248 0.470697 0.035854 0.138548
H32   H     H_    0.476482 0.277736 0.346812 0.149018
H33   H     H_    0.204024 0.434554 0.609849 0.063554
H34   H     H_    0.811619 0.471538 0.964207 0.138693
H35   H     H_    0.094429 0.403369 0.373882 0.090136
H36   H     H_    0.478093 0.722523 0.653148 0.151326
H37   H     H_    0.807863 0.470793 0.878841 0.191532
H38   H     H_    0.473979 0.720728 0.741514 0.135521
H39   H     H_    0.811650 0.530350 0.035829 0.138762
H40   H     H_    0.103271 0.317728 0.544944 0.098394
N1    N     N_R   0.492596 0.500729 0.201671 -0.359249
N2    N     N_R   0.491639 0.499314 0.798282 -0.360634
N3    N     N_3   0.499750 0.138610 0.498940 -0.033911
N4    N     N_3   0.499750 0.861390 0.498940 -0.038661
O1    O     O_R   0.314910 0.616040 0.499990 -0.614102
O2    O     O_2   0.271264 0.517817 0.796931 -0.541378
O3    O     O_2   0.712919 0.520357 0.202840 -0.553788
O4    O     O_2   0.712037 0.480841 0.797168 -0.544235
O5    O     O_2   0.086602 0.594630 0.609400 -0.562170
O6    O     O_2   0.194709 0.558615 0.400598 -0.586224
O7    O     O_R   0.314910 0.383960 0.499990 -0.654722
O8    O     O_R   0.500140 0.616020 0.428740 -0.615939
O9    O     O_R   0.500140 0.383980 0.428740 -0.634474
O10   O     O_R   0.685320 0.616040 0.499970 -0.639401
O11   O     O_R   0.685320 0.383960 0.499970 -0.635343
O12   O     O_R   0.500090 0.616050 0.571230 -0.629008
O13   O     O_R   0.500090 0.383950 0.571230 -0.636876
O14   O     O_2   0.272303 0.481079 0.202949 -0.547528
Zn1   Zn    Zn3+2 0.500150 0.654960 0.499980 0.928391
Zn2   Zn    Zn3+2 0.500150 0.345040 0.499980 0.906608

loop_
_geom_bond_atom_site_label_1
_geom_bond_atom_site_label_2
_ccdc_geom_bond_type
C10   C27   A    
C4    O9    A    
C8    C13   A    
C22   C29   A    
C41   C42   S    
C35   C36   S    
C14   H28   S    
C31   C52   S    
C30   C51   S    
C11   O4    S    
C41   H24   S    
C28   C56   S    
C16   O10   A    
C7    C8    A    
C45   C46   A    
C28   O12   A    
C4    O8    A    
C12   C23   A    
C26   C27   A    
C40   H14   S    
C11   N2    A    
C31   H2    S    
C43   N3    S    
C31   C36   S    
C35   H9    S    
C18   C19   A    
C13   N2    A    
C44   H20   S    
C30   H40   S    
O9    Zn2   S    
C20   C24   A    
C8    C9    A    
C41   N3    S    
O11   Zn2   S    
C9    C10   A    
C3    C22   A    
C33   H7    S    
C16   C37   S    
O13   Zn2   S    
C45   C53   A    
C21   C22   A    
C43   H19   S    
C49   H32   S    
C2    C6    A    
N4    Zn1   S    
C42   H25   S    
C19   N2    S    
C25   C29   A    
C42   H18   S    
C47   O3    S    
C46   O14   S    
C2    C20   A    
C38   H10   S    
C35   C38   S    
C25   C54   A    
C28   O13   A    
N3    Zn2   S    
C29   H39   S    
C15   H27   S    
C21   C34   A    
C24   C53   A    
C49   C55   A    
C41   H17   S    
C33   C37   S    
C53   H26   S    
C43   C44   S    
C5    C9    A    
C37   C38   S    
C42   N4    S    
C39   N3    S    
C51   O5    D    
C31   C33   S    
C17   C18   A    
C39   H13   S    
C34   C45   A    
C32   C37   S    
C48   H12   S    
C17   C56   A    
C35   H8    S    
C1    O7    A    
C47   C54   A    
C48   C49   A    
C23   N1    S    
C46   N1    A    
C34   C54   A    
C33   H4    S    
C4    C55   S    
O1    Zn1   S    
C27   H37   S    
C2    C5    A    
C43   H21   S    
C38   H11   S    
C1    O1    A    
C39   C40   S    
O8    Zn1   S    
C23   C48   A    
C40   H16   S    
C25   H23   S    
C50   H1    S    
C14   C19   A    
C3    C26   A    
C3    C5    A    
C6    H30   S    
C40   N4    S    
C12   C50   A    
C6    C7    A    
C26   H34   S    
C50   C55   A    
C47   N1    A    
C30   C36   S    
C15   C56   A    
C44   H22   S    
C32   H6    S    
C51   H33   S    
C30   C32   S    
C12   H5    S    
C44   N4    S    
C7    H29   S    
C18   H38   S    
C24   H31   S    
O7    Zn2   S    
C10   C11   A    
C52   O6    D    
C17   H36   S    
C20   C21   A    
C1    C36   S    
C39   H15   S    
C14   C15   A    
C52   H35   S    
C32   H3    S    
C13   O2    S    
O10   Zn1   S    
O12   Zn1   S    
C16   O11   A    
