data_mof_unit_10760.cif
_audit_creation_date              2012-10-26T20:51:57-0400
_audit_creation_method            fapswitch 2.2
_symmetry_space_group_name_H-M    P1
_symmetry_Int_Tables_number       1
_space_group_crystal_system       triclinic
_cell_length_a                    8.723933
_cell_length_b                    15.994439
_cell_length_c                    14.782179
_cell_angle_alpha                 89.888645
_cell_angle_beta                  97.791933
_cell_angle_gamma                 89.971159
_cell_volume                      2043.57389435

loop_
_atom_site_label
_atom_site_type_symbol
_atom_type_description
_atom_site_fract_x
_atom_site_fract_y
_atom_site_fract_z
_atom_type_partial_charge
C1    C     C_R   0.500314 0.340929 0.500141 0.542657
C2    C     C_R   0.796775 0.499821 0.523142 0.545758
C3    C     C_2   0.037826 0.499904 0.463789 -0.158609
C4    C     C_2   0.962169 0.499569 0.536207 -0.158878
C5    C     C_R   0.470792 0.954923 0.578275 0.276144
C6    C     C_R   0.582767 0.045124 0.436896 0.277812
C7    C     C_R   0.518943 0.912686 0.503717 0.003500
C8    C     C_R   0.518496 0.087386 0.506091 0.001951
C9    C     C_R   0.574395 0.957091 0.432324 -0.037136
C10   C     C_R   0.461775 0.043009 0.577080 -0.040437
C11   C     C_1   0.510595 0.822968 0.501311 -0.016205
C12   C     C_R   0.500208 0.659081 0.499950 0.548010
C13   C     C_1   0.510539 0.177084 0.503146 -0.016662
C14   C     C_1   0.504869 0.251987 0.501169 -0.031094
C15   C     C_1   0.504824 0.748046 0.500223 -0.028173
C16   C     C_R   0.597893 0.555253 0.959865 -0.037819
C17   C     C_R   0.401027 0.445177 0.040006 -0.040135
C18   C     C_3   0.391362 0.089728 0.650303 -0.388417
C19   C     C_3   0.621683 0.910475 0.351529 -0.383837
C20   C     C_3   0.535387 0.908923 0.725917 0.000291
C21   C     C_3   0.639746 0.831822 0.725939 -0.260421
C22   C     C_3   0.752442 0.825747 0.814161 -0.489281
C23   C     C_R   0.498916 0.501330 0.902806 -0.033613
C24   C     C_3   0.805291 0.089392 0.384215 0.002018
C25   C     C_3   0.869706 0.163891 0.442441 -0.266337
C26   C     C_3   0.045492 0.169225 0.448018 -0.478812
C27   C     C_3   0.843947 0.562642 0.133322 0.002438
C28   C     C_3   0.955684 0.619743 0.192998 -0.264617
C29   C     C_3   0.117942 0.582279 0.209427 -0.464475
C30   C     C_3   0.155448 0.438106 0.866062 0.002898
C31   C     C_3   0.043525 0.381076 0.806407 -0.265442
C32   C     C_3   0.881389 0.418688 0.790002 -0.465295
C33   C     C_3   0.698249 0.616717 0.916974 -0.392893
C34   C     C_R   0.500380 0.498927 0.097107 -0.034080
C35   C     C_3   0.299694 0.384125 0.082784 -0.384023
C36   C     C_R   0.397983 0.448097 0.943237 0.259881
C37   C     C_R   0.601126 0.552264 0.056636 0.259903
C38   C     C_1   0.499215 0.500516 0.802487 0.156855
C39   C     C_1   0.500473 0.499584 0.197477 0.158393
C40   C     C_R   0.203223 0.499946 0.476858 0.548437
Cu1   Cu    Cu3+1 0.500040 0.500000 0.589220 0.963658
Cu2   Cu    Cu3+1 0.499960 0.500000 0.410780 0.969388
H1    H     H_    0.978096 0.500248 0.394254 0.124216
H2    H     H_    0.607455 0.966831 0.732783 0.118580
H3    H     H_    0.567341 0.774432 0.718256 0.187552
H4    H     H_    0.707479 0.835646 0.667652 0.161684
H5    H     H_    0.827526 0.882035 0.822541 0.151658
H6    H     H_    0.826933 0.769695 0.811753 0.148856
H7    H     H_    0.688277 0.820012 0.873852 0.148110
H8    H     H_    0.845700 0.094174 0.316281 0.152680
H9    H     H_    0.854352 0.029891 0.415458 0.121512
H10   H     H_    0.817588 0.222807 0.412335 0.183928
H11   H     H_    0.839302 0.157111 0.512664 0.154866
H12   H     H_    0.021902 0.499200 0.605741 0.124757
H13   H     H_    0.100020 0.110641 0.477311 0.155926
H14   H     H_    0.089100 0.222361 0.492470 0.148154
H15   H     H_    0.079245 0.179509 0.379054 0.156983
H16   H     H_    0.894678 0.547675 0.069957 0.123816
H17   H     H_    0.830249 0.503594 0.171624 0.131120
H18   H     H_    0.961188 0.681528 0.159009 0.173539
H19   H     H_    0.912797 0.629378 0.259692 0.175023
H20   H     H_    0.114614 0.518959 0.240001 0.163090
H21   H     H_    0.194485 0.622811 0.256858 0.176015
H22   H     H_    0.166882 0.577777 0.144029 0.141089
H23   H     H_    0.296008 0.130505 0.618389 0.129127
H24   H     H_    0.169831 0.496968 0.827577 0.130930
H25   H     H_    0.104474 0.453471 0.929240 0.123247
H26   H     H_    0.086363 0.371362 0.739709 0.172659
H27   H     H_    0.037815 0.319310 0.840405 0.173564
H28   H     H_    0.832380 0.423091 0.855385 0.141780
H29   H     H_    0.804785 0.378301 0.742434 0.174511
H30   H     H_    0.884951 0.482081 0.759634 0.163201
H31   H     H_    0.762329 0.659614 0.967459 0.172572
H32   H     H_    0.783643 0.582409 0.881844 0.108372
H33   H     H_    0.624699 0.655881 0.866297 0.131331
H34   H     H_    0.341879 0.047482 0.698346 0.166896
H35   H     H_    0.234386 0.341842 0.032130 0.174026
H36   H     H_    0.372466 0.344259 0.133132 0.139741
H37   H     H_    0.215204 0.418848 0.118214 0.107253
H38   H     H_    0.481065 0.129170 0.690046 0.125579
H39   H     H_    0.523957 0.871238 0.319868 0.139840
H40   H     H_    0.653544 0.952797 0.297608 0.166952
H41   H     H_    0.722330 0.869584 0.374691 0.121363
H42   H     H_    0.474925 0.906241 0.787345 0.150931
N1    N     N_1   0.500050 0.499980 0.276720 -0.197540
N2    N     N_1   0.499950 0.500020 0.723280 -0.198869
O1    O     O_R   0.500070 0.380310 0.575330 -0.491914
O2    O     O_3   0.641215 0.091086 0.369613 -0.565630
O3    O     O_3   0.700181 0.603879 0.112225 -0.566752
O4    O     O_3   0.298824 0.396563 0.887607 -0.566145
O5    O     O_R   0.499930 0.619690 0.424670 -0.489092
O6    O     O_R   0.500000 0.380310 0.424640 -0.486646
O7    O     O_R   0.500000 0.619690 0.575360 -0.492830
O8    O     O_R   0.274870 0.500000 0.557960 -0.490438
O9    O     O_R   0.725130 0.500000 0.442040 -0.492270
O10   O     O_R   0.274790 0.500000 0.407270 -0.506842
O11   O     O_R   0.725210 0.500000 0.592730 -0.507946
O12   O     O_3   0.420370 0.909011 0.648277 -0.567415

loop_
_geom_bond_atom_site_label_1
_geom_bond_atom_site_label_2
_ccdc_geom_bond_type
C1    O1    A    
C22   H6    S    
C29   H21   S    
C8    C13   S    
C34   C37   A    
Cu1   Cu2   S    
C12   O5    A    
C30   O4    S    
C26   H13   S    
C6    C9    A    
C32   H30   S    
C18   H23   S    
C7    C11   S    
Cu1   N2    S    
C3    H1    S    
C38   N2    T    
Cu2   O10   S    
C21   C22   S    
C28   C29   S    
C25   H11   S    
C30   C31   S    
C6    O2    S    
Cu2   O5    S    
C11   C15   T    
C33   H33   S    
Cu1   O7    S    
Cu1   O8    S    
C2    O11   A    
C17   C36   A    
C19   H40   S    
C30   H25   S    
C16   C37   A    
C28   H19   S    
C24   H9    S    
C22   H5    S    
C29   H22   S    
C13   C14   T    
C40   O10   A    
C19   H41   S    
C20   H2    S    
C9    C19   S    
C32   H29   S    
C21   H3    S    
C28   H18   S    
C24   H8    S    
C31   H26   S    
Cu1   O1    S    
Cu2   O9    S    
C24   C25   S    
C5    C7    A    
C32   H28   S    
C25   C26   S    
C35   H35   S    
C34   C39   S    
C2    C4    S    
C16   C33   S    
C31   C32   S    
C12   C15   S    
Cu2   N1    S    
C5    O12   S    
C24   O2    S    
C30   H24   S    
C22   H7    S    
C33   H31   S    
C3    C40   S    
C16   C23   A    
C20   H42   S    
Cu1   O11   S    
C12   O7    A    
C17   C34   A    
C39   N1    T    
C3    C4    D    
C21   H4    S    
C36   O4    S    
C7    C9    A    
C29   H20   S    
C2    O9    A    
C18   H34   S    
C4    H12   S    
C8    C10   A    
C40   O8    A    
C27   H16   S    
C26   H14   S    
C6    C8    A    
C1    O6    A    
C23   C38   S    
C35   H36   S    
C37   O3    S    
C25   H10   S    
C5    C10   A    
C27   H17   S    
C10   C18   S    
C35   H37   S    
C27   O3    S    
Cu2   O6    S    
C26   H15   S    
C33   H32   S    
C31   H27   S    
C20   O12   S    
C20   C21   S    
C18   H38   S    
C23   C36   A    
C27   C28   S    
C1    C14   S    
C17   C35   S    
C19   H39   S    
