data_mof_unit_28061.cif
_audit_creation_date              2012-12-10T18:06:49-0500
_audit_creation_method            fapswitch 2.2
_symmetry_space_group_name_H-M    P1
_symmetry_Int_Tables_number       1
_space_group_crystal_system       triclinic
_cell_length_a                    12.592716
_cell_length_b                    13.124271
_cell_length_c                    15.482108
_cell_angle_alpha                 83.074451
_cell_angle_beta                  99.135926
_cell_angle_gamma                 96.852957
_cell_volume                      2494.70614668

loop_
_atom_site_label
_atom_site_type_symbol
_atom_type_description
_atom_site_fract_x
_atom_site_fract_y
_atom_site_fract_z
_atom_type_partial_charge
C1    C     C_R   0.441849 0.308646 0.506533 0.859335
C2    C     C_R   0.627918 0.385760 0.936589 0.177277
C3    C     C_R   0.535641 0.437086 0.901138 0.093788
C4    C     C_R   0.434312 0.511531 0.336031 0.892027
C5    C     C_R   0.702941 0.371179 0.882141 -0.207437
C6    C     C_R   0.686236 0.406946 0.792802 -0.190394
C7    C     C_R   0.526303 0.480237 0.813896 -0.258445
C8    C     C_R   0.644341 0.944303 0.369198 -0.182944
C9    C     C_R   0.582444 0.801596 0.468842 -0.052908
C10   C     C_R   0.328499 0.158102 0.565241 -0.191730
C11   C     C_R   0.306005 0.051624 0.582158 0.262296
C12   C     C_R   0.416091 0.460044 0.100929 0.101975
C13   C     C_R   0.365187 0.986557 0.548118 -0.207109
C14   C     C_R   0.443688 0.027276 0.493392 0.041459
C15   C     C_R   0.452161 0.133399 0.465210 0.089354
C16   C     C_R   0.556021 0.691722 0.488879 0.861585
C17   C     C_R   0.514014 0.966077 0.465506 0.098426
C18   C     C_R   0.577443 0.006790 0.398794 0.174696
C19   C     C_R   0.571490 0.108462 0.361783 -0.229099
C20   C     C_R   0.509455 0.171213 0.394605 -0.195756
C21   C     C_R   0.524570 0.865805 0.503839 -0.248845
C22   C     C_R   0.645241 0.840958 0.403044 -0.192574
C23   C     C_R   0.319442 0.503282 0.062641 0.114366
C24   C     C_R   0.404005 0.199124 0.509306 -0.163819
C25   C     C_R   0.139240 0.646139 0.618450 -0.317801
C26   C     C_R   0.757098 0.377323 0.398554 -0.084610
C27   C     C_R   0.852297 0.346075 0.381115 0.443990
C28   C     C_R   0.564380 0.485301 0.664066 0.856173
C29   C     C_R   0.950471 0.388251 0.424451 -0.325475
C30   C     C_R   0.952893 0.464984 0.481833 -0.046246
C31   C     C_R   0.853583 0.492939 0.497545 0.208976
C32   C     C_R   0.049295 0.515669 0.523302 0.017657
C33   C     C_R   0.044658 0.592181 0.580083 0.191879
C34   C     C_R   0.482048 0.425080 0.046585 0.092385
C35   C     C_R   0.945691 0.614931 0.597071 -0.288764
C36   C     C_R   0.851373 0.565651 0.556294 -0.185139
C37   C     C_R   0.150951 0.496172 0.508453 -0.054739
C38   C     C_R   0.237152 0.624922 0.599040 0.008529
C39   C     C_R   0.390413 0.508296 0.242709 -0.161092
C40   C     C_R   0.596644 0.460884 0.758502 -0.060736
C41   C     C_R   0.258039 0.545360 0.114503 -0.319550
C42   C     C_R   0.292003 0.547605 0.204918 0.481530
C43   C     C_R   0.449033 0.462483 0.191191 -0.352005
C44   C     C_3   0.222995 0.006548 0.639615 -0.928864
C45   C     C_R   0.457437 0.448164 0.954499 0.066325
C46   C     C_3   0.878455 0.309986 0.246703 0.081188
C47   C     C_3   0.876649 0.223294 0.189432 -0.832298
C48   C     C_3   0.135233 0.550058 0.261809 0.104388
C49   C     C_3   0.069573 0.620956 0.297752 -0.793812
C50   C     C_R   0.355626 0.482061 0.918553 -0.232394
C51   C     C_R   0.287373 0.508367 0.972192 -0.208901
C52   C     C_R   0.573409 0.371286 0.080546 -0.233873
C53   C     C_R   0.643939 0.350432 0.025729 -0.250642
H1    H     H_    0.211553 0.537478 0.942324 0.145535
H2    H     H_    0.311759 0.666182 0.627112 0.126839
H3    H     H_    0.463844 0.529717 0.787471 0.154591
H4    H     H_    0.941049 0.672070 0.641062 0.155169
H5    H     H_    0.137287 0.704711 0.661755 0.145858
H6    H     H_    0.163450 0.439488 0.467427 0.125320
H7    H     H_    0.680218 0.343766 0.367365 0.143978
H8    H     H_    0.022318 0.358925 0.412093 0.151082
H9    H     H_    0.777824 0.586619 0.571543 0.213203
H10   H     H_    0.741684 0.390763 0.750617 0.165278
H11   H     H_    0.712933 0.309200 0.053601 0.150717
H12   H     H_    0.773102 0.330628 0.908283 0.136681
H13   H     H_    0.186501 0.581650 0.083898 0.149132
H14   H     H_    0.524012 0.433963 0.222108 0.173802
H15   H     H_    0.326371 0.488142 0.848884 0.150893
H16   H     H_    0.591126 0.342252 0.148923 0.143006
H17   H     H_    0.183284 0.067604 0.662250 0.243344
H18   H     H_    0.159822 0.955653 0.602287 0.245932
H19   H     H_    0.262208 0.960313 0.698278 0.239095
H20   H     H_    0.961806 0.350490 0.254748 0.128289
H21   H     H_    0.820600 0.364885 0.212369 0.133230
H22   H     H_    0.794254 0.181615 0.179194 0.248489
H23   H     H_    0.690171 0.791055 0.374968 0.161216
H24   H     H_    0.899821 0.255566 0.124590 0.199403
H25   H     H_    0.934824 0.168107 0.221663 0.264720
H26   H     H_    0.143657 0.479068 0.308336 0.130034
H27   H     H_    0.088839 0.528173 0.198197 0.111675
H28   H     H_    0.057177 0.690504 0.250295 0.251419
H29   H     H_    0.989388 0.580153 0.307908 0.198854
H30   H     H_    0.112698 0.645651 0.361250 0.268906
H31   H     H_    0.616290 0.140060 0.308678 0.164542
H32   H     H_    0.692254 0.974185 0.317692 0.148877
H33   H     H_    0.484858 0.834005 0.559435 0.138128
H34   H     H_    0.289343 0.208868 0.597571 0.163433
H35   H     H_    0.346042 0.904585 0.563301 0.141326
H36   H     H_    0.505356 0.249241 0.363431 0.149082
N1    N     N_R   0.239390 0.551900 0.544730 -0.100823
N2    N     N_R   0.759950 0.448600 0.455730 -0.153719
O1    O     O_R   0.374950 0.371210 0.521360 -0.621788
O2    O     O_3   0.238489 0.602056 0.252878 -0.585390
O3    O     O_R   0.542050 0.338030 0.492790 -0.603138
O4    O     O_R   0.368720 0.526070 0.390200 -0.567907
O5    O     O_R   0.535820 0.492890 0.361630 -0.631773
O6    O     O_R   0.457950 0.661970 0.507210 -0.605177
O7    O     O_R   0.625050 0.628790 0.478640 -0.635937
O8    O     O_R   0.464180 0.507110 0.638370 -0.616788
O9    O     O_R   0.631280 0.473930 0.609800 -0.629296
O10   O     O_3   0.848209 0.267517 0.328479 -0.608023
Zn1   Zn    Zn3+2 0.388420 0.522150 0.519080 0.952657
Zn2   Zn    Zn3+2 0.611580 0.477850 0.480920 0.924422

loop_
_geom_bond_atom_site_label_1
_geom_bond_atom_site_label_2
_ccdc_geom_bond_type
C49   H29   S    
C27   C29   A    
C42   O2    S    
C41   C42   A    
C19   C20   A    
C22   H23   S    
C16   O7    A    
C12   C23   A    
C26   C27   A    
C37   N1    A    
C48   H26   S    
C9    C16   S    
C18   C19   A    
C12   C43   A    
C3    C7    A    
C30   C31   A    
C53   H11   S    
C16   O6    A    
C28   C40   S    
O7    Zn2   S    
C44   H18   S    
C8    H32   S    
C49   H28   S    
N1    Zn1   S    
C52   H16   S    
C46   C47   S    
C38   H2    S    
C35   C36   A    
C1    O3    A    
C8    C22   A    
C7    C40   A    
C44   H17   S    
O6    Zn1   S    
O4    Zn1   S    
O1    Zn1   S    
C28   O9    A    
C4    O5    A    
C13   C14   A    
C14   C17   A    
C7    H3    S    
C36   H9    S    
C50   C51   A    
C39   C42   A    
C15   C20   A    
C46   O10   S    
C29   H8    S    
C10   H34   S    
C48   O2    S    
C5    H12   S    
C39   C43   A    
C10   C24   A    
C26   N2    A    
C3    C45   A    
O9    Zn2   S    
C8    C18   A    
C6    H10   S    
C29   C30   A    
C25   C38   A    
C4    O4    A    
C23   C51   A    
C4    C39   S    
C17   C18   A    
C11   C44   S    
C34   C45   A    
C32   C37   A    
C37   H6    S    
C28   O8    A    
C48   C49   S    
O3    Zn2   S    
C1    O1    A    
C31   N2    A    
C6    C40   A    
C2    C5    A    
C25   H5    S    
C47   H24   S    
C12   C34   A    
C19   H31   S    
C46   H21   S    
C52   C53   A    
C21   H33   S    
C15   C24   A    
C31   C36   A    
N2    Zn2   S    
C2    C53   A    
C41   H13   S    
C20   H36   S    
C38   N1    A    
C34   C52   A    
C23   C41   A    
C35   H4    S    
C51   H1    S    
C32   C33   A    
C49   H30   S    
C2    C3    A    
C47   H22   S    
C48   H27   S    
C30   C32   A    
C11   C13   A    
C9    C21   A    
C5    C6    A    
C26   H7    S    
C45   C50   A    
C13   H35   S    
C33   C35   A    
C27   O10   S    
C44   H19   S    
C9    C22   A    
C17   C21   A    
C10   C11   A    
O8    Zn1   S    
C1    C24   S    
C43   H14   S    
O5    Zn2   S    
C14   C15   A    
C47   H25   S    
C50   H15   S    
C46   H20   S    
C25   C33   A    
