data_mof_unit_14117.cif
_audit_creation_date              2012-12-10T17:34:54-0500
_audit_creation_method            fapswitch 2.2
_symmetry_space_group_name_H-M    P1
_symmetry_Int_Tables_number       1
_space_group_crystal_system       triclinic
_cell_length_a                    12.038613
_cell_length_b                    12.78268
_cell_length_c                    15.7283
_cell_angle_alpha                 90.816905
_cell_angle_beta                  86.972482
_cell_angle_gamma                 94.69792
_cell_volume                      2408.74278095

loop_
_atom_site_label
_atom_site_type_symbol
_atom_type_description
_atom_site_fract_x
_atom_site_fract_y
_atom_site_fract_z
_atom_type_partial_charge
C1    C     C_R   0.523269 0.700321 0.497148 0.883686
C2    C     C_R   0.539321 0.812084 0.490881 -0.100773
C3    C     C_R   0.607341 0.969189 0.414454 0.101329
C4    C     C_R   0.500699 0.499852 0.661495 0.896761
C5    C     C_R   0.609829 0.861297 0.426279 0.030136
C6    C     C_R   0.470884 0.868907 0.544594 -0.300457
C7    C     C_R   0.467385 0.975088 0.533197 0.092047
C8    C     C_R   0.534644 0.025540 0.467220 0.135198
C9    C     C_R   0.528478 0.131660 0.455991 -0.273304
C10   C     C_R   0.393738 0.139193 0.578195 0.138468
C11   C     C_R   0.396607 0.030758 0.587038 -0.184442
C12   C     C_3   0.413392 0.565354 0.051761 -0.406574
C13   C     C_R   0.947527 0.389553 0.431444 -0.313585
C14   C     C_R   0.833205 0.401845 0.436709 0.016887
C15   C     C_R   0.861406 0.550315 0.527674 -0.048986
C16   C     C_R   0.476789 0.299762 0.503635 0.866452
C17   C     C_R   0.977684 0.541458 0.523968 0.056460
C18   C     C_R   0.021184 0.459526 0.475519 0.112182
C19   C     C_R   0.137166 0.448821 0.472960 0.169676
C20   C     C_R   0.166051 0.599144 0.562316 0.004676
C21   C     C_R   0.050991 0.611387 0.567748 -0.337534
C22   C     C_R   0.499244 0.499627 0.338435 0.897464
C23   C     C_3   0.499575 0.492746 0.082666 0.296467
C24   C     C_3   0.415596 0.565323 0.953675 -0.437379
C25   C     C_3   0.619536 0.537694 0.947800 -0.026121
C26   C     C_3   0.617990 0.530211 0.046463 -0.464619
C27   C     C_1   0.497545 0.497363 0.249591 -0.194849
C28   C     C_3   0.502918 0.491931 0.916879 0.279188
C29   C     C_3   0.325535 0.204356 0.640554 -0.359432
C30   C     C_3   0.268190 0.145854 0.717152 -0.936028
C31   C     C_3   0.723163 0.489174 0.903620 -0.401471
C32   C     C_3   0.779770 0.558590 0.832719 -0.887786
C33   C     C_3   0.372696 0.312234 0.912319 -0.380168
C34   C     C_3   0.469877 0.379529 0.050661 -0.388340
C35   C     C_3   0.256991 0.319441 0.956889 -0.872463
C36   C     C_3   0.474019 0.377118 0.951629 0.039008
C37   C     C_1   0.497692 0.495021 0.174237 -0.097543
C38   C     C_1   0.503121 0.494783 0.825330 -0.104380
C39   C     C_1   0.502089 0.497336 0.750144 -0.205906
C40   C     C_R   0.461062 0.188008 0.511197 -0.127740
H1    H     H_    0.432776 0.646887 0.075629 0.172650
H2    H     H_    0.977325 0.325511 0.393191 0.169060
H3    H     H_    0.019762 0.675186 0.605593 0.149363
H4    H     H_    0.776787 0.347782 0.403024 0.136837
H5    H     H_    0.825787 0.612059 0.565303 0.125194
H6    H     H_    0.628163 0.623271 0.933383 0.172283
H7    H     H_    0.644714 0.608583 0.073760 0.166869
H8    H     H_    0.677618 0.474744 0.067170 0.170386
H9    H     H_    0.546192 0.332030 0.931751 0.096882
H10   H     H_    0.387387 0.350686 0.079606 0.190176
H11   H     H_    0.204725 0.084348 0.696012 0.261586
H12   H     H_    0.331621 0.542380 0.930476 0.192154
H13   H     H_    0.330668 0.110363 0.754864 0.259324
H14   H     H_    0.224780 0.202058 0.758939 0.258409
H15   H     H_    0.381562 0.269494 0.666040 0.200292
H16   H     H_    0.259960 0.239181 0.605719 0.219215
H17   H     H_    0.657249 0.986340 0.290062 0.197881
H18   H     H_    0.760133 0.009781 0.359018 0.199533
H19   H     H_    0.738321 0.769401 0.405133 0.211596
H20   H     H_    0.630266 0.743397 0.340301 0.187599
H21   H     H_    0.203897 0.308638 0.470718 0.201783
H22   H     H_    0.244802 0.387163 0.385292 0.230415
H23   H     H_    0.328083 0.538483 0.077485 0.176045
H24   H     H_    0.721000 0.572094 0.782855 0.273659
H25   H     H_    0.811743 0.635501 0.859379 0.249760
H26   H     H_    0.851349 0.519752 0.802612 0.255626
H27   H     H_    0.787797 0.478873 0.949997 0.211888
H28   H     H_    0.700609 0.410533 0.876054 0.209319
H29   H     H_    0.245567 0.265264 0.011783 0.244584
H30   H     H_    0.242843 0.399540 0.979684 0.258932
H31   H     H_    0.191697 0.294408 0.911848 0.243753
H32   H     H_    0.367365 0.332250 0.844379 0.214982
H33   H     H_    0.389440 0.227907 0.911913 0.194508
H34   H     H_    0.530453 0.326292 0.073592 0.137868
H35   H     H_    0.579206 0.172528 0.405786 0.174121
H36   H     H_    0.346329 0.988867 0.636613 0.150302
H37   H     H_    0.417725 0.829214 0.594180 0.148065
H38   H     H_    0.437166 0.646968 0.930952 0.159816
H39   H     H_    0.222235 0.653805 0.595642 0.137953
N1    N     N_R   0.207800 0.519340 0.515510 -0.112898
N2    N     N_R   0.792190 0.480660 0.484490 -0.099846
N3    N     N_3   0.677008 0.021308 0.348435 -0.484531
N4    N     N_3   0.679722 0.803028 0.369655 -0.473530
N5    N     N_3   0.178793 0.361508 0.427179 -0.487159
O1    O     O_R   0.421690 0.658830 0.504140 -0.615652
O2    O     O_R   0.609320 0.646410 0.494190 -0.632768
O3    O     O_R   0.406150 0.506210 0.627840 -0.618951
O4    O     O_R   0.593770 0.493790 0.617880 -0.608789
O5    O     O_R   0.390680 0.353590 0.505810 -0.648860
O6    O     O_R   0.578310 0.341170 0.495860 -0.612520
O7    O     O_R   0.406230 0.506210 0.382120 -0.624384
O8    O     O_R   0.593850 0.493790 0.372160 -0.616693
Zn1   Zn    Zn3+2 0.374720 0.508290 0.506640 0.922438
Zn2   Zn    Zn3+2 0.625280 0.491710 0.493360 0.937272

loop_
_geom_bond_atom_site_label_1
_geom_bond_atom_site_label_2
_ccdc_geom_bond_type
C25   C31   S    
C30   H11   S    
C16   O6    A    
C7    C8    A    
C15   N2    A    
C4    O3    A    
C25   C28   S    
C31   H27   S    
C30   H14   S    
C12   C23   S    
C29   C30   S    
C13   C18   A    
C32   H26   S    
H19   N4    S    
C18   C19   A    
C24   H12   S    
H18   N3    S    
C38   C39   T    
C5    N4    S    
H20   N4    S    
C33   C36   S    
C10   C40   A    
C1    C2    S    
C23   C26   S    
O2    Zn2   S    
C33   H32   S    
C21   H3    S    
O1    Zn1   S    
C35   H30   S    
C8    C9    A    
C22   O7    A    
C26   H8    S    
C35   H31   S    
C16   O5    A    
C13   C14   A    
C2    C6    A    
C13   H2    S    
O6    Zn2   S    
C1    O1    A    
C31   H28   S    
C30   H13   S    
O4    Zn2   S    
C34   H10   S    
C20   N1    A    
C32   H24   S    
C3    C8    A    
C12   H23   S    
C6    H37   S    
C29   H15   S    
C25   C26   S    
C23   C37   S    
C9    C40   A    
C17   C21   A    
C7    C11   A    
C12   H1    S    
O7    Zn1   S    
C31   C32   S    
C4    C39   S    
C28   C38   S    
C23   C34   S    
C3    N3    S    
O8    Zn2   S    
C17   C18   A    
C35   H29   S    
C26   H7    S    
C16   C40   S    
C24   H38   S    
C34   H34   S    
C22   C27   S    
C2    C5    A    
C15   H5    S    
C19   N5    S    
C14   H4    S    
C33   H33   S    
C1    O2    A    
C15   C17   A    
H22   N5    S    
C20   H39   S    
C24   C28   S    
C3    C5    A    
H21   N5    S    
C6    C7    A    
C4    O4    A    
C29   H16   S    
C12   C24   S    
C11   H36   S    
N2    Zn2   S    
C10   C29   S    
C27   C37   T    
O3    Zn1   S    
C33   C35   S    
C34   C36   S    
O5    Zn1   S    
C19   N1    A    
C10   C11   A    
C20   C21   A    
C28   C36   S    
C22   O8    A    
H17   N3    S    
C9    H35   S    
C14   N2    A    
N1    Zn1   S    
C25   H6    S    
C36   H9    S    
C32   H25   S    
