data_mof_unit_46975.cif
_audit_creation_date              2012-12-10T20:40:59-0500
_audit_creation_method            fapswitch 2.2
_symmetry_space_group_name_H-M    P1
_symmetry_Int_Tables_number       1
_space_group_crystal_system       triclinic
_cell_length_a                    27.574851
_cell_length_b                    10.682968
_cell_length_c                    9.85791
_cell_angle_alpha                 89.070379
_cell_angle_beta                  90.686052
_cell_angle_gamma                 89.911988
_cell_volume                      2903.36074175

loop_
_atom_site_label
_atom_site_type_symbol
_atom_type_description
_atom_site_fract_x
_atom_site_fract_y
_atom_site_fract_z
_atom_type_partial_charge
C1    C     C_R   0.502111 0.260236 0.501113 0.885719
C2    C     C_R   0.273763 0.430627 0.451910 -0.104453
C3    C     C_R   0.254173 0.543530 0.496241 0.264736
C4    C     C_R   0.102736 0.578752 0.498276 -0.095159
C5    C     C_R   0.128891 0.557299 0.620207 -0.004699
C6    C     C_R   0.104301 0.541134 0.742010 -0.147420
C7    C     C_R   0.127998 0.596621 0.375353 -0.068082
C8    C     C_R   0.354061 0.510240 0.498161 -0.104966
C9    C     C_R   0.646105 0.507198 0.502944 -0.161979
C10   C     C_R   0.975199 0.566646 0.624605 0.044786
C11   C     C_R   0.974220 0.577285 0.374243 0.063373
C12   C     C_R   0.406263 0.499191 0.499395 0.859779
C13   C     C_R   0.949397 0.566934 0.499157 0.070342
C14   C     C_R   0.948531 0.566222 0.746348 -0.217546
C15   C     C_R   0.898358 0.557588 0.744693 -0.134952
C16   C     C_R   0.872951 0.549848 0.621826 -0.025617
C17   C     C_R   0.898251 0.555495 0.498618 -0.054503
C18   C     C_R   0.872334 0.548849 0.374909 -0.026304
C19   C     C_R   0.821867 0.535994 0.376838 0.515879
C20   C     C_R   0.822477 0.537514 0.618995 0.516163
C21   C     C_R   0.724102 0.408516 0.471640 -0.109812
C22   C     C_R   0.673634 0.399360 0.474042 0.152749
C23   C     C_R   0.501326 0.740323 0.498641 0.892569
C24   C     C_R   0.669090 0.622925 0.528038 0.162819
C25   C     C_R   0.719494 0.628893 0.525480 -0.112819
C26   C     C_R   0.746730 0.522618 0.497391 0.212895
C27   C     C_R   0.026568 0.565036 0.624275 0.061398
C28   C     C_R   0.051347 0.579647 0.499391 0.069638
C29   C     C_R   0.025222 0.592507 0.375403 0.016227
C30   C     C_R   0.054149 0.545360 0.744491 -0.225113
C31   C     C_R   0.101541 0.624308 0.255015 0.245215
C32   C     C_R   0.947192 0.568199 0.251864 -0.216580
C33   C     C_R   0.897196 0.554455 0.252490 -0.138407
C34   C     C_R   0.593701 0.500828 0.500818 0.858994
C35   C     C_R   0.051010 0.620706 0.256155 -0.289075
C36   C     C_R   0.507620 0.061444 0.623972 0.112361
C37   C     C_R   0.511097 0.129659 0.503502 -0.173696
C38   C     C_R   0.523773 0.069761 0.383836 -0.292803
C39   C     C_R   0.521609 0.940182 0.378327 0.188918
C40   C     C_R   0.508673 0.872368 0.497181 -0.153047
C41   C     C_R   0.505992 0.933862 0.620368 0.045055
C42   C     C_3   0.468629 0.924105 0.729074 -0.469019
C43   C     C_3   0.470540 0.066164 0.734087 0.044568
C44   C     C_R   0.470109 0.576914 0.067961 0.179588
C45   C     C_R   0.179358 0.548944 0.617295 0.505439
C46   C     C_R   0.532518 0.428573 0.074388 -0.116799
C47   C     C_R   0.532498 0.428566 0.930257 -0.130643
C48   C     C_R   0.471332 0.580300 0.925929 0.140604
C49   C     C_3   0.417849 0.596184 0.911164 -0.481135
C50   C     C_3   0.415512 0.586930 0.065301 -0.009571
C51   C     C_R   0.178902 0.583932 0.377559 0.512222
C52   C     C_R   0.284265 0.638829 0.543055 -0.098021
C53   C     C_R   0.334119 0.622104 0.544275 -0.256155
C54   C     C_R   0.323935 0.412179 0.453350 0.162591
H1    H     H_    0.878122 0.547572 0.156147 0.189409
H2    H     H_    0.531026 0.122746 0.291564 0.173873
H3    H     H_    0.482365 0.874364 0.821514 0.209143
H4    H     H_    0.557912 0.369929 0.130627 0.140695
H5    H     H_    0.399847 0.518123 0.857305 0.243054
H6    H     H_    0.123805 0.522668 0.836209 0.187895
N1    N     N_R   0.202931 0.560155 0.497079 -0.356913
N2    N     N_R   0.798255 0.530798 0.497709 -0.346534
N3    N     N_R   0.499670 0.499140 0.142800 -0.101754
N4    N     N_R   0.499670 0.499180 0.857150 -0.104506
O1    O     O_R   0.500010 0.316790 0.614690 -0.624147
O2    O     O_2   0.797689 0.531839 0.736221 -0.544545
O3    O     O_2   0.204399 0.592801 0.261862 -0.521072
O4    O     O_2   0.796458 0.529830 0.259222 -0.546642
O5    O     O_R   0.500000 0.316760 0.385350 -0.633625
O6    O     O_R   0.428760 0.500040 0.614660 -0.614363
O7    O     O_R   0.428750 0.500000 0.385310 -0.630556
O8    O     O_R   0.500000 0.683240 0.614650 -0.619834
O9    O     O_R   0.499990 0.683210 0.385310 -0.585252
O10   O     O_R   0.571250 0.500000 0.614690 -0.625578
O11   O     O_R   0.571240 0.499960 0.385340 -0.602049
O12   O     O_2   0.204811 0.527421 0.733252 -0.546894
Zn1   Zn    Zn3+2 0.500000 0.500020 0.653130 0.935947
Zn2   Zn    Zn3+2 0.500000 0.499980 0.346870 0.946557
N5    N     N_2   0.343222 0.295289 0.411196 -0.312468
H7    H     H_    0.378383 0.297729 0.377295 0.232253
C55   C     C_3   0.335088 0.191929 0.504698 -0.793060
H8    H     H_    0.350083 0.104600 0.462048 0.235532
H9    H     H_    0.295672 0.178029 0.521192 0.254846
H10   H     H_    0.353546 0.209828 0.603352 0.234610
H11   H     H_    0.268911 0.725671 0.578202 0.142302
N6    N     N_2   0.125047 0.656558 0.131521 -0.246474
H12   H     H_    0.107323 0.624222 0.046366 0.208024
C56   C     C_3   0.136949 0.787965 0.118229 -0.672641
H13   H     H_    0.157634 0.804029 0.023605 0.243596
H14   H     H_    0.159734 0.818264 0.205393 0.251351
H15   H     H_    0.103267 0.845248 0.113187 0.208515
H16   H     H_    0.963790 0.566998 0.153452 0.135195
N7    N     N_2   0.642354 0.733502 0.557549 -0.299749
H17   H     H_    0.608697 0.719964 0.599462 0.238138
C57   C     C_3   0.642085 0.828028 0.450824 -0.775673
H18   H     H_    0.622576 0.912457 0.485570 0.242577
H19   H     H_    0.623386 0.791864 0.359046 0.245050
H20   H     H_    0.679654 0.856075 0.424884 0.252183
H21   H     H_    0.737800 0.716290 0.546324 0.155683
H22   H     H_    0.032723 0.644880 0.162034 0.138429
N8    N     N_2   0.529088 0.881354 0.251855 -0.278544
H23   H     H_    0.559826 0.913019 0.203582 0.216376
C58   C     C_3   0.487146 0.885805 0.162213 -0.740375
H24   H     H_    0.477993 0.984224 0.133932 0.243425
H25   H     H_    0.455399 0.841643 0.211946 0.241129
H26   H     H_    0.495151 0.834205 0.068374 0.220410
H27   H     H_    0.433335 0.888374 0.690094 0.162015
H28   H     H_    0.249824 0.357275 0.416949 0.146458
H29   H     H_    0.435898 0.111644 0.701195 0.112318
N9    N     N_2   0.488932 0.113847 0.862769 -0.284817
H30   H     H_    0.478915 0.205363 0.878212 0.234364
C59   C     C_3   0.538859 0.088939 0.903445 -0.764369
H31   H     H_    0.544977 0.121995 0.008484 0.217719
H32   H     H_    0.564128 0.139720 0.835168 0.238151
H33   H     H_    0.546987 0.987294 0.902129 0.250611
H34   H     H_    0.558014 0.370364 0.877650 0.155747
H35   H     H_    0.408190 0.690749 0.870512 0.168436
H36   H     H_    0.402097 0.674594 0.111357 0.121433
N10   N     N_2   0.388544 0.476740 0.110774 -0.257862
H37   H     H_    0.367998 0.488150 0.196174 0.253570
C60   C     C_3   0.406540 0.351038 0.089444 -0.704426
H38   H     H_    0.375947 0.283944 0.096353 0.231135
H39   H     H_    0.433697 0.325160 0.168899 0.250494
H40   H     H_    0.422765 0.342481 0.987759 0.224035
N11   N     N_2   0.651363 0.280452 0.454011 -0.303387
H41   H     H_    0.617637 0.268962 0.496434 0.217782
C61   C     C_3   0.653740 0.234275 0.317164 -0.752593
H42   H     H_    0.636677 0.140272 0.312843 0.227554
H43   H     H_    0.692023 0.225403 0.284912 0.255274
H44   H     H_    0.633975 0.298616 0.246158 0.238818
H45   H     H_    0.745964 0.326515 0.452380 0.153853
H46   H     H_    0.879568 0.556442 0.840640 0.187946
H47   H     H_    0.965271 0.574580 0.845084 0.133404
H48   H     H_    0.038119 0.527689 0.842020 0.133907
H49   H     H_    0.357293 0.696874 0.579991 0.143225

loop_
_geom_bond_atom_site_label_1
_geom_bond_atom_site_label_2
_ccdc_geom_bond_type
C10   C27   A    
C33   H1    S    
C21   C26   A    
N7    H17   S    
C41   C42   S    
C57   H18   S    
C53   H49   S    
C59   H32   S    
C55   H8    S    
O5    Zn2   S    
C57   H20   S    
C28   C29   A    
N8    H23   S    
C45   O12   S    
C20   O2    S    
C36   C37   A    
C7    C31   A    
C5    C6    A    
C3    C52   A    
N6    C56   S    
C9    C22   A    
C48   N4    A    
C19   N2    A    
C15   C16   A    
C18   C19   A    
N4    Zn1   S    
C45   N1    A    
N9    H30   S    
C21   H45   S    
C60   H40   S    
C58   H24   S    
O8    Zn1   S    
C4    C28   A    
C25   H21   S    
C49   H35   S    
C15   H46   S    
C16   C17   A    
C30   H48   S    
O10   Zn1   S    
C51   N1    A    
C1    O1    A    
O9    Zn2   S    
C43   N9    S    
C18   C33   A    
C42   H27   S    
C16   C20   A    
C34   O11   A    
C3    N1    S    
N11   H41   S    
N8    C58   S    
C31   N6    S    
C21   C22   A    
C46   H4    S    
C27   C30   A    
C36   C41   A    
C23   O9    A    
C4    C7    A    
C42   H3    S    
C59   H31   S    
C55   H9    S    
C39   N8    S    
N10   C60   S    
C44   N3    A    
C47   H34   S    
O1    Zn1   S    
C50   N10   S    
C6    H6    S    
C38   C39   A    
C24   C25   A    
C2    C54   A    
C8    C54   A    
C47   N4    A    
N5    C55   S    
N6    H12   S    
C22   N11   S    
C25   C26   A    
C5    C45   A    
C1    O5    A    
C61   H43   S    
C37   C38   A    
C56   H15   S    
C8    C12   S    
C17   C18   A    
C19   O4    S    
C58   H25   S    
C51   O3    S    
C60   H38   S    
C34   O10   A    
C40   C41   A    
C6    C30   A    
C12   O7    A    
C52   H11   S    
C11   C32   A    
C10   C14   A    
C9    C34   S    
C31   C35   A    
C42   C43   S    
C35   H22   S    
C39   C40   A    
C55   H10   S    
C52   C53   A    
C54   N5    S    
C44   C50   S    
C12   O6    A    
C46   C47   A    
C48   C49   S    
C50   H36   S    
C23   O8    A    
C56   H14   S    
C4    C5    A    
C10   C13   A    
C8    C53   A    
N10   H37   S    
C57   H19   S    
C9    C24   A    
C61   H42   S    
C14   H47   S    
C1    C37   S    
C29   C35   A    
C49   H5    S    
C13   C17   A    
C46   N3    A    
C32   C33   A    
C2    C3    A    
C26   N2    S    
C61   H44   S    
C7    C51   A    
C24   N7    S    
C11   C13   A    
C32   H16   S    
C2    H28   S    
C58   H26   S    
O7    Zn2   S    
C20   N2    A    
O11   Zn2   S    
N9    C59   S    
C60   H39   S    
N5    H7    S    
C44   C48   A    
C38   H2    S    
C56   H13   S    
C11   C29   A    
N7    C57   S    
C49   C50   S    
C27   C28   A    
N11   C61   S    
C14   C15   A    
C36   C43   S    
C43   H29   S    
C59   H33   S    
C23   C40   S    
O6    Zn1   S    
N3    Zn2   S    
