data_mof_unit_32226.cif
_audit_creation_date              2013-03-05T16:08:20-0500
_audit_creation_method            fapswitch 2.2
_symmetry_space_group_name_H-M    P1
_symmetry_Int_Tables_number       1
_space_group_crystal_system       triclinic
_cell_length_a                    6.964081
_cell_length_b                    14.531547
_cell_length_c                    16.078229
_cell_angle_alpha                 90.02825
_cell_angle_beta                  90.004822
_cell_angle_gamma                 90.019179
_cell_volume                      1627.09831752

loop_
_atom_site_label
_atom_site_type_symbol
_atom_site_description
_atom_site_fract_x
_atom_site_fract_y
_atom_site_fract_z
_atom_type_partial_charge
O1    O     O_R   0.505700 0.583890 0.413310 -0.586900
O2    O     O_R   0.175960 0.594920 0.586080 -0.602455
O3    O     O_R   0.005660 0.416110 0.586690 -0.595709
C1    C     C_R   0.344757 0.616881 0.614853 0.923324
O4    O     O_R   0.175980 0.594920 0.413930 -0.595846
O5    O     O_R   0.005680 0.416110 0.413310 -0.574187
C2    C     C_R   0.344825 0.617116 0.385329 0.995257
O6    O     O_R   0.505680 0.583890 0.586690 -0.595240
O7    O     O_3   0.339200 0.441330 0.500000 -0.280434
V1    V     V_3+5 0.064350 0.510880 0.500000 1.156824
O8    O     O_R   0.675960 0.405080 0.413920 -0.597896
C3    C     C_R   0.844982 0.382850 0.385385 0.968739
O9    O     O_R   0.675940 0.405080 0.586070 -0.601778
C4    C     C_R   0.844706 0.383123 0.614859 0.923862
V2    V     V_3+5 0.564340 0.489120 0.500000 1.157823
O10   O     O_3   0.839360 0.558670 0.500000 -0.284782
C5    C     C_R   0.006998 0.317384 0.741522 0.170665
C6    C     C_R   0.852624 0.317716 0.685588 -0.226641
C7    C     C_R   0.700964 0.255971 0.701330 -0.162139
H1    H     H_    0.578401 0.253813 0.660194 0.137255
C8    C     C_R   0.712165 0.191786 0.766844 -0.158550
H2    H     H_    0.597275 0.142419 0.774343 0.131575
C9    C     C_R   0.875692 0.187147 0.818428 -0.229798
C10   C     C_R   0.018528 0.253612 0.806110 0.183781
C11   C     C_3   0.229109 0.241335 0.794245 -0.476253
C12   C     C_3   0.216677 0.311208 0.724190 -0.463672
H3    H     H_    0.265216 0.170849 0.772449 0.183760
H4    H     H_    0.313160 0.266230 0.848560 0.204143
H5    H     H_    0.246383 0.281485 0.661789 0.189307
H6    H     H_    0.292790 0.376678 0.738156 0.192804
C13   C     C_R   0.735542 0.252292 0.186095 0.119275
C14   C     C_R   0.882592 0.186782 0.181843 -0.196579
C15   C     C_R   0.029534 0.192974 0.242018 -0.143292
H7    H     H_    0.148968 0.145425 0.240441 0.108899
C16   C     C_R   0.016987 0.256578 0.308261 -0.075698
H8    H     H_    0.127728 0.256490 0.355482 0.107804
C17   C     C_R   0.858031 0.316268 0.315761 -0.256119
C18   C     C_R   0.724637 0.315743 0.250613 0.143895
C19   C     C_3   0.509997 0.313230 0.250777 0.199132
C20   C     C_3   0.522686 0.243016 0.180202 -0.582389
H9    H     H_    0.447928 0.286214 0.309524 0.047146
H10   H     H_    0.466767 0.268074 0.119519 0.228370
H11   H     H_    0.473110 0.173206 0.198411 0.176967
C21   C     C_R   0.507032 0.682634 0.741522 0.170694
C22   C     C_R   0.352714 0.682302 0.685572 -0.225501
C23   C     C_R   0.201095 0.744035 0.701288 -0.162158
H12   H     H_    0.078590 0.746170 0.660120 0.137250
C24   C     C_R   0.212283 0.808231 0.766824 -0.158433
H13   H     H_    0.097453 0.857603 0.774318 0.131487
C25   C     C_R   0.375747 0.812868 0.818437 -0.228462
C26   C     C_R   0.518551 0.746424 0.806138 0.179651
C27   C     C_3   0.729145 0.758754 0.794297 -0.476573
C28   C     C_3   0.716723 0.688854 0.724205 -0.462391
H14   H     H_    0.813166 0.733901 0.848602 0.202757
H15   H     H_    0.765288 0.829241 0.772544 0.184343
H16   H     H_    0.792808 0.623407 0.738139 0.192361
H17   H     H_    0.746469 0.718560 0.661824 0.189456
C29   C     C_R   0.508517 0.684089 0.259601 0.321181
C30   C     C_R   0.353038 0.682895 0.314881 -0.251638
C31   C     C_R   0.200874 0.744149 0.298755 -0.170426
H18   H     H_    0.077923 0.745956 0.339645 0.140135
C32   C     C_R   0.212025 0.808274 0.233180 -0.154386
H19   H     H_    0.096680 0.857284 0.225356 0.132495
C33   C     C_R   0.375976 0.813281 0.181888 -0.241169
C34   C     C_R   0.519859 0.747583 0.194828 0.173167
C35   C     C_3   0.729859 0.761090 0.207546 -0.508102
C36   C     C_3   0.717534 0.691533 0.277839 -0.466708
H20   H     H_    0.763884 0.831892 0.229188 0.185602
H21   H     H_    0.815632 0.736375 0.153687 0.218074
H22   H     H_    0.744995 0.721764 0.340244 0.173779
H23   H     H_    0.795586 0.626458 0.264493 0.232930
O11   O     O_R   0.229000 0.916070 0.913330 -0.594685
O12   O     O_R   0.558770 0.905070 0.086080 -0.594865
O13   O     O_R   0.729000 0.083900 0.086690 -0.591882
C37   C     C_R   0.389737 0.883292 0.115038 0.943648
O14   O     O_R   0.558720 0.905070 0.913930 -0.595497
O15   O     O_R   0.728960 0.083900 0.913310 -0.594647
C38   C     C_R   0.389654 0.883138 0.885099 0.935611
O16   O     O_R   0.229050 0.916070 0.086710 -0.596067
O17   O     O_3   0.395460 0.058650 0.000020 -0.273692
V3    V     V_3+5 0.670340 0.989120 0.000000 1.144537
O18   O     O_R   0.058670 0.094960 0.913900 -0.594853
C39   C     C_R   0.889608 0.116874 0.885078 0.937298
O19   O     O_R   0.058720 0.094960 0.086050 -0.594349
C40   C     C_R   0.890058 0.116791 0.114902 0.940829
V4    V     V_3+5 0.170330 0.010930 0.999970 1.146871
O20   O     O_3   0.895340 0.941350 0.999980 -0.275722
N1    N     N_R   0.423932 0.400147 0.223826 0.257379
O21   O     O_R   0.241698 0.403489 0.206472 -0.391250
O22   O     O_R   0.525273 0.475310 0.220262 -0.432339

loop_
_geom_bond_atom_site_label_1
_geom_bond_atom_site_label_2
_geom_bond_distance
_ccdc_geom_bond_type
C35   H20   1.111410 S    
C4    C6    1.483476 S    
C7    H1    1.080195 S    
C1    O6    1.300396 A    
C19   H9    1.110606 S    
C22   C23   1.408520 A    
C21   C22   1.401451 A    
C11   H4    1.111564 S    
C17   C18   1.400008 A    
C9    C39   1.483803 S    
C5    C12   1.489327 S    
C7    C8    1.409457 A    
O19   V4    2.002455 S    
O5    C3    1.298825 A    
C18   C19   1.495205 S    
C35   H21   1.111573 S    
O15   C39   1.298934 A    
V2    O10   2.165267 S    
C13   C20   1.491420 S    
C31   C32   1.409574 A    
C6    C7    1.408635 A    
C2    C30   1.483545 S    
C3    C17   1.482066 S    
C32   C33   1.410386 A    
O8    V2    2.002573 S    
C21   C28   1.489353 S    
C20   H11   1.110887 S    
C16   H8    1.082170 S    
O17   V4    1.714121 S    
C9    C10   1.400394 A    
O1    V2    2.002058 S    
O7    V1    2.164819 S    
C27   H15   1.111318 S    
C20   H10   1.112015 S    
C35   C36   1.519022 S    
C30   C31   1.408292 A    
O9    C4    1.302959 A    
O12   C37   1.304846 A    
C19   N1    1.463985 S    
C25   C38   1.483131 S    
O12   V3    2.003038 S    
C27   H14   1.111551 S    
C5    C6    1.401583 A    
C1    C22   1.482765 S    
C23   C24   1.409105 A    
C5    C10   1.394497 A    
C26   C27   1.489683 S    
C10   C11   1.489648 S    
C19   C20   1.528199 S    
O4    C2    1.303120 A    
C28   H17   1.111593 S    
V4    O20   2.165286 S    
C25   C26   1.400311 A    
C29   C30   1.401012 A    
O18   V4    2.003223 S    
O18   C39   1.304854 A    
C31   H18   1.079896 S    
O2    C1    1.302767 A    
C32   H19   1.081083 S    
C29   C34   1.393937 A    
C13   C14   1.400080 A    
O15   V3    2.001990 S    
C15   H7    1.081774 S    
O19   C40   1.302170 A    
V3    O20   1.714010 S    
O3    C4    1.300489 A    
C21   C26   1.394276 A    
C24   H13   1.081238 S    
N1    O22   1.301502 A    
C12   H6    1.111729 S    
O6    V2    2.001186 S    
C8    C9    1.410405 A    
O13   V3    2.001051 S    
O2    V1    2.002136 S    
C27   C28   1.519222 S    
C28   H16   1.111731 S    
C23   H12   1.080215 S    
C16   C17   1.411694 A    
O1    C2    1.300458 A    
O14   C38   1.304687 A    
O17   V3    2.164868 S    
O14   V3    2.002142 S    
O5    V1    2.000968 S    
O11   V4    2.001544 S    
O8    C3    1.304057 A    
C11   H3    1.111311 S    
C13   C18   1.389640 A    
C36   H22   1.111658 S    
C14   C15   1.411028 A    
O9    V2    2.003147 S    
C11   C12   1.519301 S    
O4    V1    2.003002 S    
O3    V1    2.001989 S    
V1    O10   1.714065 S    
C33   C34   1.399847 A    
C14   C40   1.481405 S    
C24   C25   1.410262 A    
C15   C16   1.412583 A    
C33   C37   1.483406 S    
C36   H23   1.111707 S    
O13   C40   1.300606 A    
O7    V2    1.714596 S    
C29   C36   1.488714 S    
N1    O21   1.300308 A    
C12   H5    1.111590 S    
C34   C35   1.489581 S    
O11   C38   1.298848 A    
C8    H2    1.081230 S    
C37   O16   1.298864 A    
O16   V4    2.003632 S    
