data_mof_unit_17835.cif
_audit_creation_date              2012-12-11T15:43:12-0500
_audit_creation_method            fapswitch 2.2
_symmetry_space_group_name_H-M    P1
_symmetry_Int_Tables_number       1
_space_group_crystal_system       triclinic
_cell_length_a                    19.316028
_cell_length_b                    11.127236
_cell_length_c                    18.755614
_cell_angle_alpha                 90.386883
_cell_angle_beta                  90.175269
_cell_angle_gamma                 89.817706
_cell_volume                      4031.08827802

loop_
_atom_site_label
_atom_site_type_symbol
_atom_type_description
_atom_site_fract_x
_atom_site_fract_y
_atom_site_fract_z
_atom_type_partial_charge
C1    C     C_R   0.729633 0.377241 0.147214 0.521751
C2    C     C_R   0.965763 0.980356 0.056162 0.031514
C3    C     C_R   0.757506 0.466887 0.567660 0.021058
C4    C     C_R   0.729045 0.376279 0.351927 0.537025
C5    C     C_R   0.269693 0.382033 0.649465 0.528044
C6    C     C_R   0.229040 0.876268 0.351932 0.538023
C7    C     C_R   0.769690 0.882041 0.649469 0.528398
C8    C     C_R   0.537326 0.158511 0.355874 0.572389
C9    C     C_R   0.468049 0.156081 0.647656 0.579726
C10   C     C_R   0.037312 0.658512 0.355868 0.572039
C11   C     C_R   0.968052 0.656082 0.647656 0.581217
C12   C     C_R   0.728470 0.019535 0.361395 0.560070
C13   C     C_R   0.472264 0.493564 0.981272 0.016823
C14   C     C_R   0.268377 0.008837 0.638630 0.551680
C15   C     C_R   0.228472 0.519526 0.361396 0.560244
C16   C     C_R   0.768426 0.509005 0.638622 0.553102
C17   C     C_R   0.497706 0.169804 0.925027 -0.004843
C18   C     C_R   0.504009 0.156017 0.074148 -0.002989
C19   C     C_R   0.997930 0.669559 0.925161 -0.007769
C20   C     C_R   0.003008 0.655329 0.074519 -0.001455
C21   C     C_R   0.485449 0.274882 0.967578 -0.001666
C22   C     C_R   0.481601 0.264010 0.042398 -0.026210
C23   C     C_R   0.986024 0.774682 0.967750 -0.004614
C24   C     C_R   0.466239 0.481040 0.055908 0.030644
C25   C     C_R   0.981103 0.763492 0.042561 -0.026252
C26   C     C_R   0.521058 0.056405 0.030893 -0.155593
C27   C     C_R   0.519721 0.064273 0.957765 -0.182924
C28   C     C_R   0.020587 0.555809 0.031184 -0.158299
C29   C     C_R   0.020045 0.564028 0.957931 -0.188007
C30   C     C_2   0.554408 0.392638 0.443546 0.230533
C31   C     C_2   0.547482 0.370903 0.596438 0.247128
C32   C     C_2   0.054286 0.892706 0.443524 0.230548
C33   C     C_2   0.047479 0.870908 0.596437 0.247086
C34   C     C_3   0.465185 0.841356 0.562211 -0.383391
C35   C     C_R   0.740170 0.944859 0.914394 -0.000816
C36   C     C_3   0.400627 0.994662 0.398537 -0.387429
C37   C     C_3   0.965195 0.341384 0.562303 -0.383488
C38   C     C_3   0.900739 0.494397 0.398490 -0.387788
C39   C     C_2   0.864703 0.847848 0.409340 0.281270
C40   C     C_2   0.122391 0.167174 0.543211 0.201753
C41   C     C_2   0.364787 0.348037 0.409380 0.281590
C42   C     C_2   0.622452 0.667153 0.543207 0.201997
C43   C     C_3   0.968809 0.111627 0.944311 -0.381017
C44   C     C_3   0.967143 0.083025 0.109280 -0.389557
C45   C     C_3   0.467624 0.611288 0.943148 -0.378261
C46   C     C_R   0.238372 0.897915 0.071611 0.068496
C47   C     C_3   0.468584 0.583814 0.108911 -0.388653
C48   C     C_2   0.820386 0.171679 0.041132 0.203892
C49   C     C_2   0.151242 0.808003 0.894699 0.195800
C50   C     C_2   0.321519 0.669268 0.041648 0.206737
C51   C     C_2   0.657315 0.330551 0.893275 0.232862
C52   C     C_3   0.788323 0.142339 0.878487 -0.340302
C53   C     C_3   0.145139 0.750286 0.046548 -0.362736
C54   C     C_3   0.287922 0.640815 0.878747 -0.345010
C55   C     C_3   0.645764 0.260911 0.041664 -0.362429
C56   C     C_3   0.618341 0.711868 0.937534 -0.387305
C57   C     C_R   0.240982 0.442750 0.914963 -0.001397
C58   C     C_3   0.340950 0.148082 0.116058 -0.399077
C59   C     C_3   0.120660 0.207898 0.938061 -0.387277
C60   C     C_3   0.841680 0.651714 0.129235 -0.394818
C61   C     C_R   0.740295 0.404017 0.073627 0.071734
C62   C     C_R   0.692279 0.890670 0.958579 0.000199
C63   C     C_R   0.276720 0.992669 0.048795 0.007536
C64   C     C_R   0.193951 0.387226 0.959458 -0.001395
C65   C     C_R   0.269098 0.379495 0.852511 0.535414
C66   C     C_R   0.778171 0.502237 0.055855 0.012358
C67   C     C_R   0.686031 0.922478 0.029561 -0.016449
C68   C     C_R   0.285753 0.010501 0.977849 -0.033329
C69   C     C_R   0.187010 0.419937 0.030076 -0.018641
C70   C     C_R   0.789023 0.527572 0.986205 -0.061655
C71   C     C_R   0.771455 0.079208 0.012712 0.000988
C72   C     C_R   0.199179 0.864719 0.947701 -0.001468
C73   C     C_R   0.272510 0.576835 0.013130 0.003820
C74   C     C_R   0.704349 0.383819 0.948182 0.016630
C75   C     C_R   0.768181 0.054944 0.937138 -0.007286
C76   C     C_R   0.229625 0.876990 0.146680 0.519879
C77   C     C_R   0.196692 0.835940 0.020938 -0.044485
C78   C     C_R   0.268853 0.552924 0.937584 -0.005343
C79   C     C_R   0.699318 0.347853 0.020128 -0.040732
C80   C     C_3   0.682044 0.761931 0.973557 -0.136344
C81   C     C_3   0.346501 0.035268 0.068807 -0.133704
C82   C     C_3   0.184019 0.258306 0.974756 -0.134012
C83   C     C_3   0.847593 0.543208 0.078595 -0.129451
C84   C     C_3   0.671950 0.795943 0.051253 -0.226382
C85   C     C_3   0.357025 0.055490 0.988468 -0.219704
C86   C     C_3   0.172654 0.293658 0.052130 -0.226930
C87   C     C_R   0.768868 0.880149 0.852331 0.529963
C88   C     C_3   0.859388 0.571533 0.999468 -0.235496
C89   C     C_R   0.731092 0.005090 0.060636 -0.056528
C90   C     C_R   0.251846 0.942465 0.926009 0.031717
C91   C     C_R   0.231962 0.502880 0.060967 -0.055802
C92   C     C_R   0.757343 0.465907 0.930803 0.028919
C93   C     C_R   0.531595 0.153719 0.147168 0.514019
C94   C     C_R   0.468156 0.156487 0.853111 0.553716
C95   C     C_R   0.031032 0.653617 0.147509 0.511405
C96   C     C_R   0.968128 0.656436 0.853215 0.555206
C97   C     C_R   0.502246 0.160501 0.579281 0.015286
C98   C     C_R   0.480577 0.391087 0.938488 -0.058486
C99   C     C_R   0.519301 0.171582 0.430787 0.026380
C100  C     C_R   0.002253 0.660508 0.579281 0.015361
C101  C     C_R   0.019298 0.671578 0.430782 0.026589
C102  C     C_R   0.498140 0.058198 0.536251 -0.008419
C103  C     C_R   0.507319 0.064546 0.465002 -0.025350
C104  C     C_R   0.998161 0.558204 0.536253 -0.008559
C105  C     C_R   0.007364 0.564529 0.465008 -0.025175
C106  C     C_R   0.533451 0.275865 0.473973 -0.047078
C107  C     C_R   0.528213 0.267646 0.549573 -0.073022
C108  C     C_R   0.033416 0.775888 0.473963 -0.047065
C109  C     C_R   0.465476 0.365691 0.084378 -0.104783
C110  C     C_R   0.028204 0.767662 0.549568 -0.073353
C111  C     C_3   0.445201 0.959828 0.526910 -0.106992
C112  C     C_3   0.461294 0.961928 0.447198 -0.118586
C113  C     C_3   0.945245 0.459802 0.526914 -0.107195
C114  C     C_3   0.961393 0.461825 0.447212 -0.118281
C115  C     C_R   0.750632 0.942417 0.583174 0.015326
C116  C     C_R   0.246709 0.910626 0.422542 0.009784
C117  C     C_R   0.250628 0.442405 0.583174 0.015732
C118  C     C_R   0.746743 0.410704 0.422520 0.009962
C119  C     C_R   0.805026 0.987865 0.542165 -0.000227
C120  C     C_R   0.982323 0.891031 0.938738 -0.064011
C121  C     C_R   0.224823 0.018980 0.449278 -0.032748
C122  C     C_R   0.305010 0.487950 0.542185 -0.000222
C123  C     C_R   0.724900 0.519127 0.449229 -0.032673
C124  C     C_R   0.796726 0.009438 0.471152 -0.035028
C125  C     C_R   0.226345 0.042807 0.519130 -0.003290
C126  C     C_R   0.296715 0.509518 0.471170 -0.035119
C127  C     C_R   0.726471 0.543037 0.519073 -0.003820
C128  C     C_R   0.675234 0.968830 0.480183 -0.172735
C129  C     C_R   0.282284 0.855098 0.542850 -0.152030
C130  C     C_R   0.175239 0.468714 0.480167 -0.172728
C131  C     C_R   0.964773 0.864997 0.084493 -0.102766
C132  C     C_R   0.782320 0.355250 0.542841 -0.152140
C133  C     C_R   0.683573 0.944639 0.553648 -0.150443
C134  C     C_R   0.276506 0.826976 0.470142 -0.167768
C135  C     C_R   0.183577 0.444520 0.553630 -0.150170
C136  C     C_R   0.776517 0.327064 0.470143 -0.167584
C137  C     C_3   0.877423 0.941731 0.531227 -0.266521
C138  C     C_3   0.191011 0.133945 0.429394 -0.291762
C139  C     C_3   0.377436 0.441935 0.531265 -0.266547
C140  C     C_3   0.691009 0.634030 0.429328 -0.291812
C141  C     C_R   0.728369 0.019973 0.139919 0.537999
C142  C     C_R   0.973252 0.993301 0.981694 0.013425
C143  C     C_R   0.259971 0.975634 0.853286 0.582089
C144  C     C_R   0.228664 0.519024 0.139912 0.536672
C145  C     C_R   0.768880 0.509182 0.859962 0.546671
C146  C     C_3   0.867044 0.962984 0.452129 -0.079732
C147  C     C_3   0.193019 0.162029 0.509947 -0.099546
C148  C     C_3   0.367063 0.463176 0.452166 -0.079991
C149  C     C_3   0.693059 0.662185 0.509873 -0.099589
C150  C     C_R   0.733249 0.995071 0.437538 -0.008317
C151  C     C_R   0.257419 0.966675 0.567693 0.022162
C152  C     C_R   0.233251 0.495056 0.437538 -0.008368
Cr1   Cr    Cr6+3 0.772010 0.169670 0.250090 0.993803
Cr2   Cr    Cr6+3 0.383290 0.010760 0.749160 1.004836
Cr3   Cr    Cr6+3 0.116710 0.510760 0.250840 0.998273
Cr4   Cr    Cr6+3 0.883290 0.510760 0.749160 1.006659
Cr5   Cr    Cr6+3 0.227990 0.169670 0.749910 1.087585
Cr6   Cr    Cr6+3 0.272010 0.669670 0.250090 0.994256
Cr7   Cr    Cr6+3 0.727990 0.669670 0.749910 1.086665
Cr8   Cr    Cr6+3 0.615000 0.323260 0.249260 1.052421
Cr9   Cr    Cr6+3 0.385000 0.323260 0.750740 1.034179
Cr10  Cr    Cr6+3 0.115000 0.823260 0.249260 1.052137
Cr11  Cr    Cr6+3 0.885000 0.823260 0.750740 1.033022
Cr12  Cr    Cr6+3 0.616710 0.010760 0.250840 0.999088
H1    H     H_    0.538797 0.972310 0.053270 0.150671
H2    H     H_    0.306509 0.791547 0.578668 0.145226
H3    H     H_    0.077177 0.272477 0.943505 0.118592
H4    H     H_    0.130007 0.194494 0.880429 0.200368
H5    H     H_    0.799666 0.637281 0.168586 0.150029
H6    H     H_    0.890083 0.662201 0.160220 0.145320
H7    H     H_    0.831146 0.736281 0.100026 0.148813
H8    H     H_    0.125069 0.458549 0.455784 0.141085
H9    H     H_    0.806510 0.291674 0.578672 0.145379
H10   H     H_    0.639521 0.916981 0.584850 0.166422
H11   H     H_    0.294962 0.741109 0.451177 0.140196
H12   H     H_    0.139534 0.416775 0.584820 0.166372
H13   H     H_    0.794917 0.241129 0.451209 0.140196
H14   H     H_    0.883449 0.845682 0.546283 0.129708
H15   H     H_    0.138659 0.120660 0.405962 0.161937
H16   H     H_    0.383511 0.345893 0.546318 0.129891
H17   H     H_    0.531349 0.984231 0.926807 0.143802
H18   H     H_    0.638639 0.620638 0.405951 0.161989
H19   H     H_    0.916393 0.003059 0.555390 0.129457
H20   H     H_    0.225687 0.191951 0.397511 0.141129
H21   H     H_    0.416370 0.503322 0.555440 0.129446
H22   H     H_    0.725628 0.692062 0.397385 0.140804
H23   H     H_    0.900768 0.034348 0.430010 0.180625
H24   H     H_    0.229373 0.234094 0.524614 0.128130
H25   H     H_    0.400764 0.534585 0.430056 0.180486
H26   H     H_    0.729378 0.734326 0.524496 0.128249
H27   H     H_    0.489738 0.406656 0.882730 0.194927
H28   H     H_    0.038280 0.471693 0.053584 0.152093
H29   H     H_    0.456745 0.357002 0.141081 0.155505
H30   H     H_    0.992642 0.906194 0.883081 0.190500
H31   H     H_    0.955699 0.856081 0.141131 0.153664
H32   H     H_    0.232072 0.208128 0.964748 0.156919
H33   H     H_    0.880180 0.468528 0.099419 0.168687
H34   H     H_    0.729776 0.712609 0.961927 0.152414
H35   H     H_    0.379255 0.962538 0.091651 0.171076
H36   H     H_    0.618134 0.784935 0.071111 0.139770
H37   H     H_    0.361164 0.150837 0.972111 0.129911
H38   H     H_    0.118522 0.282944 0.071140 0.140057
H39   H     H_    0.031832 0.484064 0.926953 0.145650
H40   H     H_    0.862755 0.668130 0.985847 0.133057
H41   H     H_    0.712235 0.758320 0.086938 0.143007
H42   H     H_    0.394078 0.991367 0.963962 0.183081
H43   H     H_    0.212248 0.256997 0.088880 0.141863
H44   H     H_    0.895645 0.508840 0.972886 0.181494
H45   H     H_    0.597129 0.440418 0.467323 0.093211
H46   H     H_    0.541231 0.462396 0.578212 0.102223
H47   H     H_    0.096920 0.940650 0.467327 0.093164
H48   H     H_    0.041208 0.962404 0.578231 0.101818
H49   H     H_    0.448918 0.841156 0.618858 0.182826
H50   H     H_    0.892887 0.492443 0.541019 0.152866
H51   H     H_    0.439097 0.765330 0.534503 0.112671
H52   H     H_    0.521828 0.828522 0.559714 0.163551
H53   H     H_    0.364261 0.057465 0.425261 0.129733
H54   H     H_    0.418105 0.036761 0.348508 0.172231
H55   H     H_    0.374798 0.910462 0.382394 0.149815
H56   H     H_    0.021828 0.328747 0.560160 0.163776
H57   H     H_    0.948631 0.341106 0.618814 0.182768
H58   H     H_    0.939366 0.265277 0.534475 0.112662
H59   H     H_    0.864396 0.557382 0.425123 0.129834
H60   H     H_    0.918233 0.536236 0.348367 0.171498
H61   H     H_    0.991853 0.383329 0.427433 0.154911
H62   H     H_    0.874879 0.410124 0.382488 0.149767
H63   H     H_    0.838740 0.769574 0.430447 0.064017
H64   H     H_    0.076355 0.153026 0.510973 0.081708
H65   H     H_    0.338820 0.269746 0.430464 0.064020
H66   H     H_    0.576385 0.652458 0.511054 0.081648
H67   H     H_    0.915950 0.123370 0.925692 0.192090
H68   H     H_    0.982025 0.189170 0.978271 0.150641
H69   H     H_    0.001827 0.112386 0.896025 0.116132
H70   H     H_    0.018094 0.083213 0.136869 0.136631
H71   H     H_    0.959090 0.172907 0.086363 0.137139
H72   H     H_    0.392852 0.992441 0.541080 0.153094
H73   H     H_    0.926549 0.069821 0.150207 0.149527
H74   H     H_    0.502316 0.612303 0.896164 0.119764
H75   H     H_    0.415448 0.620357 0.921894 0.187546
H76   H     H_    0.478552 0.690176 0.976883 0.155204
H77   H     H_    0.519560 0.582658 0.136451 0.136455
H78   H     H_    0.461438 0.673895 0.085980 0.137286
H79   H     H_    0.427933 0.571729 0.149911 0.148150
H80   H     H_    0.834588 0.175194 0.096063 0.174238
H81   H     H_    0.139238 0.713262 0.897117 0.107071
H82   H     H_    0.335154 0.673984 0.096674 0.175299
H83   H     H_    0.491708 0.883420 0.427359 0.154988
H84   H     H_    0.652759 0.234069 0.887696 0.098235
H85   H     H_    0.835842 0.116218 0.849876 0.154818
H86   H     H_    0.746976 0.143395 0.837290 0.112130
H87   H     H_    0.794338 0.235628 0.896014 0.193435
H88   H     H_    0.161161 0.705470 0.096041 0.145666
H89   H     H_    0.101242 0.809086 0.057673 0.181131
H90   H     H_    0.134279 0.677941 0.008070 0.114792
H91   H     H_    0.333246 0.613213 0.847061 0.152962
H92   H     H_    0.244281 0.646787 0.840336 0.116896
H93   H     H_    0.298318 0.732203 0.896640 0.189232
H94   H     H_    0.625056 0.958740 0.455811 0.141092
H95   H     H_    0.661269 0.208743 0.088841 0.138768
H96   H     H_    0.602019 0.318758 0.055787 0.180628
H97   H     H_    0.633071 0.194811 0.999715 0.117452
H98   H     H_    0.606640 0.623534 0.961746 0.166489
H99   H     H_    0.574686 0.775822 0.944071 0.117297
H100  H     H_    0.627187 0.698967 0.879710 0.199306
H101  H     H_    0.297795 0.138965 0.154685 0.147362
H102  H     H_    0.388367 0.158581 0.148554 0.145086
H103  H     H_    0.332600 0.230532 0.084111 0.147609
H104  H     H_    0.108294 0.119926 0.962382 0.161286
O1    O     O_R   0.787520 0.042810 0.170440 -0.535369
O2    O     O_R   0.454050 0.051210 0.669140 -0.534677
O3    O     O_R   0.045950 0.551210 0.330860 -0.548029
O4    O     O_R   0.954050 0.551210 0.669140 -0.534575
O5    O     O_R   0.681390 0.959480 0.325510 -0.498618
O6    O     O_R   0.318610 0.959480 0.674490 -0.526807
O7    O     O_R   0.181390 0.459480 0.325510 -0.498265
O8    O     O_R   0.818610 0.459480 0.674490 -0.523443
O9    O     O_3   0.667900 0.167900 0.250060 -0.309369
O10   O     O_3   0.332100 0.167900 0.749940 -0.297218
O11   O     O_3   0.167900 0.667900 0.250060 -0.310105
O12   O     O_R   0.212480 0.042810 0.829560 -0.472185
O13   O     O_3   0.832100 0.667900 0.749940 -0.308525
O14   O     O_R   0.765640 0.292100 0.175020 -0.544363
O15   O     O_R   0.234360 0.292100 0.824980 -0.517867
O16   O     O_R   0.265640 0.792100 0.175020 -0.543571
O17   O     O_R   0.734360 0.792100 0.824980 -0.526608
O18   O     O_R   0.670190 0.408840 0.168540 -0.523067
O19   O     O_R   0.329810 0.408840 0.831460 -0.530968
O20   O     O_R   0.170190 0.908840 0.168540 -0.521416
O21   O     O_R   0.829810 0.908840 0.831460 -0.528349
O22   O     O_R   0.556620 0.251410 0.175160 -0.512072
O23   O     O_R   0.287520 0.542810 0.170440 -0.535017
O24   O     O_R   0.443380 0.251410 0.824840 -0.499085
O25   O     O_R   0.056620 0.751410 0.175160 -0.513228
O26   O     O_R   0.943380 0.751410 0.824840 -0.496975
O27   O     O_R   0.545960 0.049620 0.170320 -0.531247
O28   O     O_R   0.454040 0.049620 0.829680 -0.522793
O29   O     O_R   0.045960 0.549620 0.170320 -0.531468
O30   O     O_R   0.954040 0.549620 0.829680 -0.523828
O31   O     O_R   0.681390 0.958010 0.176690 -0.483061
O32   O     O_R   0.318610 0.958010 0.823310 -0.512309
O33   O     O_R   0.181390 0.458010 0.176690 -0.482755
O34   O     O_R   0.712480 0.542810 0.829560 -0.457332
O35   O     O_R   0.818610 0.458010 0.823310 -0.499505
O36   O     O_R   0.787510 0.044390 0.330970 -0.475094
O37   O     O_R   0.212490 0.044390 0.669030 -0.408204
O38   O     O_R   0.287510 0.544390 0.330970 -0.474939
O39   O     O_R   0.712490 0.544390 0.669030 -0.405979
O40   O     O_R   0.765630 0.293570 0.323840 -0.535674
O41   O     O_R   0.234370 0.293570 0.676160 -0.478349
O42   O     O_R   0.265630 0.793570 0.323840 -0.535271
O43   O     O_R   0.734370 0.793570 0.676160 -0.477900
O44   O     O_R   0.670190 0.410420 0.329080 -0.492879
O45   O     O_R   0.556610 0.252880 0.323980 -0.427752
O46   O     O_R   0.329810 0.410420 0.670920 -0.523942
O47   O     O_R   0.170190 0.910420 0.329080 -0.492363
O48   O     O_R   0.829810 0.910420 0.670920 -0.523213
O49   O     O_2   0.521817 0.439891 0.395452 -0.476218
O50   O     O_2   0.572246 0.354224 0.655552 -0.437550
O51   O     O_2   0.021709 0.939819 0.395377 -0.476228
O52   O     O_2   0.072266 0.854215 0.655538 -0.432976
O53   O     O_2   0.891215 0.842185 0.350452 -0.454097
O54   O     O_2   0.115932 0.185464 0.607019 -0.488388
O55   O     O_2   0.391353 0.342395 0.350516 -0.452905
O56   O     O_R   0.443390 0.252880 0.676020 -0.473546
O57   O     O_2   0.616050 0.685818 0.606991 -0.488182
O58   O     O_2   0.847161 0.247387 0.003780 -0.589572
O59   O     O_2   0.124249 0.866694 0.847402 -0.472500
O60   O     O_2   0.349016 0.744031 0.004272 -0.596003
O61   O     O_2   0.619625 0.393395 0.856884 -0.476411
O62   O     O_R   0.056610 0.752880 0.323980 -0.427807
O63   O     O_R   0.943390 0.752880 0.676020 -0.472562
O64   O     O_R   0.545950 0.051210 0.330860 -0.547831

loop_
_geom_bond_atom_site_label_1
_geom_bond_atom_site_label_2
_ccdc_geom_bond_type
C99   C103  A    
C9    O2    A    
C11   O4    A    
C52   C75   S    
C118  C136  A    
Cr2   O28   S    
Cr7   O17   S    
C8    C99   S    
C122  C139  S    
C34   H51   S    
Cr4   O13   S    
C38   C114  S    
C106  C107  A    
C100  C104  A    
C55   H96   S    
C74   C92   A    
C6    O47   A    
Cr11  O13   S    
C14   C151  S    
C68   C90   A    
C83   H33   S    
C138  H20   S    
C86   H38   S    
C90   C143  S    
C48   H80   S    
C38   H62   S    
Cr6   O16   S    
C83   C88   S    
Cr5   O37   S    
C21   C22   A    
C95   O29   A    
C102  C111  S    
C54   H92   S    
C88   H44   S    
C1    O18   A    
C143  O32   A    
C144  O23   A    
C116  C121  A    
C24   C109  A    
C12   C150  S    
Cr12  O5    S    
Cr9   O24   S    
C43   H68   S    
C20   C28   A    
C17   C21   A    
C103  C112  S    
C38   H59   S    
C12   O5    A    
C19   C23   A    
C12   O36   A    
C22   C109  A    
C111  H72   S    
C15   O7    A    
C6    C116  S    
Cr8   O45   S    
C128  C150  A    
C10   O3    A    
C130  C152  A    
C30   O49   D    
C53   H90   S    
C117  C135  A    
Cr11  O26   S    
C59   H3    S    
Cr3   O29   S    
C40   C147  S    
C31   C107  S    
C57   C78   A    
C76   O16   A    
C131  H31   S    
C87   O17   A    
C34   H49   S    
Cr8   O22   S    
C36   H53   S    
C46   C77   A    
Cr10  O11   S    
C147  H24   S    
C65   O19   A    
C37   H57   S    
C40   O54   D    
C114  H61   S    
C13   C45   S    
Cr1   O36   S    
C66   C70   A    
C60   C83   S    
Cr4   O8    S    
C50   H82   S    
C97   C107  A    
C37   C113  S    
C43   C142  S    
C37   H56   S    
Cr2   O2    S    
C52   H86   S    
C42   O57   D    
C144  O33   A    
C111  C112  S    
C59   C82   S    
C27   H17   S    
C129  H2    S    
C60   H5    S    
C62   C80   S    
Cr10  O62   S    
C94   O28   A    
C7    O48   A    
Cr3   O11   S    
C125  C151  A    
Cr7   O13   S    
C35   C87   S    
C51   O61   D    
C2    C44   S    
C58   H103  S    
C109  H29   S    
C9    O56   A    
Cr2   O32   S    
C68   C85   S    
C10   O62   A    
C113  H50   S    
C33   O52   D    
C138  H15   S    
C36   H55   S    
C139  C148  S    
C80   C84   S    
C17   C27   A    
C56   H99   S    
C32   O51   D    
C32   H47   S    
C124  C146  S    
C136  H13   S    
C140  H18   S    
Cr7   O34   S    
C40   H64   S    
C117  C122  A    
C45   H75   S    
C121  C125  A    
C72   C90   A    
C14   O6    A    
C123  C127  A    
C132  C136  A    
Cr3   O33   S    
Cr6   O38   S    
C64   C69   A    
C88   H40   S    
C4    O40   A    
C5    O41   A    
C115  C119  A    
C2    C142  A    
Cr12  O9    S    
C14   O37   A    
C15   O38   A    
C99   C106  A    
C50   O60   D    
C63   C68   A    
C93   O22   A    
Cr1   O14   S    
C18   C22   A    
C60   H7    S    
C82   H32   S    
C98   H27   S    
Cr9   O10   S    
C47   H78   S    
C137  H19   S    
C56   C80   S    
Cr5   O15   S    
C46   C63   A    
C140  H22   S    
C135  H12   S    
C34   H52   S    
C127  C149  S    
C41   C148  S    
C61   C79   A    
C58   H101  S    
C143  O12   A    
C108  C110  A    
C55   H95   S    
Cr12  O27   S    
C102  C103  A    
C104  C113  S    
C141  O31   A    
C18   C93   S    
C76   O20   A    
C33   C110  S    
C69   C91   A    
C140  C149  S    
C81   C85   S    
C3    C16   S    
C145  O35   A    
Cr7   O39   S    
C112  H83   S    
C26   H1    S    
C100  C110  A    
C8    O45   A    
Cr6   O42   S    
C130  C135  A    
C18   C26   A    
C51   C74   S    
C16   O8    A    
C30   H45   S    
Cr1   O40   S    
C26   C27   A    
C28   C29   A    
C129  C151  A    
C33   H48   S    
C43   H67   S    
C116  C134  A    
C20   C25   A    
C93   O27   A    
Cr1   O9    S    
C38   H60   S    
Cr2   O6    S    
C42   C149  S    
C104  C105  A    
Cr12  O31   S    
C66   C83   S    
C137  H14   S    
Cr9   O56   S    
C130  H8    S    
C36   C112  S    
Cr9   O46   S    
C141  O1    A    
Cr10  O25   S    
C39   H63   S    
C97   C102  A    
C85   H37   S    
C101  C108  A    
Cr11  O63   S    
C53   H89   S    
Cr6   O23   S    
C15   C152  S    
C134  H11   S    
C3    C132  A    
Cr3   O7    S    
C125  C147  S    
C44   H71   S    
C36   H54   S    
C126  C148  S    
C115  C133  A    
C82   C86   S    
C53   H88   S    
C56   H98   S    
C55   C79   S    
C137  C146  S    
C16   O39   A    
C7    O43   A    
C80   H34   S    
C41   O55   D    
C96   O30   A    
C59   H104  S    
C43   H69   S    
C58   C81   S    
C19   C29   A    
C8    O64   A    
C113  C114  S    
C124  C150  A    
C9    C97   S    
C10   C101  S    
C70   C92   A    
Cr8   O9    S    
C57   C65   S    
C1    C61   S    
C81   H35   S    
Cr3   O3    S    
Cr4   O4    S    
Cr12  O64   S    
C84   H41   S    
C86   H43   S    
C60   H6    S    
C51   H84   S    
C4    O44   A    
C47   H79   S    
C21   C98   A    
C39   O53   D    
C31   O50   D    
C31   H46   S    
C6    O42   A    
C39   C146  S    
C87   O21   A    
Cr8   O18   S    
C118  C123  A    
Cr10  O47   S    
C96   O26   A    
C129  C134  A    
C54   H93   S    
C59   H4    S    
C54   C78   S    
C29   H39   S    
C54   H91   S    
C53   C77   S    
C70   C88   S    
C44   H73   S    
C46   C76   S    
C119  C124  A    
C84   H36   S    
C35   C75   A    
C149  H26   S    
Cr5   O41   S    
C62   C67   A    
C63   C81   S    
C95   O25   A    
Cr4   O30   S    
C56   H100  S    
C37   H58   S    
C1    O14   A    
C3    C127  A    
C67   C89   A    
C7    C115  S    
C13   C98   A    
C45   H74   S    
C139  H16   S    
Cr7   O43   S    
Cr5   O10   S    
C61   C66   A    
Cr8   O44   S    
C48   O58   D    
C49   C72   S    
C73   C78   A    
Cr4   O35   S    
C133  H10   S    
C67   C84   S    
C11   O63   A    
C30   C106  S    
C34   C111  S    
C4    C118  S    
C126  C152  A    
C28   H28   S    
C85   H42   S    
C2    C131  A    
C101  C105  A    
C119  C137  S    
C94   O24   A    
C105  C114  S    
Cr2   O10   S    
C120  C142  A    
C73   C91   A    
C49   O59   D    
C50   C73   S    
C23   C120  A    
C47   H77   S    
C123  C140  S    
C120  H30   S    
C13   C24   A    
C5    C117  S    
C11   C100  S    
C128  H94   S    
C121  C138  S    
C122  C126  A    
C72   C77   A    
C44   H70   S    
C71   C89   A    
C138  C147  S    
C146  H23   S    
C58   H102  S    
C65   O15   A    
C64   C82   S    
Cr11  O21   S    
C5    O46   A    
C20   C95   S    
C41   H65   S    
C48   C71   S    
C25   C131  A    
C42   H66   S    
C145  O34   A    
C57   C64   A    
C91   C144  S    
C52   H85   S    
C148  H25   S    
C92   C145  S    
C55   H97   S    
C24   C47   S    
Cr1   O1    S    
Cr11  O48   S    
C74   C79   A    
C45   H76   S    
C128  C133  A    
Cr5   O12   S    
C71   C75   A    
Cr6   O11   S    
C89   C141  S    
C35   C62   A    
C132  H9    S    
C23   C25   A    
C52   H87   S    
C49   H81   S    
C19   C96   S    
C32   C108  S    
C17   C94   S    
C139  H21   S    
C69   C86   S    
Cr9   O19   S    
Cr10  O20   S    
