data_mof_unit_8316.cif
_audit_creation_date              2012-12-10T20:40:02-0500
_audit_creation_method            fapswitch 2.2
_symmetry_space_group_name_H-M    P1
_symmetry_Int_Tables_number       1
_space_group_crystal_system       triclinic
_cell_length_a                    23.380628
_cell_length_b                    10.6505
_cell_length_c                    9.90032
_cell_angle_alpha                 89.967891
_cell_angle_beta                  89.45532
_cell_angle_gamma                 90.29746
_cell_volume                      2465.18685243

loop_
_atom_site_label
_atom_site_type_symbol
_atom_type_description
_atom_site_fract_x
_atom_site_fract_y
_atom_site_fract_z
_atom_type_partial_charge
C1    C     C_R   0.497929 0.259970 0.500061 0.892143
C2    C     C_R   0.121236 0.589315 0.431401 0.523778
C3    C     C_R   0.234935 0.566815 0.582069 -0.084024
C4    C     C_R   0.389564 0.501583 0.500509 0.856407
C5    C     C_R   0.294267 0.576821 0.586606 0.409087
C6    C     C_R   0.327511 0.499582 0.500024 -0.157598
C7    C     C_R   0.300796 0.417433 0.409488 -0.264837
C8    C     C_R   0.241725 0.411277 0.403717 -0.093665
C9    C     C_R   0.208794 0.486061 0.489606 0.212722
C10   C     C_R   0.757450 0.424347 0.373708 -0.095164
C11   C     C_R   0.698497 0.428153 0.387890 -0.278016
C12   C     C_R   0.968472 0.266886 0.530165 -0.159639
C13   C     C_R   0.673069 0.495864 0.494233 -0.053087
C14   C     C_R   0.707779 0.560663 0.587927 0.164966
C15   C     C_R   0.767134 0.556016 0.571912 -0.099720
C16   C     C_R   0.497536 0.739896 0.500126 0.866578
C17   C     C_R   0.791622 0.488498 0.465407 0.276953
C18   C     C_R   0.484036 0.063870 0.622362 0.091436
C19   C     C_R   0.487538 0.128533 0.500358 -0.107706
C20   C     C_R   0.478518 0.064530 0.378539 -0.214458
C21   C     C_R   0.478144 0.934759 0.378745 -0.212435
C22   C     C_R   0.486574 0.870881 0.500881 -0.138804
C23   C     C_R   0.027743 0.266906 0.537023 -0.161291
C24   C     C_R   0.482830 0.935662 0.623065 0.148307
C25   C     C_3   0.518917 0.928670 0.747378 -0.029315
C26   C     C_3   0.520681 0.071565 0.745106 -0.474118
C27   C     C_R   0.455521 0.447710 0.071974 0.142441
C28   C     C_R   0.610658 0.500406 0.499179 0.883766
C29   C     C_R   0.543755 0.553895 0.068840 0.211623
C30   C     C_R   0.543237 0.553084 0.925615 -0.142559
C31   C     C_R   0.456796 0.442270 0.929394 0.133113
C32   C     C_3   0.395343 0.475737 0.918451 -0.445945
C33   C     C_3   0.394572 0.493096 0.070592 -0.073241
C34   C     C_R   0.058987 0.374960 0.502250 -0.008556
C35   C     C_R   0.880672 0.590138 0.409598 0.511727
C36   C     C_R   0.879880 0.377789 0.488635 0.506060
C37   C     C_R   0.939373 0.375085 0.488935 -0.003872
C38   C     C_R   0.970173 0.484085 0.450666 -0.057240
C39   C     C_R   0.941073 0.593710 0.408073 -0.036753
C40   C     C_3   0.683179 0.635718 0.703127 -0.896327
C41   C     C_3   0.486324 0.874430 0.869260 -0.859289
C42   C     C_3   0.592495 0.621381 0.134998 -0.815966
C43   C     C_3   0.386964 0.632273 0.108563 -0.770273
C44   C     C_3   0.947022 0.822521 0.320031 -0.763226
C45   C     C_R   0.030270 0.483305 0.457350 -0.021138
C46   C     C_R   0.061662 0.591035 0.420918 -0.064310
C47   C     C_R   0.033302 0.698181 0.375692 -0.149971
C48   C     C_R   0.973565 0.701740 0.368660 0.166241
C49   C     C_R   0.118522 0.378084 0.512713 0.515101
H1    H     H_    0.945514 0.182308 0.559149 0.191236
H2    H     H_    0.576649 0.599813 0.868732 0.157554
H3    H     H_    0.388670 0.563279 0.859577 0.252590
H4    H     H_    0.369087 0.394595 0.884399 0.186364
H5    H     H_    0.364363 0.428297 0.123191 0.172192
H6    H     H_    0.057887 0.780650 0.346846 0.195235
H7    H     H_    0.208852 0.625375 0.647220 0.169266
H8    H     H_    0.325784 0.357430 0.343487 0.163715
H9    H     H_    0.221423 0.349231 0.331778 0.160873
H10   H     H_    0.776663 0.371924 0.291464 0.151252
H11   H     H_    0.649739 0.700622 0.666144 0.234767
H12   H     H_    0.672607 0.377536 0.315621 0.167168
H13   H     H_    0.664975 0.570273 0.779345 0.249046
H14   H     H_    0.716431 0.693251 0.753788 0.239482
H15   H     H_    0.512228 0.886787 0.961769 0.236761
H16   H     H_    0.444427 0.921591 0.884142 0.249692
H17   H     H_    0.478391 0.772754 0.854221 0.261264
H18   H     H_    0.577232 0.679993 0.219827 0.271544
H19   H     H_    0.624853 0.552543 0.168108 0.248414
H20   H     H_    0.614429 0.686329 0.063199 0.198727
H21   H     H_    0.390280 0.647548 0.218433 0.264611
H22   H     H_    0.419658 0.692227 0.057481 0.227529
H23   H     H_    0.794806 0.604484 0.642186 0.139388
H24   H     H_    0.343901 0.663881 0.077124 0.249119
H25   H     H_    0.921497 0.804613 0.227981 0.266983
H26   H     H_    0.919876 0.863671 0.401083 0.268323
H27   H     H_    0.979754 0.894404 0.292761 0.207703
H28   H     H_    0.356663 0.686411 0.642564 0.332888
H29   H     H_    0.476319 0.113388 0.282730 0.170450
H30   H     H_    0.475917 0.885791 0.283002 0.173369
H31   H     H_    0.561299 0.884431 0.728947 0.166184
H32   H     H_    0.498125 0.117674 0.831039 0.213398
H33   H     H_    0.564014 0.110157 0.722419 0.186432
H34   H     H_    0.048904 0.182440 0.570818 0.194214
N1    N     N_R   0.852235 0.484568 0.451804 -0.353818
N2    N     N_R   0.148106 0.484482 0.478235 -0.347183
N3    N     N_R   0.499610 0.499140 0.142800 -0.104689
N4    N     N_R   0.499610 0.499180 0.857150 -0.121416
O1    O     O_R   0.500010 0.316790 0.614690 -0.606782
O2    O     O_R   0.583850 0.500060 0.614640 -0.611157
O3    O     O_R   0.583840 0.500020 0.385300 -0.622555
O4    O     O_2   0.849946 0.690399 0.370810 -0.562050
O5    O     O_3   0.317240 0.665601 0.672315 -0.769707
O6    O     O_2   0.849594 0.275500 0.527646 -0.557406
O7    O     O_2   0.146689 0.276408 0.558287 -0.550198
O8    O     O_2   0.152252 0.691266 0.394680 -0.552083
O9    O     O_R   0.500000 0.316760 0.385350 -0.622933
O10   O     O_R   0.416160 0.499980 0.614700 -0.616516
O11   O     O_R   0.416150 0.499940 0.385360 -0.620742
O12   O     O_R   0.500000 0.683240 0.614650 -0.624001
O13   O     O_R   0.499990 0.683210 0.385310 -0.630260
Zn1   Zn    Zn3+2 0.500000 0.500020 0.653130 0.940601
Zn2   Zn    Zn3+2 0.500000 0.499980 0.346870 0.935250

loop_
_geom_bond_atom_site_label_1
_geom_bond_atom_site_label_2
_ccdc_geom_bond_type
C43   H24   S    
C30   H2    S    
H28   O5    S    
C40   H11   S    
C4    O11   A    
C29   C42   S    
C27   N3    A    
C25   H31   S    
C19   C20   A    
C18   C26   S    
O1    Zn1   S    
C7    C8    A    
C45   C46   A    
C27   C33   S    
C15   H23   S    
C12   C23   A    
C29   C30   A    
C40   H14   S    
C23   H34   S    
C18   C24   A    
C21   C22   A    
C36   C37   A    
O9    Zn2   S    
C38   C39   A    
C10   C17   A    
C40   H13   S    
C2    N2    A    
C18   C19   A    
C12   C37   A    
C44   H27   S    
O3    Zn2   S    
C38   C45   A    
C8    H9    S    
N4    Zn1   S    
C36   O6    S    
C32   H3    S    
C31   C32   S    
C8    C9    A    
C43   H22   S    
C13   C28   S    
C28   O2    A    
C49   O7    S    
C9    N2    S    
C1    O1    A    
C26   H33   S    
C4    O10   A    
C42   H19   S    
C1    C19   S    
C31   N4    A    
C27   C31   A    
C33   C43   S    
C49   N2    A    
C24   C25   S    
C4    C6    S    
C25   C41   S    
C16   O13   A    
C41   H16   S    
C3    C5    A    
C25   C26   S    
O11   Zn2   S    
C42   H20   S    
C2    C46   A    
C44   H26   S    
C35   C39   A    
C37   C38   A    
C3    C9    A    
C3    H7    S    
C47   C48   A    
C23   C34   A    
C21   H30   S    
O13   Zn2   S    
C34   C45   A    
C44   H25   S    
C29   N3    A    
C41   H17   S    
O12   Zn1   S    
C43   H21   S    
C42   H18   S    
C22   C24   A    
N3    Zn2   S    
C32   H4    S    
C47   H6    S    
C33   H5    S    
C15   C17   A    
C46   C47   A    
C2    O8    S    
C34   C49   A    
C16   C22   S    
O2    Zn1   S    
C11   H12   S    
C12   H1    S    
C35   N1    A    
C16   O12   A    
C6    C7    A    
C26   H32   S    
C20   H29   S    
C17   N1    S    
C32   C33   S    
C10   H10   S    
C11   C13   A    
C5    C6    A    
C36   N1    A    
C1    O9    A    
C5    O5    S    
C10   C11   A    
C14   C40   S    
C20   C21   A    
C14   C15   A    
C28   O3    A    
C41   H15   S    
C30   N4    A    
C13   C14   A    
C7    H8    S    
O10   Zn1   S    
C44   C48   S    
C39   C48   A    
C35   O4    S    
