data_mof_unit_41356.cif
_audit_creation_date              2012-12-11T15:20:35-0500
_audit_creation_method            fapswitch 2.2
_symmetry_space_group_name_H-M    P1
_symmetry_Int_Tables_number       1
_space_group_crystal_system       triclinic
_cell_length_a                    21.625062
_cell_length_b                    7.240038
_cell_length_c                    19.923608
_cell_angle_alpha                 90.001191
_cell_angle_beta                  87.515086
_cell_angle_gamma                 90.000024
_cell_volume                      3116.43177502

loop_
_atom_site_label
_atom_site_type_symbol
_atom_type_description
_atom_site_fract_x
_atom_site_fract_y
_atom_site_fract_z
_atom_type_partial_charge
O1    O     O_R   0.688010 0.379840 0.189360 -0.538720
O2    O     O_R   0.311990 0.620160 0.810640 -0.538711
O3    O     O_R   0.811990 0.879840 0.310640 -0.538706
O4    O     O_R   0.188010 0.120160 0.689360 -0.538716
O5    O     O_R   0.808630 0.708850 0.184280 -0.520658
O6    O     O_R   0.191370 0.291150 0.815720 -0.520659
O7    O     O_R   0.691370 0.208850 0.315720 -0.520659
O8    O     O_R   0.308630 0.791150 0.684280 -0.520657
C1    C     C_R   0.830440 0.540969 0.166667 0.710162
C2    C     C_R   0.169560 0.459031 0.833333 0.710166
C3    C     C_R   0.669560 0.040971 0.333333 0.710171
C4    C     C_R   0.330440 0.959029 0.666667 0.710171
O9    O     O_R   0.688260 0.709510 0.181570 -0.524631
O10   O     O_R   0.311740 0.290490 0.818430 -0.524634
O11   O     O_R   0.811740 0.209510 0.318430 -0.524637
O12   O     O_R   0.188260 0.790490 0.681570 -0.524635
O13   O     O_R   0.690760 0.880550 0.307920 -0.521386
O14   O     O_R   0.309240 0.119450 0.692080 -0.521389
O15   O     O_R   0.809240 0.380550 0.192080 -0.521390
O16   O     O_R   0.190760 0.619450 0.807920 -0.521389
C5    C     C_R   0.669360 0.540948 0.164801 0.696234
C6    C     C_R   0.330639 0.459052 0.835199 0.696248
C7    C     C_R   0.830641 0.040952 0.335197 0.696251
C8    C     C_R   0.169359 0.959048 0.664803 0.696239
O17   O     O_3   0.750960 0.546580 0.291460 -0.362150
O18   O     O_3   0.249040 0.453420 0.708540 -0.362155
O19   O     O_3   0.749040 0.046580 0.208540 -0.362155
O20   O     O_3   0.250960 0.953420 0.791460 -0.362151
V1    V     V_3+5 0.749820 0.821150 0.242310 1.426654
V2    V     V_3+5 0.250180 0.178850 0.757690 1.426639
V3    V     V_3+5 0.750180 0.321150 0.257690 1.426637
V4    V     V_3+5 0.249820 0.678850 0.742310 1.426647
C9    C     C_R   0.075592 0.105094 0.621277 -0.264200
C10   C     C_R   0.924411 0.894921 0.378719 -0.264206
C11   C     C_R   0.424399 0.605111 0.878734 -0.264203
C12   C     C_R   0.575604 0.394866 0.121262 -0.264180
C13   C     C_R   0.121203 0.968805 0.613716 -0.121556
C14   C     C_R   0.878793 0.031191 0.386286 -0.121577
C15   C     C_R   0.378788 0.468822 0.886292 -0.121575
C16   C     C_R   0.621208 0.531181 0.113711 -0.121534
C17   C     C_R   0.119822 0.845043 0.558678 -0.034476
C18   C     C_R   0.880165 0.154924 0.441334 -0.034525
C19   C     C_R   0.380163 0.345078 0.941334 -0.034500
C20   C     C_R   0.619823 0.654952 0.058678 -0.034447
C21   C     C_R   0.071317 0.858293 0.512862 0.041936
C22   C     C_R   0.928665 0.141657 0.487156 0.041891
C23   C     C_R   0.428666 0.358337 0.987153 0.041927
C24   C     C_R   0.571318 0.641699 0.012863 0.041982
C25   C     C_R   0.024353 0.993636 0.522745 0.027932
C26   C     C_R   0.975630 0.006323 0.477273 0.027922
C27   C     C_R   0.475630 0.493675 0.977273 0.027899
C28   C     C_R   0.524355 0.506350 0.022742 0.027911
C29   C     C_R   0.026268 0.116985 0.577769 0.046802
C30   C     C_R   0.973723 0.883001 0.422241 0.046809
C31   C     C_R   0.473718 0.617016 0.922249 0.046794
C32   C     C_R   0.526277 0.382979 0.077758 0.046775
C33   C     C_R   0.068984 0.739833 0.456997 -0.235114
C34   C     C_R   0.930995 0.260109 0.543022 -0.235148
C35   C     C_R   0.431001 0.239870 0.043012 -0.235169
C36   C     C_R   0.568983 0.760163 0.957002 -0.235130
C37   C     C_R   0.021166 0.749921 0.412105 -0.009699
C38   C     C_R   0.978822 0.250064 0.587906 -0.009692
C39   C     C_R   0.478833 0.249885 0.087891 -0.009707
C40   C     C_R   0.521163 0.750094 0.912113 -0.009714
H1    H     H_    0.078701 0.200963 0.662574 0.148611
H2    H     H_    0.921320 0.799094 0.337404 0.148619
H3    H     H_    0.421296 0.700966 0.837433 0.148627
H4    H     H_    0.578725 0.298970 0.162547 0.148604
H5    H     H_    0.104888 0.638253 0.446948 0.146465
H6    H     H_    0.895087 0.361674 0.553071 0.146459
H7    H     H_    0.395090 0.138312 0.053061 0.146448
H8    H     H_    0.604890 0.861734 0.946953 0.146459
C41   C     C_1   0.382680 0.969101 0.614556 -0.214688
C42   C     C_1   0.617321 0.030898 0.385445 -0.214721
C43   C     C_1   0.117321 0.469107 0.885444 -0.214707
C44   C     C_1   0.882680 0.530894 0.114557 -0.214677
C45   C     C_1   0.426278 0.979877 0.571773 -0.025276
C46   C     C_1   0.573724 0.020122 0.428228 -0.025320
C47   C     C_1   0.073724 0.479883 0.928228 -0.025300
C48   C     C_1   0.926278 0.520119 0.071774 -0.025259
C49   C     C_1   0.478121 0.993934 0.521277 -0.016760
C50   C     C_1   0.521881 0.006064 0.478725 -0.016761
C51   C     C_1   0.021881 0.493937 0.978725 -0.016776
C52   C     C_1   0.978122 0.506065 0.021278 -0.016775
C53   C     C_R   0.170589 0.708626 0.547604 0.095418
C54   C     C_R   0.159212 0.519094 0.556790 -0.115572
C55   C     C_R   0.207308 0.391546 0.546933 -0.080755
C56   C     C_R   0.267080 0.452321 0.528947 -0.094836
C57   C     C_R   0.278791 0.640821 0.520143 -0.108029
C58   C     C_R   0.230728 0.768793 0.529232 -0.125095
H9    H     H_    0.113146 0.470893 0.571185 0.114259
H10   H     H_    0.198378 0.245624 0.553240 0.105108
H11   H     H_    0.304289 0.353299 0.521794 0.100730
H12   H     H_    0.325112 0.687799 0.506275 0.111777
H13   H     H_    0.240351 0.914531 0.522347 0.080340
C59   C     C_R   0.829401 0.291349 0.452403 0.095435
C60   C     C_R   0.769257 0.231193 0.470761 -0.125074
C61   C     C_R   0.721197 0.359175 0.479846 -0.108026
C62   C     C_R   0.732915 0.547676 0.471051 -0.094837
C63   C     C_R   0.792691 0.608440 0.453079 -0.080766
C64   C     C_R   0.840784 0.480881 0.443226 -0.115595
H14   H     H_    0.759629 0.085455 0.477639 0.080330
H15   H     H_    0.674873 0.312207 0.493704 0.111777
H16   H     H_    0.695708 0.646706 0.478201 0.100729
H17   H     H_    0.801625 0.754361 0.446777 0.105117
H18   H     H_    0.886853 0.529076 0.428839 0.114246
C65   C     C_R   0.329398 0.208651 0.952401 0.095433
C66   C     C_R   0.340782 0.019117 0.943226 -0.115614
C67   C     C_R   0.292688 0.891559 0.953076 -0.080773
C68   C     C_R   0.232911 0.952324 0.971040 -0.094828
C69   C     C_R   0.221192 0.140825 0.979832 -0.108021
C70   C     C_R   0.269253 0.268807 0.970752 -0.125065
H19   H     H_    0.386853 0.970922 0.928846 0.114249
H20   H     H_    0.301624 0.745637 0.946778 0.105113
H21   H     H_    0.195703 0.853295 0.978186 0.100722
H22   H     H_    0.174867 0.187795 0.993683 0.111770
H23   H     H_    0.259623 0.414545 0.977627 0.080316
C71   C     C_R   0.670589 0.791374 0.047607 0.095409
C72   C     C_R   0.730731 0.731214 0.029243 -0.125079
C73   C     C_R   0.778792 0.859193 0.020155 -0.108020
C74   C     C_R   0.767077 0.047694 0.028953 -0.094827
C75   C     C_R   0.707302 0.108462 0.046931 -0.080771
C76   C     C_R   0.659208 0.980906 0.056788 -0.115586
H24   H     H_    0.740359 0.585475 0.022362 0.080323
H25   H     H_    0.825116 0.812220 0.006293 0.111768
H26   H     H_    0.804285 0.146721 0.021801 0.100722
H27   H     H_    0.698368 0.254384 0.053234 0.105109
H28   H     H_    0.613139 0.029102 0.071178 0.114272
C77   C     C_R   0.022616 0.617895 0.355072 0.093433
C78   C     C_R   0.028277 0.681311 0.288379 -0.142041
C79   C     C_R   0.028674 0.555731 0.235027 -0.115397
C80   C     C_R   0.024520 0.366227 0.247857 -0.099162
C81   C     C_R   0.020416 0.301997 0.314051 -0.109703
C82   C     C_R   0.019641 0.427105 0.367522 -0.134183
H29   H     H_    0.031795 0.827740 0.277797 0.103446
H30   H     H_    0.032290 0.605299 0.183741 0.117867
H31   H     H_    0.024878 0.269138 0.206528 0.106797
H32   H     H_    0.017993 0.155311 0.323886 0.119178
H33   H     H_    0.016517 0.375847 0.418586 0.121051
C83   C     C_R   0.977382 0.382169 0.644918 0.093427
C84   C     C_R   0.980264 0.572929 0.632437 -0.134155
C85   C     C_R   0.979486 0.698119 0.685880 -0.109674
C86   C     C_R   0.975484 0.634007 0.752079 -0.099206
C87   C     C_R   0.971425 0.444537 0.764944 -0.115421
C88   C     C_R   0.971811 0.318869 0.711621 -0.142073
H34   H     H_    0.983314 0.624105 0.581368 0.121035
H35   H     H_    0.981829 0.844778 0.676020 0.119206
H36   H     H_    0.975130 0.731162 0.793386 0.106794
H37   H     H_    0.967889 0.395062 0.816235 0.117912
H38   H     H_    0.968359 0.172464 0.722233 0.103442
C89   C     C_R   0.477398 0.117726 0.144888 0.093441
C90   C     C_R   0.471896 0.180966 0.211602 -0.142095
C91   C     C_R   0.471504 0.055245 0.264908 -0.115432
C92   C     C_R   0.475476 0.865779 0.252014 -0.099205
C93   C     C_R   0.479403 0.801726 0.185806 -0.109638
C94   C     C_R   0.480198 0.926968 0.132380 -0.134137
H39   H     H_    0.468504 0.327367 0.222239 0.103424
H40   H     H_    0.468026 0.104677 0.316207 0.117927
H41   H     H_    0.475111 0.768585 0.293308 0.106782
H42   H     H_    0.481673 0.655075 0.175924 0.119215
H43   H     H_    0.483193 0.875830 0.081303 0.121021
C95   C     C_R   0.522610 0.882149 0.855089 0.093420
C96   C     C_R   0.519680 0.072915 0.867548 -0.134168
C97   C     C_R   0.520455 0.198051 0.814090 -0.109687
C98   C     C_R   0.524507 0.133878 0.747899 -0.099209
C99   C     C_R   0.528614 0.944401 0.735057 -0.115421
C100  C     C_R   0.528227 0.818788 0.788396 -0.142048
H44   H     H_    0.516592 0.124136 0.918611 0.121054
H45   H     H_    0.518069 0.344717 0.823933 0.119197
H46   H     H_    0.524860 0.230991 0.706580 0.106802
H47   H     H_    0.532188 0.894879 0.683773 0.117899
H48   H     H_    0.531714 0.672378 0.777802 0.103454

loop_
_geom_bond_atom_site_label_1
_geom_bond_atom_site_label_2
_ccdc_geom_bond_type
C34   C38   A    
C55   C56   A    
O1    C5    A    
C98   C99   A    
C11   H3    S    
O19   V1    S    
O13   V1    S    
C65   C70   A    
C75   H27   S    
O3    C7    A    
C96   C97   A    
C48   C52   S    
O15   V3    S    
C10   H2    S    
C49   C50   T    
C9    H1    S    
C58   H13   S    
C72   H24   S    
O7    C3    A    
C21   C33   A    
C63   H17   S    
C26   C30   A    
C18   C59   S    
O9    V1    S    
C97   C98   A    
C86   C87   A    
C77   C78   A    
C24   C28   A    
C54   H9    S    
C70   H23   S    
O4    C8    A    
C36   H8    S    
C61   H15   S    
C61   C62   A    
C60   C61   A    
O1    V3    S    
C66   C67   A    
O2    V4    S    
C18   C22   A    
C91   H40   S    
O3    V1    S    
C71   C72   A    
C68   C69   A    
C1    O15   A    
C69   C70   A    
C2    O16   A    
C80   C81   A    
O2    C6    A    
C89   C90   A    
C69   H22   S    
O14   V2    S    
C1    C44   S    
C20   C71   S    
C16   C20   A    
C60   H14   S    
C37   C77   S    
O11   C7    A    
C62   H16   S    
C81   H32   S    
O12   C8    A    
C10   C14   A    
C4    C41   S    
C22   C34   A    
C97   H45   S    
O10   V2    S    
C85   H35   S    
C24   C36   A    
O5    V1    S    
C9    C29   A    
C86   H36   S    
O7    V3    S    
C11   C31   A    
C27   C28   A    
O8    V4    S    
C44   C48   T    
C12   C16   A    
C59   C64   A    
C83   C84   A    
C40   C95   S    
C79   H30   S    
C82   H33   S    
C56   H11   S    
C73   H25   S    
C34   H6    S    
C15   C19   A    
C80   H31   S    
C53   C54   A    
C9    C13   A    
C95   C100  A    
C66   H19   S    
C11   C15   A    
C59   C60   A    
O5    C1    A    
C87   H37   S    
C12   C32   A    
C2    C43   S    
C46   C50   S    
C51   C52   T    
C45   C49   S    
O8    C4    A    
C31   C40   A    
C8    C13   S    
C74   C75   A    
C32   C39   A    
O9    C5    A    
C19   C65   S    
C89   C94   A    
C56   C57   A    
C72   C73   A    
C33   C37   A    
C39   C89   S    
C92   C93   A    
C84   H34   S    
C67   H20   S    
O6    V2    S    
C78   H29   S    
C94   H43   S    
C10   C30   A    
C99   C100  A    
C65   C66   A    
C4    O14   A    
C79   C80   A    
C57   C58   A    
C92   H41   S    
C73   C74   A    
C95   C96   A    
O16   V4    S    
C64   H18   S    
C90   H39   S    
C3    O13   A    
C17   C21   A    
C93   H42   S    
C54   C55   A    
O17   V3    S    
C88   H38   S    
C87   C88   A    
C3    C42   S    
C83   C88   A    
C57   H12   S    
C23   C27   A    
C53   C58   A    
C12   H4    S    
O11   V3    S    
C100  H48   S    
O18   V4    S    
C30   C37   A    
O12   V4    S    
C7    C14   S    
C17   C53   S    
C22   C26   A    
C35   C39   A    
C62   C63   A    
C36   C40   A    
C33   H5    S    
O10   C6    A    
O20   V2    S    
C96   H44   S    
C75   C76   A    
C74   H26   S    
C84   C85   A    
C47   C51   S    
C76   H28   S    
C81   C82   A    
C5    C16   S    
C43   C47   T    
C25   C29   A    
C6    C15   S    
C63   C64   A    
C21   C25   A    
C78   C79   A    
C27   C31   A    
C71   C76   A    
C13   C17   A    
O6    C2    A    
C23   C35   A    
C77   C82   A    
C14   C18   A    
C28   C32   A    
C99   H47   S    
C90   C91   A    
C29   C38   A    
C25   C26   A    
C42   C46   T    
C67   C68   A    
C93   C94   A    
C41   C45   T    
C85   C86   A    
C38   C83   S    
C91   C92   A    
C55   H10   S    
C19   C23   A    
C68   H21   S    
C98   H46   S    
O4    V2    S    
C20   C24   A    
C35   H7    S    
