data_mof_unit_58008.cif
_audit_creation_date              2012-12-10T18:55:59-0500
_audit_creation_method            fapswitch 2.2
_symmetry_space_group_name_H-M    P1
_symmetry_Int_Tables_number       1
_space_group_crystal_system       triclinic
_cell_length_a                    10.746883
_cell_length_b                    9.915226
_cell_length_c                    15.113995
_cell_angle_alpha                 89.99692
_cell_angle_beta                  92.977605
_cell_angle_gamma                 90.000639
_cell_volume                      1608.33932656

loop_
_atom_site_label
_atom_site_type_symbol
_atom_type_description
_atom_site_fract_x
_atom_site_fract_y
_atom_site_fract_z
_atom_type_partial_charge
C1    C     C_R   0.260195 0.500340 0.501969 0.856714
C2    C     C_R   0.936051 0.624852 0.498564 -0.187402
C3    C     C_R   0.936445 0.379855 0.495058 -0.214227
C4    C     C_R   0.063960 0.624849 0.501568 -0.187396
C5    C     C_R   0.485219 0.615552 0.094877 -0.175277
C6    C     C_R   0.469523 0.375815 0.903458 -0.179917
C7    C     C_R   0.514383 0.615603 0.905105 -0.175263
C8    C     C_R   0.530617 0.375886 0.096551 -0.179903
C9    C     C_R   0.496591 0.617714 0.185764 -0.215522
C10   C     C_R   0.469498 0.376594 0.811780 -0.189757
C11   C     C_R   0.503060 0.617733 0.814217 -0.215551
C12   C     C_R   0.739805 0.500342 0.498034 0.856757
C13   C     C_R   0.530688 0.376666 0.188231 -0.189790
C14   C     C_R   0.511165 0.497873 0.232955 -0.025406
C15   C     C_R   0.488789 0.497850 0.767042 -0.025456
C16   C     C_R   0.503567 0.494901 0.048628 0.124177
C17   C     C_R   0.496290 0.494899 0.951369 0.124187
C18   C     C_R   0.872341 0.501817 0.496083 -0.011668
C19   C     C_R   0.127659 0.501808 0.503923 -0.011657
C20   C     C_3   0.779797 0.152729 0.622226 -0.744228
C21   C     C_3   0.318817 0.846364 0.305845 -0.745022
C22   C     C_3   0.220316 0.152832 0.377614 -0.744016
C23   C     C_R   0.503963 0.499592 0.328249 0.852231
C24   C     C_3   0.680864 0.846445 0.694284 -0.745192
C25   C     C_R   0.496033 0.499584 0.671750 0.852271
C26   C     C_R   0.578547 0.072445 0.557496 0.156161
C27   C     C_R   0.416326 0.927856 0.446282 0.159358
C28   C     C_R   0.421459 0.072451 0.442499 0.156136
C29   C     C_R   0.583657 0.927848 0.553732 0.159381
C30   C     C_R   0.063542 0.379844 0.504824 -0.214203
H1    H     H_    0.460670 0.709482 0.062384 0.121620
H2    H     H_    0.237873 0.899699 0.273906 0.209095
H3    H     H_    0.308829 0.738921 0.286727 0.249057
H4    H     H_    0.405398 0.889708 0.280578 0.212475
H5    H     H_    0.385460 0.129525 0.311599 0.210405
H6    H     H_    0.173965 0.097918 0.321298 0.209496
H7    H     H_    0.191681 0.259715 0.370402 0.251757
H8    H     H_    0.187741 0.110490 0.440350 0.210781
H9    H     H_    0.769003 0.875966 0.576091 0.204852
H10   H     H_    0.761688 0.899918 0.726278 0.209094
H11   H     H_    0.690909 0.739038 0.713484 0.249100
H12   H     H_    0.448865 0.281844 0.935816 0.120581
H13   H     H_    0.594180 0.889725 0.719429 0.212491
H14   H     H_    0.491687 0.713328 0.218660 0.156573
H15   H     H_    0.453287 0.282901 0.776164 0.145287
H16   H     H_    0.507764 0.713363 0.781303 0.156599
H17   H     H_    0.547128 0.283019 0.223861 0.145286
H18   H     H_    0.111012 0.284584 0.512201 0.159475
H19   H     H_    0.887779 0.720568 0.497650 0.145063
H20   H     H_    0.888963 0.284612 0.487587 0.159474
H21   H     H_    0.112241 0.720563 0.502586 0.145074
H22   H     H_    0.538701 0.709599 0.937589 0.121614
H23   H     H_    0.551470 0.281971 0.064203 0.120593
H24   H     H_    0.614734 0.129580 0.688365 0.210442
H25   H     H_    0.826193 0.097672 0.678467 0.209490
H26   H     H_    0.808524 0.259576 0.629491 0.251796
H27   H     H_    0.812242 0.110467 0.559432 0.210825
H28   H     H_    0.230928 0.876057 0.424118 0.204792
N1    N     N_R   0.500000 0.857200 0.500000 -0.132532
N2    N     N_R   0.500000 0.142800 0.500000 -0.134068
N3    N     N_2   0.645804 0.144675 0.625754 -0.240420
N4    N     N_2   0.317611 0.856223 0.401187 -0.241586
N5    N     N_2   0.354312 0.144675 0.374182 -0.240424
N6    N     N_2   0.682261 0.856190 0.598942 -0.241566
O1    O     O_R   0.316770 0.614620 0.499990 -0.609169
O2    O     O_R   0.683230 0.385380 0.500010 -0.605494
O3    O     O_R   0.683230 0.614620 0.500010 -0.609209
O4    O     O_R   0.316770 0.385380 0.499990 -0.605540
O5    O     O_R   0.499990 0.614660 0.369060 -0.603733
O6    O     O_R   0.500010 0.385340 0.630940 -0.609624
O7    O     O_R   0.500010 0.614660 0.630940 -0.603686
O8    O     O_R   0.499990 0.385340 0.369060 -0.609580
Zn1   Zn    Zn3+2 0.500000 0.653120 0.500000 0.977756
Zn2   Zn    Zn3+2 0.500000 0.346880 0.500000 0.975169

loop_
_geom_bond_atom_site_label_1
_geom_bond_atom_site_label_2
_ccdc_geom_bond_type
C8    H23   S    
C6    C10   A    
C3    C30   A    
C2    C4    A    
C9    C14   A    
H28   N4    S    
C8    C13   A    
O3    Zn1   S    
C2    H19   S    
C2    C18   A    
O2    Zn2   S    
C22   H6    S    
C23   O5    A    
C1    O1    A    
C4    C19   A    
C20   H26   S    
C27   C28   A    
C25   O6    A    
C10   H15   S    
C20   H27   S    
C29   N6    S    
C6    C17   A    
C24   N6    S    
C27   N1    A    
C13   C14   A    
C7    C11   A    
H9    N6    S    
C19   C30   A    
C21   N4    S    
C24   H11   S    
C26   C29   A    
C20   H25   S    
C25   O7    A    
C30   H18   S    
O5    Zn1   S    
C27   N4    S    
C14   C23   S    
C7    H22   S    
C11   H16   S    
C11   C15   A    
C10   C15   A    
C28   N2    A    
C6    H12   S    
C21   H2    S    
C15   C25   S    
C12   O3    A    
C21   H3    S    
C4    H21   S    
O4    Zn2   S    
C3    H20   S    
C22   H8    S    
C28   N5    S    
O7    Zn1   S    
C20   N3    S    
C1    O4    A    
O1    Zn1   S    
C3    C18   A    
O8    Zn2   S    
C8    C16   A    
C1    C19   S    
C12   C18   S    
C12   O2    A    
C13   H17   S    
C24   H13   S    
N1    Zn1   S    
O6    Zn2   S    
C24   H10   S    
C5    C16   A    
H5    N5    S    
C21   H4    S    
N2    Zn2   S    
C5    H1    S    
C22   N5    S    
C22   H7    S    
C26   N2    A    
C23   O8    A    
C26   N3    S    
C29   N1    A    
C5    C9    A    
C16   C17   S    
C9    H14   S    
H24   N3    S    
C7    C17   A    
