data_mof_unit_60020.cif
_audit_creation_date              2012-10-26T21:18:47-0400
_audit_creation_method            fapswitch 2.2
_symmetry_space_group_name_H-M    P1
_symmetry_Int_Tables_number       1
_space_group_crystal_system       triclinic
_cell_length_a                    15.871591
_cell_length_b                    15.907214
_cell_length_c                    17.12736
_cell_angle_alpha                 90.832713
_cell_angle_beta                  96.502146
_cell_angle_gamma                 92.906077
_cell_volume                      4289.95665132

loop_
_atom_site_label
_atom_site_type_symbol
_atom_type_description
_atom_site_fract_x
_atom_site_fract_y
_atom_site_fract_z
_atom_type_partial_charge
C1    C     C_R   0.510408 0.500253 0.651359 0.620113
C2    C     C_R   0.447874 0.524997 0.775595 0.341997
C3    C     C_R   0.448903 0.517151 0.856278 0.419371
C4    C     C_R   0.500174 0.659807 0.500104 0.548740
C5    C     C_R   0.518289 0.481987 0.900661 0.146187
C6    C     C_R   0.586071 0.453708 0.862960 0.071034
C7    C     C_R   0.584695 0.461848 0.781220 0.296429
C8    C     C_R   0.554299 0.479271 0.144790 0.114643
C9    C     C_R   0.552115 0.471291 0.225553 0.321877
C10   C     C_R   0.486811 0.516768 0.099028 0.192203
C11   C     C_R   0.485335 0.502888 0.262515 0.010339
C12   C     C_3   0.584684 0.054895 0.548886 0.396829
C13   C     C_R   0.418912 0.541860 0.217484 0.042814
C14   C     C_R   0.419831 0.548586 0.135908 0.068518
C15   C     C_R   0.251450 0.537215 0.543550 0.074973
C16   C     C_R   0.489631 0.499965 0.348615 0.596769
C17   C     C_R   0.162528 0.535542 0.544680 0.376462
C18   C     C_R   0.108900 0.483608 0.490275 0.181155
C19   C     C_R   0.147394 0.435243 0.436516 0.066570
C20   C     C_R   0.236091 0.439779 0.436310 0.249604
C21   C     C_R   0.841235 0.461307 0.466761 0.366121
C22   C     C_R   0.752096 0.458505 0.463092 0.062872
C23   C     C_3   0.499095 0.082963 0.503172 0.089828
C24   C     C_R   0.891335 0.518406 0.519638 0.197910
C25   C     C_R   0.758593 0.565832 0.561130 0.267221
C26   C     C_R   0.848333 0.570987 0.566954 0.024476
C27   C     C_R   0.499827 0.340200 0.499927 0.551057
C28   C     C_3   0.581601 0.956012 0.552579 -0.010657
C29   C     C_3   0.420676 0.946002 0.538398 0.735436
C30   C     C_3   0.422108 0.044689 0.544337 0.452379
C31   C     C_1   0.499557 0.250748 0.500660 0.029733
C32   C     C_3   0.500443 0.916950 0.502137 -0.002178
C33   C     C_3   0.495107 0.047107 0.416872 -0.077777
C34   C     C_3   0.496363 0.949393 0.416884 -0.283531
C35   C     C_1   0.499346 0.175359 0.501673 0.065117
C36   C     C_1   0.500532 0.824713 0.501184 0.076295
C37   C     C_1   0.500474 0.749300 0.500579 0.049314
C38   C     C_R   0.515305 0.497021 0.737315 -0.059321
Cu1   Cu    Cu3+1 0.584780 0.504030 0.503820 1.075173
Cu2   Cu    Cu3+1 0.415220 0.495970 0.496180 1.020305
F1    F     F_    0.652185 0.084052 0.509581 -0.642742
F2    F     F_    0.432423 0.069401 0.623172 -0.567215
F3    F     F_    0.616375 0.432904 0.267974 -0.622355
F4    F     F_    0.649473 0.433263 0.744401 -0.604962
F5    F     F_    0.380709 0.541606 0.890451 -0.547707
F6    F     F_    0.380454 0.560121 0.734950 -0.550141
F7    F     F_    0.876964 0.408576 0.418526 -0.598242
F8    F     F_    0.130401 0.583681 0.599082 -0.571106
F9    F     F_    0.348056 0.914224 0.492255 -0.599267
F10   F     F_    0.418770 0.912665 0.612695 -0.527100
H1    H     H_    0.576706 0.937294 0.614443 0.202240
H2    H     H_    0.710717 0.943392 0.569735 0.277129
H3    H     H_    0.367214 0.039113 0.372783 0.295914
H4    H     H_    0.433366 0.067046 0.307285 0.248050
H5    H     H_    0.632373 0.387937 0.120823 0.285990
H6    H     H_    0.680952 0.484766 0.137957 0.268437
H7    H     H_    0.698678 0.393536 0.873093 0.301596
H8    H     H_    0.688506 0.464440 0.944323 0.252242
H9    H     H_    0.294222 0.549572 0.230023 0.263472
H10   H     H_    0.352484 0.641912 0.243456 0.263829
H11   H     H_    0.322969 0.545355 0.048082 0.301019
H12   H     H_    0.714602 0.414653 0.422683 0.207014
H13   H     H_    0.377768 0.639603 0.062155 0.280214
H14   H     H_    0.060995 0.338133 0.409546 0.286137
H15   H     H_    0.054342 0.418520 0.345613 0.278810
H16   H     H_    0.289090 0.432982 0.333736 0.264199
H17   H     H_    0.316547 0.354456 0.398917 0.269410
H18   H     H_    0.736450 0.607490 0.668568 0.262288
H19   H     H_    0.732577 0.681763 0.598519 0.238945
H20   H     H_    0.931972 0.670857 0.590234 0.282786
H21   H     H_    0.935795 0.597026 0.660653 0.294478
H22   H     H_    0.340223 0.140143 0.520075 0.245794
H23   H     H_    0.291578 0.577047 0.585661 0.224149
H24   H     H_    0.292335 0.048675 0.539145 0.308699
H25   H     H_    0.551618 0.929087 0.388287 0.135083
H26   H     H_    0.439553 0.920012 0.380684 0.182048
H27   H     H_    0.553217 0.071445 0.391830 0.225069
H28   H     H_    0.654587 0.068670 0.657359 0.249876
H29   H     H_    0.609217 0.156094 0.626404 0.274303
H30   H     H_    0.670969 0.940124 0.474220 0.291574
N1    N     N_2   0.520629 0.471227 0.982803 -0.139755
N2    N     N_3   0.626701 0.452070 0.110137 -0.550875
N3    N     N_3   0.655648 0.416635 0.908892 -0.538631
N4    N     N_3   0.352260 0.577543 0.255002 -0.587605
N5    N     N_3   0.351907 0.588475 0.090760 -0.586606
N6    N     N_3   0.096472 0.381562 0.379611 -0.549156
N7    N     N_3   0.268910 0.392436 0.375884 -0.549878
N8    N     N_3   0.715559 0.619121 0.609799 -0.509792
N9    N     N_3   0.894991 0.630190 0.621536 -0.608529
N10   N     N_3   0.340790 0.075334 0.509307 -0.546130
N11   N     N_2   0.485040 0.526929 0.016670 -0.149550
N12   N     N_R   0.287860 0.489910 0.490440 -0.292147
N13   N     N_2   0.017633 0.476461 0.485714 -0.136521
N14   N     N_2   0.982949 0.526632 0.527150 -0.129715
N15   N     N_R   0.712150 0.510100 0.509550 -0.262742
N16   N     N_3   0.598345 0.090887 0.629137 -0.493757
N17   N     N_3   0.659361 0.920542 0.530134 -0.618301
N18   N     N_3   0.422030 0.076082 0.365733 -0.617822
O1    O     O_R   0.579470 0.503770 0.617500 -0.421790
O2    O     O_R   0.436280 0.496960 0.611050 -0.463405
O3    O     O_R   0.571630 0.623970 0.503220 -0.490016
O4    O     O_R   0.428430 0.617160 0.496770 -0.486514
O5    O     O_R   0.563720 0.503040 0.388950 -0.456288
O6    O     O_R   0.420530 0.496230 0.382500 -0.504601
O7    O     O_R   0.571570 0.382840 0.503230 -0.482391
O8    O     O_R   0.428370 0.376030 0.496780 -0.523840

loop_
_geom_bond_atom_site_label_1
_geom_bond_atom_site_label_2
_ccdc_geom_bond_type
C28   N17   S    
N13   N14   D    
H30   N17   S    
C11   C13   A    
C22   N15   A    
C19   C20   A    
C17   F8    S    
C30   N10   S    
C19   N6    S    
C1    O1    A    
H15   N6    S    
C29   F9    S    
C2    F6    S    
C26   N9    S    
C20   N12   A    
C13   N4    S    
C12   F1    S    
C12   C28   S    
C8    N2    S    
C32   C36   S    
C36   C37   T    
C24   C26   A    
C18   C19   A    
C29   C32   S    
C5    C6    A    
C28   H1    S    
Cu2   O6    S    
C27   O7    A    
C20   N7    S    
H2    N17   S    
C5    N1    S    
Cu1   O7    S    
C33   N18   S    
C15   N12   A    
C16   O6    A    
H28   N16   S    
C8    C9    A    
C23   C33   S    
H21   N9    S    
H7    N3    S    
C34   H25   S    
C21   C22   A    
H13   N5    S    
C1    O2    A    
H14   N6    S    
Cu1   O3    S    
C29   F10   S    
C9    F3    S    
C27   C31   S    
C23   C30   S    
C28   C32   S    
H9    N4    S    
C10   C14   A    
Cu1   Cu2   S    
C27   O8    A    
C25   C26   A    
C3    F5    S    
C25   N8    S    
C4    O4    A    
C32   C34   S    
C29   C30   S    
C24   N14   S    
C22   H12   S    
H22   N10   S    
C11   C16   S    
C2    C38   A    
C16   O5    A    
Cu1   O1    S    
C12   C23   S    
C4    O3    A    
C17   C18   A    
C7    F4    S    
Cu2   N12   S    
H5    N2    S    
Cu1   O5    S    
C9    C11   A    
Cu1   N15   S    
H19   N8    S    
H11   N5    S    
C1    C38   S    
C15   H23   S    
C10   N11   S    
C25   N15   A    
C23   C35   S    
H18   N8    S    
C31   C35   T    
H20   N9    S    
H16   N7    S    
Cu2   O8    S    
C15   C17   A    
C6    N3    S    
H4    N18   S    
C14   N5    S    
C3    C5    A    
Cu2   O2    S    
H6    N2    S    
C6    C7    A    
H3    N18   S    
H17   N7    S    
H24   N10   S    
C2    C3    A    
H29   N16   S    
H8    N3    S    
H10   N4    S    
C33   H27   S    
C7    C38   A    
C33   C34   S    
C30   F2    S    
Cu2   O4    S    
N1    N11   D    
C4    C37   S    
C8    C10   A    
C21   C24   A    
C18   N13   S    
C12   N16   S    
C13   C14   A    
C34   H26   S    
C21   F7    S    
