data_mof_unit_16993.cif
_audit_creation_date              2012-10-26T18:33:36-0400
_audit_creation_method            fapswitch 2.2
_symmetry_space_group_name_H-M    P1
_symmetry_Int_Tables_number       1
_space_group_crystal_system       triclinic
_cell_length_a                    15.068828
_cell_length_b                    13.683522
_cell_length_c                    10.740772
_cell_angle_alpha                 90.232571
_cell_angle_beta                  89.975278
_cell_angle_gamma                 90.285538
_cell_volume                      2214.64367572

loop_
_atom_site_label
_atom_site_type_symbol
_atom_type_description
_atom_site_fract_x
_atom_site_fract_y
_atom_site_fract_z
_atom_type_partial_charge
C1    C     C_R   0.328510 0.499788 0.499863 0.587002
C2    C     C_R   0.047187 0.677076 0.536178 0.262623
C3    C     C_R   0.093617 0.589004 0.517634 0.017000
C4    C     C_R   0.494953 0.499854 0.260198 0.555265
C5    C     C_R   0.046623 0.500882 0.496555 0.019818
C6    C     C_R   0.092565 0.412364 0.477211 0.020524
C7    C     C_R   0.045406 0.325242 0.456712 -0.117656
C8    C     C_R   0.952944 0.325398 0.456092 -0.129579
C9    C     C_R   0.186180 0.587282 0.519331 -0.072819
C10   C     C_R   0.231791 0.499633 0.499550 -0.005520
C11   C     C_R   0.184972 0.412401 0.478824 -0.134899
C12   C     C_3   0.583210 0.492505 0.927721 -0.288013
C13   C     C_R   0.449310 0.793542 0.584237 0.035583
C14   C     C_R   0.449307 0.206442 0.584268 0.046546
C15   C     C_R   0.549610 0.792838 0.413845 0.060441
C16   C     C_R   0.550074 0.207177 0.414392 0.070816
C17   C     C_R   0.550255 0.896139 0.409848 -0.052970
C18   C     C_R   0.551296 0.103848 0.411035 -0.047088
C19   C     C_R   0.671519 0.500200 0.499163 0.542156
C20   C     C_R   0.499634 0.948174 0.497971 -0.001784
C21   C     C_R   0.499717 0.051798 0.498066 -0.002341
C22   C     C_R   0.448241 0.896502 0.585711 -0.009177
C23   C     C_R   0.814307 0.413136 0.476669 -0.136805
C24   C     C_R   0.448163 0.103452 0.585638 0.001777
C25   C     C_R   0.599359 0.948291 0.319503 0.248114
C26   C     C_R   0.602644 0.051719 0.323186 0.254785
C27   C     C_R   0.396822 0.051234 0.672297 -0.136312
C28   C     C_R   0.396908 0.948660 0.672388 -0.145060
C29   C     C_R   0.493591 0.500224 0.739691 0.581043
C30   C     C_3   0.442504 0.595644 0.074198 -0.112850
C31   C     C_3   0.441521 0.404607 0.071842 -0.093178
C32   C     C_3   0.447890 0.600132 0.929148 -0.090163
C33   C     C_3   0.432483 0.410499 0.927055 -0.094948
C34   C     C_R   0.768335 0.500587 0.497268 -0.008868
C35   C     C_3   0.584553 0.499716 0.070824 -0.287723
C36   C     C_3   0.488311 0.499812 0.122554 -0.021764
C37   C     C_3   0.486635 0.501026 0.877432 0.035501
C38   C     C_3   0.104083 0.815548 0.451296 -0.022304
C39   C     C_3   0.166558 0.901226 0.475568 -0.353684
C40   C     C_3   0.592390 0.885657 0.123998 -0.001645
C41   C     C_3   0.639992 0.821694 0.029345 -0.378867
C42   C     C_3   0.739179 0.113936 0.281247 -0.009471
C43   C     C_3   0.790525 0.181062 0.194353 -0.372571
C44   C     C_2   0.350192 0.611059 0.127082 0.185721
C45   C     C_R   0.815021 0.588312 0.516141 -0.134936
C46   C     C_2   0.358486 0.373439 0.141902 0.278617
C47   C     C_2   0.364342 0.639870 0.867962 0.227444
C48   C     C_2   0.339285 0.402982 0.873877 0.274382
C49   C     C_R   0.907488 0.589071 0.515778 -0.033265
C50   C     C_R   0.953613 0.500973 0.495679 0.050276
C51   C     C_R   0.906725 0.412703 0.475769 0.024393
C52   C     C_R   0.954371 0.676295 0.536387 -0.110953
Cu1   Cu    Cu3+1 0.499990 0.597420 0.500010 0.986758
Cu2   Cu    Cu3+1 0.499990 0.402580 0.500010 0.954266
H1    H     H_    0.482835 0.658796 0.108753 0.142369
H2    H     H_    0.589074 0.249046 0.348718 0.158799
H3    H     H_    0.356717 0.089738 0.740165 0.110802
H4    H     H_    0.356822 0.910107 0.740253 0.109820
H5    H     H_    0.498415 0.657328 0.907194 0.078487
H6    H     H_    0.465772 0.343626 0.890646 0.079883
H7    H     H_    0.620094 0.567614 0.099740 0.121731
H8    H     H_    0.622849 0.437283 0.109226 0.126775
H9    H     H_    0.626097 0.551334 0.888447 0.124793
H10   H     H_    0.612650 0.421586 0.898253 0.132965
H11   H     H_    0.778282 0.345349 0.461156 0.117354
H12   H     H_    0.489277 0.343971 0.089289 0.152935
H13   H     H_    0.779493 0.655928 0.532235 0.129536
H14   H     H_    0.919163 0.743958 0.553296 0.121120
H15   H     H_    0.039402 0.844492 0.418024 0.131486
H16   H     H_    0.134211 0.769240 0.376860 0.147466
H17   H     H_    0.232035 0.874043 0.507528 0.169894
H18   H     H_    0.176140 0.943652 0.388640 0.113964
H19   H     H_    0.138283 0.950014 0.548165 0.160135
H20   H     H_    0.578020 0.957380 0.079883 0.175734
H21   H     H_    0.528576 0.848821 0.148548 0.122919
H22   H     H_    0.653877 0.748967 0.070275 0.143761
H23   H     H_    0.223056 0.654233 0.536130 0.188061
H24   H     H_    0.597706 0.811692 0.945550 0.090592
H25   H     H_    0.703550 0.856638 0.001239 0.172201
H26   H     H_    0.773778 0.042297 0.285084 0.171109
H27   H     H_    0.739484 0.148020 0.375790 0.100145
H28   H     H_    0.758439 0.253940 0.191211 0.148828
H29   H     H_    0.859680 0.190075 0.228302 0.098237
H30   H     H_    0.792052 0.149351 0.099029 0.170702
H31   H     H_    0.293309 0.573806 0.087588 0.162905
H32   H     H_    0.304610 0.423380 0.159157 0.134361
H33   H     H_    0.338328 0.709452 0.899805 0.100584
H34   H     H_    0.220346 0.344607 0.463268 0.143104
H35   H     H_    0.329605 0.367172 0.784574 0.113655
H36   H     H_    0.080039 0.256980 0.441655 0.114519
H37   H     H_    0.917582 0.257243 0.440856 0.098778
H38   H     H_    0.409677 0.752911 0.650287 0.142013
H39   H     H_    0.409796 0.247099 0.650530 0.102753
H40   H     H_    0.588618 0.751041 0.348115 0.158594
N1    N     N_R   0.499930 0.743810 0.499950 -0.244095
N2    N     N_R   0.499930 0.256190 0.499950 -0.242159
O1    O     O_R   0.370250 0.582280 0.500040 -0.463767
O2    O     O_3   0.647112 0.898496 0.229642 -0.565700
O3    O     O_3   0.652034 0.101680 0.235315 -0.558936
O4    O     O_2   0.338326 0.668775 0.212423 -0.511836
O5    O     O_2   0.351939 0.290429 0.182364 -0.503488
O6    O     O_2   0.326954 0.598090 0.782099 -0.484241
O7    O     O_2   0.275133 0.438757 0.925873 -0.505212
O8    O     O_R   0.370250 0.417720 0.500040 -0.509499
O9    O     O_R   0.499970 0.582270 0.317700 -0.487579
O10   O     O_R   0.499970 0.417730 0.317700 -0.500329
O11   O     O_R   0.629730 0.582260 0.499980 -0.517372
O12   O     O_R   0.629730 0.417740 0.499980 -0.515730
O13   O     O_R   0.500000 0.582270 0.682320 -0.493535
O14   O     O_R   0.500000 0.417730 0.682320 -0.533516
O15   O     O_3   0.092216 0.762914 0.562869 -0.560512

loop_
_geom_bond_atom_site_label_1
_geom_bond_atom_site_label_2
_ccdc_geom_bond_type
C31   H12   S    
C38   H16   S    
C42   H26   S    
Cu1   N1    S    
C18   C21   A    
C43   H29   S    
C35   C36   S    
C18   C26   A    
C24   C27   A    
C15   H40   S    
C4    C36   S    
C7    C8    A    
Cu1   Cu2   S    
C13   N1    A    
C29   O13   A    
C15   N1    A    
C38   C39   S    
C12   H10   S    
C17   C20   A    
Cu2   O14   S    
C14   C24   A    
C12   C37   S    
C31   C46   S    
C45   H13   S    
C39   H18   S    
C31   C33   S    
C9    C10   A    
C14   H39   S    
Cu2   N2    S    
C52   H14   S    
C26   O3    S    
C19   O12   A    
C49   C52   A    
C38   H15   S    
C47   O6    D    
C22   C28   A    
C43   H30   S    
C30   C44   S    
C42   H27   S    
C14   N2    A    
C46   O5    D    
C2    O15   S    
C16   N2    A    
Cu2   O10   S    
C29   O14   A    
C27   H3    S    
C1    O1    A    
C6    C11   A    
C34   C45   A    
C12   H9    S    
C44   O4    D    
Cu1   O1    S    
C25   C26   A    
C7    H36   S    
C4    O10   A    
C33   C37   S    
C47   H33   S    
C30   C36   S    
C16   H2    S    
C3    C9    A    
Cu1   O11   S    
C23   C51   A    
C1    O8    A    
C45   C49   A    
C11   H34   S    
C23   C34   A    
C50   C51   A    
C35   H7    S    
C8    H37   S    
C9    H23   S    
C32   C37   S    
C12   C35   S    
C8    C51   A    
C2    C52   A    
C40   C41   S    
C20   C22   A    
C33   H6    S    
C48   H35   S    
C13   H38   S    
C32   C47   S    
C5    C50   A    
C42   C43   S    
C44   H31   S    
C41   H24   S    
C4    O9    A    
Cu1   O13   S    
C15   C17   A    
C1    C10   S    
C3    C5    A    
C19   C34   S    
C41   H25   S    
C6    C7    A    
C28   H4    S    
C30   H1    S    
Cu2   O8    S    
C40   H21   S    
Cu2   O12   S    
C17   C25   A    
C23   H11   S    
C2    C3    A    
C42   O3    S    
C41   H22   S    
C30   C32   S    
C48   O7    D    
C5    C6    A    
C40   H20   S    
C13   C22   A    
C35   H8    S    
C39   H19   S    
C10   C11   A    
Cu1   O9    S    
C25   O2    S    
C20   C21   A    
C16   C18   A    
C49   C50   A    
C21   C24   A    
C29   C37   S    
C27   C28   A    
C33   C48   S    
C39   H17   S    
C31   C36   S    
C40   O2    S    
C32   H5    S    
C38   O15   S    
C43   H28   S    
C46   H32   S    
C19   O11   A    
