data_mof_unit_34494.cif
_audit_creation_date              2012-12-10T20:35:55-0500
_audit_creation_method            fapswitch 2.2
_symmetry_space_group_name_H-M    P1
_symmetry_Int_Tables_number       1
_space_group_crystal_system       triclinic
_cell_length_a                    15.755927
_cell_length_b                    10.66345
_cell_length_c                    9.943652
_cell_angle_alpha                 90.568101
_cell_angle_beta                  91.0985
_cell_angle_gamma                 90.292673
_cell_volume                      1670.24562331

loop_
_atom_site_label
_atom_site_type_symbol
_atom_type_description
_atom_site_fract_x
_atom_site_fract_y
_atom_site_fract_z
_atom_type_partial_charge
C1    C     C_R   0.502900 0.260285 0.499723 0.877037
C2    C     C_3   0.953993 0.392104 0.620513 -0.187428
C3    C     C_3   0.917068 0.483286 0.505081 -0.035999
C4    C     C_3   0.950406 0.622174 0.530145 -0.264314
C5    C     C_3   0.048063 0.627863 0.505686 -0.217812
C6    C     C_1   0.825100 0.487675 0.505094 0.104132
C7    C     C_1   0.175151 0.494636 0.496778 0.014381
C8    C     C_1   0.250199 0.497359 0.496091 -0.110927
C9    C     C_R   0.513266 0.065559 0.622531 0.150599
C10   C     C_R   0.516724 0.128968 0.500987 -0.100819
C11   C     C_R   0.536263 0.064009 0.382460 -0.190618
C12   C     C_R   0.338689 0.499837 0.498811 0.872651
C13   C     C_R   0.536277 0.934254 0.382987 -0.207254
C14   C     C_R   0.516473 0.871532 0.501954 -0.117884
C15   C     C_R   0.512770 0.937652 0.622895 0.193804
C16   C     C_3   0.447863 0.932245 0.730312 -0.428605
C17   C     C_3   0.449204 0.074224 0.731190 -0.507471
C18   C     C_R   0.439798 0.434841 0.068069 0.132204
C19   C     C_R   0.564055 0.553678 0.075959 -0.085745
C20   C     C_R   0.564228 0.555749 0.932890 0.012328
C21   C     C_R   0.439786 0.434450 0.927015 0.106653
C22   C     C_3   0.344278 0.441001 0.918949 -0.343286
C23   C     C_R   0.502729 0.739846 0.500477 0.888410
C24   C     C_3   0.344843 0.441857 0.073728 -0.351090
C25   C     C_R   0.661419 0.499424 0.501109 0.897300
C26   C     C_3   0.053135 0.421253 0.631113 -0.248911
C27   C     C_3   0.048409 0.422756 0.374543 -0.445092
C28   C     C_3   0.949481 0.439858 0.359115 -0.150675
C29   C     C_1   0.749988 0.493582 0.503741 0.010711
C30   C     C_3   0.083510 0.491224 0.502528 0.115219
H1    H     H_    0.065319 0.489732 0.714226 0.217250
H2    H     H_    0.919637 0.685777 0.456011 0.157087
H3    H     H_    0.545659 0.112252 0.288490 0.182934
H4    H     H_    0.545833 0.884126 0.289230 0.187048
H5    H     H_    0.386503 0.892513 0.692523 0.197361
H6    H     H_    0.473399 0.890882 0.824871 0.247230
H7    H     H_    0.388263 0.116312 0.696391 0.209387
H8    H     H_    0.476591 0.115432 0.825669 0.219014
H9    H     H_    0.613969 0.600622 0.133782 0.174866
H10   H     H_    0.316451 0.353135 0.875350 0.152704
H11   H     H_    0.317510 0.354685 0.116081 0.153058
H12   H     H_    0.082429 0.453954 0.283758 0.254294
H13   H     H_    0.065947 0.322542 0.384493 0.248176
H14   H     H_    0.058134 0.669581 0.405124 0.192068
N1    N     N_R   0.499430 0.499140 0.142800 -0.091670
N2    N     N_R   0.499430 0.499180 0.857150 -0.118177
O1    O     O_R   0.500010 0.316790 0.614690 -0.621205
O2    O     O_R   0.500000 0.316760 0.385350 -0.625442
O3    O     O_R   0.377150 0.500020 0.614720 -0.618705
O4    O     O_R   0.377140 0.499990 0.385380 -0.614683
O5    O     O_R   0.500000 0.683240 0.614650 -0.555528
O6    O     O_R   0.499990 0.683210 0.385310 -0.609588
O7    O     O_R   0.622860 0.500010 0.614620 -0.595780
O8    O     O_R   0.622850 0.499980 0.385280 -0.606035
Zn1   Zn    Zn3+2 0.500010 0.500020 0.653130 1.014856
Zn2   Zn    Zn3+2 0.499990 0.499980 0.346870 0.993802
C31   C     C_2   0.931654 0.254524 0.584418 0.895237
O9    O     O_2   0.857651 0.219302 0.588701 -0.565856
O10   O     O_R   0.992880 0.169139 0.541691 -0.798871
H15   H     H_    0.968282 0.083076 0.520003 0.360311
C32   C     C_2   0.913853 0.413818 0.759405 0.903350
O11   O     O_2   0.958109 0.432534 0.860255 -0.582839
O12   O     O_R   0.825846 0.404410 0.773305 -0.759929
H16   H     H_    0.807881 0.412128 0.870333 0.386138
C33   C     C_1   0.106740 0.313587 0.671343 0.334894
N3    N     N_1   0.149094 0.230221 0.703286 -0.167879
C34   C     C_2   0.634831 0.624978 0.872354 0.934245
O13   O     O_2   0.621424 0.702412 0.785316 -0.602896
O14   O     O_R   0.717024 0.609680 0.924510 -0.821699
H17   H     H_    0.759782 0.665851 0.879582 0.359425
C35   C     C_2   0.306899 0.557600 0.856756 1.046732
O15   O     O_2   0.233983 0.554339 0.812682 -0.642012
O16   O     O_R   0.353399 0.669440 0.854585 -0.773746
H18   H     H_    0.318619 0.741030 0.816917 0.330618
C36   C     C_2   0.309664 0.559989 0.137399 1.042571
O17   O     O_2   0.235663 0.561252 0.172077 -0.626051
O18   O     O_R   0.360151 0.667617 0.153645 -0.758762
H19   H     H_    0.328656 0.739544 0.197192 0.334903
C37   C     C_2   0.908486 0.318365 0.303800 0.950796
O19   O     O_2   0.831173 0.306673 0.299579 -0.579574
O20   O     O_R   0.958447 0.222618 0.250073 -0.777760
H20   H     H_    0.923482 0.148599 0.215442 0.360066
C38   C     C_2   0.927018 0.537905 0.251615 0.908013
O21   O     O_2   0.982039 0.589817 0.186743 -0.579165
O22   O     O_R   0.841799 0.567326 0.225853 -0.780978
H21   H     H_    0.834506 0.632719 0.153287 0.370012
C39   C     C_1   0.094979 0.712333 0.601264 0.239013
N4    N     N_1   0.131559 0.778244 0.675445 -0.145049
C40   C     C_1   0.925623 0.674880 0.662231 0.229431
N5    N     N_1   0.906804 0.717132 0.764988 -0.148509

loop_
_geom_bond_atom_site_label_1
_geom_bond_atom_site_label_2
_ccdc_geom_bond_type
C39   N4    T    
C18   C21   A    
O16   H18   S    
C4    C40   S    
C20   C34   S    
C19   C20   A    
C3    C6    S    
C12   O3    A    
C31   O9    D    
C2    C31   S    
C7    C8    T    
O18   H19   S    
C18   C24   S    
C3    C28   S    
C25   O7    A    
C21   N2    A    
C16   H5    S    
O22   H21   S    
C31   O10   S    
C15   C16   S    
C32   O12   S    
C28   C37   S    
N1    Zn2   S    
C16   C17   S    
N2    Zn1   S    
C9    C10   A    
C2    C32   S    
O10   H15   S    
C7    C30   S    
C13   C14   A    
C27   C30   S    
C24   H11   S    
C32   O11   D    
O20   H20   S    
O7    Zn1   S    
C25   C29   S    
O8    Zn2   S    
C34   O13   D    
C11   H3    S    
C25   O8    A    
C2    C26   S    
C37   O20   S    
C1    O1    A    
O3    Zn1   S    
O4    Zn2   S    
C37   O19   D    
C34   O14   S    
C14   C23   S    
C36   O17   D    
C23   O5    A    
C38   O21   D    
C8    C12   S    
C22   H10   S    
C1    O2    A    
C17   H7    S    
C36   O18   S    
C4    H2    S    
C19   H9    S    
C9    C17   S    
C38   O22   S    
C5    H14   S    
C26   C30   S    
C22   C24   S    
C3    C4    S    
C18   N1    A    
C22   C35   S    
O1    Zn1   S    
C5    C30   S    
O2    Zn2   S    
C26   C33   S    
C26   H1    S    
C1    C10   S    
C4    C5    S    
C12   O4    A    
C19   N1    A    
C24   C36   S    
C2    C3    S    
C9    C15   A    
C13   H4    S    
C16   H6    S    
C11   C13   A    
C27   H12   S    
C23   O6    A    
O5    Zn1   S    
C17   H8    S    
O14   H17   S    
C10   C11   A    
O12   H16   S    
C5    C39   S    
C27   H13   S    
C35   O15   D    
C6    C29   T    
C33   N3    T    
C35   O16   S    
C27   C28   S    
C14   C15   A    
C40   N5    T    
C21   C22   S    
C20   N2    A    
O6    Zn2   S    
C28   C38   S    
