data_mof_unit_9800.cif
_audit_creation_date              2012-12-10T19:11:30-0500
_audit_creation_method            fapswitch 2.2
_symmetry_space_group_name_H-M    P1
_symmetry_Int_Tables_number       1
_space_group_crystal_system       triclinic
_cell_length_a                    10.626035
_cell_length_b                    9.744912
_cell_length_c                    10.549918
_cell_angle_alpha                 88.34528
_cell_angle_beta                  89.47146
_cell_angle_gamma                 89.875981
_cell_volume                      1091.93765889

loop_
_atom_site_label
_atom_site_type_symbol
_atom_type_description
_atom_site_fract_x
_atom_site_fract_y
_atom_site_fract_z
_atom_type_partial_charge
C1    C     C_R   0.257727 0.499814 0.498831 0.844875
C2    C     C_3   0.928698 0.582598 0.380693 -0.395371
C3    C     C_3   0.399738 0.083568 0.414534 -0.234514
C4    C     C_3   0.399079 0.921712 0.415606 -0.253941
C5    C     C_3   0.620862 0.082302 0.448718 -0.274136
C6    C     C_3   0.620705 0.920147 0.448468 -0.272476
C7    C     C_3   0.480878 0.078362 0.627254 -0.092021
C8    C     C_3   0.480644 0.915028 0.627671 -0.076223
C9    C     C_R   0.497060 0.502168 0.257569 0.888915
C10   C     C_R   0.742420 0.499629 0.498501 0.834408
C11   C     C_R   0.503365 0.497868 0.742330 0.902693
C12   C     C_3   0.496233 0.506460 0.123050 -0.098925
C13   C     C_3   0.474216 0.628913 0.031585 0.024718
C14   C     C_3   0.411124 0.415863 0.044994 0.005385
C15   C     C_3   0.387473 0.538659 0.952388 -0.271377
C16   C     C_3   0.504450 0.493775 0.876877 -0.095996
C17   C     C_3   0.589527 0.584411 0.954951 0.006584
C18   C     C_3   0.526518 0.371350 0.968445 0.032436
C19   C     C_3   0.613188 0.461768 0.047594 -0.289158
C20   C     C_1   0.368226 0.138078 0.688855 0.244530
C21   C     C_1   0.366833 0.855170 0.689582 0.241524
C22   C     C_1   0.444191 0.772035 0.059093 0.180217
C23   C     C_3   0.070577 0.563922 0.620146 -0.391212
C24   C     C_1   0.311566 0.325066 0.096077 0.160626
C25   C     C_1   0.688357 0.676159 0.903901 0.145806
C26   C     C_1   0.559129 0.228571 0.942374 0.173565
C27   C     C_3   0.071744 0.349057 0.491234 -0.389344
C28   C     C_3   0.926332 0.562509 0.620752 -0.395103
C29   C     C_3   0.928870 0.348900 0.490673 -0.399084
C30   C     C_3   0.073294 0.582040 0.380296 -0.401844
C31   C     C_3   0.121253 0.498752 0.497610 0.168807
C32   C     C_3   0.878721 0.498443 0.497539 0.175343
H1    H     H_    0.295352 0.568609 0.910951 0.159201
H2    H     H_    0.561578 0.110448 0.685376 0.132121
H3    H     H_    0.560436 0.879014 0.687747 0.132725
H4    H     H_    0.700037 0.117450 0.507767 0.151142
H5    H     H_    0.699935 0.880627 0.507298 0.156030
H6    H     H_    0.705160 0.431569 0.089289 0.143544
H7    H     H_    0.103136 0.671908 0.624984 0.196198
H8    H     H_    0.107614 0.299814 0.403957 0.181711
H9    H     H_    0.106267 0.506661 0.705403 0.168004
H10   H     H_    0.104687 0.286500 0.574409 0.193328
H11   H     H_    0.891179 0.502416 0.705178 0.166717
H12   H     H_    0.894282 0.690515 0.383141 0.175118
H13   H     H_    0.893819 0.285649 0.573270 0.177008
H14   H     H_    0.890631 0.669491 0.628475 0.188671
H15   H     H_    0.895488 0.300404 0.402747 0.173234
H16   H     H_    0.108044 0.689724 0.381476 0.175092
H17   H     H_    0.109197 0.535909 0.291583 0.166456
H18   H     H_    0.893890 0.537845 0.291652 0.158391
H19   H     H_    0.413717 0.123429 0.315583 0.181033
H20   H     H_    0.411186 0.885506 0.317854 0.180147
H21   H     H_    0.305795 0.121461 0.444814 0.152078
H22   H     H_    0.305217 0.883652 0.447637 0.150726
H23   H     H_    0.639704 0.123971 0.351093 0.168086
H24   H     H_    0.639066 0.884764 0.350663 0.167081
N1    N     N_3   0.499750 0.138610 0.497240 -0.067012
N2    N     N_3   0.499750 0.861390 0.497240 -0.065081
N3    N     N_1   0.280602 0.184189 0.737930 -0.225409
N4    N     N_1   0.278237 0.809470 0.739233 -0.239571
N5    N     N_1   0.420315 0.885477 0.078188 -0.216544
N6    N     N_1   0.233116 0.253673 0.136393 -0.231280
N7    N     N_1   0.766029 0.748633 0.863710 -0.227951
N8    N     N_1   0.585695 0.115526 0.924629 -0.224457
O1    O     O_R   0.314910 0.616040 0.499970 -0.630920
O2    O     O_R   0.314910 0.383960 0.499970 -0.629709
O3    O     O_R   0.500080 0.616020 0.313900 -0.628839
O4    O     O_R   0.500080 0.383980 0.313900 -0.623826
O5    O     O_R   0.685320 0.616040 0.499930 -0.636093
O6    O     O_R   0.685320 0.383960 0.499930 -0.640175
O7    O     O_R   0.500150 0.616060 0.686000 -0.621358
O8    O     O_R   0.500150 0.383940 0.686000 -0.626688
Zn1   Zn    Zn3+2 0.500150 0.654960 0.499940 0.921343
Zn2   Zn    Zn3+2 0.500150 0.345040 0.499940 0.920021

loop_
_geom_bond_atom_site_label_1
_geom_bond_atom_site_label_2
_ccdc_geom_bond_type
C27   C29   S    
C14   C18   S    
C18   C26   S    
C7    C8    S    
C28   H14   S    
C4    H20   S    
C30   H16   S    
C29   C32   S    
C30   C31   S    
C11   O7    A    
O4    Zn2   S    
C15   C16   S    
O2    Zn2   S    
C5    H4    S    
C1    C31   S    
O1    Zn1   S    
C2    C32   S    
C18   C19   S    
C25   N7    T    
C14   C24   S    
C6    N2    S    
C26   N8    T    
C2    H18   S    
C8    N2    S    
C2    H12   S    
C16   C17   S    
O6    Zn2   S    
C1    O1    A    
O5    Zn1   S    
O3    Zn1   S    
C8    C21   S    
C27   C31   S    
C28   C32   S    
C21   N4    T    
O8    Zn2   S    
O7    Zn1   S    
C3    H19   S    
C11   O8    A    
C29   H13   S    
C8    H3    S    
C23   C31   S    
N1    Zn2   S    
C9    O3    A    
C19   H6    S    
C29   H15   S    
C11   C16   S    
C27   H8    S    
C1    O2    A    
C6    H5    S    
C23   C28   S    
C20   N3    T    
C10   O6    A    
C30   H17   S    
C12   C14   S    
C13   C15   S    
C7    H2    S    
C3    C4    S    
C3    N1    S    
C24   N6    T    
C4    H22   S    
C5    H23   S    
C6    H24   S    
C13   C17   S    
C28   H11   S    
C23   H9    S    
C5    N1    S    
C2    C30   S    
C17   C25   S    
C9    O4    A    
C22   N5    T    
C3    H21   S    
C27   H10   S    
C5    C6    S    
C23   H7    S    
C12   C19   S    
C17   C19   S    
C7    N1    S    
C13   C22   S    
C9    C12   S    
C10   O5    A    
C10   C32   S    
C12   C13   S    
C16   C18   S    
C7    C20   S    
C4    N2    S    
C14   C15   S    
C15   H1    S    
N2    Zn1   S    
