data_mof_unit_30818.cif
_audit_creation_date              2012-12-10T20:27:59-0500
_audit_creation_method            fapswitch 2.2
_symmetry_space_group_name_H-M    P1
_symmetry_Int_Tables_number       1
_space_group_crystal_system       triclinic
_cell_length_a                    12.893457
_cell_length_b                    10.694601
_cell_length_c                    9.860571
_cell_angle_alpha                 89.715208
_cell_angle_beta                  96.327297
_cell_angle_gamma                 89.93506
_cell_volume                      1351.37684395

loop_
_atom_site_label
_atom_site_type_symbol
_atom_type_description
_atom_site_fract_x
_atom_site_fract_y
_atom_site_fract_z
_atom_type_partial_charge
C1    C     C_R   0.499684 0.260397 0.500252 0.928360
C2    C     C_R   0.450336 0.937529 0.381473 0.467656
C3    C     C_R   0.501084 0.872114 0.494666 -0.208568
C4    C     C_R   0.298173 0.502737 0.474057 0.931532
C5    C     C_R   0.563123 0.935223 0.596799 0.048869
C6    C     C_3   0.566521 0.925815 0.748397 -0.497494
C7    C     C_3   0.566274 0.067465 0.750470 -0.421775
C8    C     C_R   0.467565 0.397051 0.067243 0.229788
C9    C     C_R   0.544869 0.594564 0.078012 -0.130996
C10   C     C_R   0.544375 0.594932 0.933910 -0.125822
C11   C     C_R   0.466657 0.397468 0.924526 0.236129
C12   C     C_R   0.027283 0.465917 0.559457 0.028380
C13   C     C_3   0.360388 0.341382 0.905444 -0.511104
C14   C     C_3   0.362593 0.339268 0.059879 -0.528313
C15   C     C_R   0.498195 0.739888 0.498919 0.943485
C16   C     C_R   0.701237 0.495689 0.525976 0.963794
C17   C     C_R   0.812389 0.485484 0.541691 -0.181022
C18   C     C_R   0.186050 0.511080 0.460212 -0.164362
C19   C     C_R   0.023641 0.593596 0.352232 -0.211545
C20   C     C_R   0.130593 0.581179 0.354775 0.379406
C21   C     C_R   0.134465 0.454238 0.561626 -0.257959
C22   C     C_3   0.003593 0.390242 0.895051 0.156022
C23   C     C_R   0.972151 0.536659 0.453258 0.055474
C24   C     C_3   0.101194 0.400610 0.994514 -0.839204
C25   C     C_3   0.419128 0.903127 0.150632 0.121859
C26   C     C_3   0.351476 0.830560 0.042079 -0.694888
C27   C     C_R   0.865769 0.549713 0.448636 -0.312627
C28   C     C_R   0.864596 0.408816 0.643302 0.238627
C29   C     C_R   0.974081 0.407679 0.660146 0.433296
C30   C     C_R   0.563707 0.063022 0.598667 0.183950
C31   C     C_R   0.501903 0.128802 0.498467 -0.160683
C32   C     C_R   0.449023 0.067316 0.387027 -0.344039
Cl1   Cl    Cl    0.794114 0.302897 0.736887 -0.660340
Cl2   Cl    Cl    0.191154 0.661595 0.228912 -0.631934
H1    H     H_    0.823673 0.607201 0.369687 0.175338
H2    H     H_    0.365372 0.243215 0.103288 0.192732
H3    H     H_    0.980786 0.648235 0.271610 0.171070
H4    H     H_    0.178314 0.399888 0.641543 0.205039
H5    H     H_    0.401103 0.120024 0.309794 0.165250
H6    H     H_    0.494603 0.884006 0.781342 0.209861
H7    H     H_    0.951277 0.322398 0.939010 0.214604
H8    H     H_    0.965184 0.484151 0.888548 0.133537
H9    H     H_    0.152505 0.474343 0.959014 0.268262
H10   H     H_    0.080029 0.426272 0.096908 0.237733
H11   H     H_    0.142476 0.309278 0.002269 0.272381
H12   H     H_    0.640908 0.884281 0.796038 0.207595
H13   H     H_    0.502187 0.876488 0.146456 0.116515
H14   H     H_    0.409129 0.003924 0.124589 0.115716
H15   H     H_    0.268598 0.859170 0.041340 0.279455
H16   H     H_    0.376373 0.850244 0.940125 0.168546
H17   H     H_    0.358406 0.728687 0.062703 0.283115
H18   H     H_    0.493961 0.107500 0.784500 0.191967
H19   H     H_    0.640192 0.107528 0.800345 0.249968
H20   H     H_    0.579646 0.671711 0.136935 0.144049
H21   H     H_    0.578541 0.672567 0.884309 0.145912
H22   H     H_    0.301538 0.406715 0.853929 0.228412
H23   H     H_    0.360391 0.246503 0.860163 0.201351
H24   H     H_    0.305627 0.402899 0.100550 0.249413
N1    N     N_R   0.499290 0.499140 0.142710 -0.102768
N2    N     N_R   0.499290 0.499180 0.857070 -0.102636
O1    O     O_R   0.500010 0.316790 0.614690 -0.610641
O2    O     O_3   0.387580 0.874891 0.280296 -0.549095
O3    O     O_R   0.500000 0.316760 0.385350 -0.630393
O4    O     O_R   0.346360 0.499990 0.595720 -0.637469
O5    O     O_R   0.346350 0.499960 0.366370 -0.572667
O6    O     O_R   0.500000 0.683240 0.614650 -0.638030
O7    O     O_R   0.499990 0.683210 0.385310 -0.589033
O8    O     O_R   0.653650 0.500040 0.633630 -0.579268
O9    O     O_R   0.653640 0.500010 0.404280 -0.634599
O10   O     O_3   0.029925 0.344575 0.768211 -0.605320
Zn1   Zn    Zn3+2 0.500010 0.500020 0.653130 0.974235
Zn2   Zn    Zn3+2 0.499990 0.499980 0.346870 0.985910

loop_
_geom_bond_atom_site_label_1
_geom_bond_atom_site_label_2
_ccdc_geom_bond_type
C28   Cl1   S    
O9    Zn2   S    
C10   N2    A    
C6    C7    S    
C16   O8    A    
C23   C27   A    
C12   C29   A    
O5    Zn2   S    
C6    H12   S    
C9    C10   A    
C4    O4    A    
C19   C23   A    
O6    Zn1   S    
C25   H14   S    
C8    C11   A    
N1    Zn2   S    
C3    C5    A    
C13   H22   S    
C4    C18   S    
O1    Zn1   S    
C19   C20   A    
C2    C3    A    
C15   O7    A    
C7    C30   S    
C13   C14   S    
C16   O9    A    
C10   H21   S    
C11   C13   S    
C12   C23   A    
C22   H8    S    
C20   Cl2   S    
C4    O5    A    
O8    Zn1   S    
C14   H24   S    
C24   H11   S    
C1    O3    A    
C22   C24   S    
C28   C29   A    
C7    H18   S    
O7    Zn2   S    
C18   C20   A    
C25   O2    S    
C26   H16   S    
C8    N1    A    
C14   H2    S    
C5    C6    S    
C24   H10   S    
C6    H6    S    
O4    Zn1   S    
C22   H7    S    
C13   H23   S    
C7    H19   S    
C11   N2    A    
C18   C21   A    
C2    O2    S    
C1    C31   S    
C3    C15   S    
O3    Zn2   S    
C2    C32   A    
C29   O10   S    
C5    C30   A    
C26   H15   S    
C32   H5    S    
C24   H9    S    
C25   H13   S    
C30   C31   A    
C8    C14   S    
C9    H20   S    
C19   H3    S    
N2    Zn1   S    
C27   H1    S    
C25   C26   S    
C26   H17   S    
C15   O6    A    
C12   C21   A    
C22   O10   S    
C21   H4    S    
C31   C32   A    
C17   C28   A    
C1    O1    A    
C16   C17   S    
C9    N1    A    
C17   C27   A    
