data_mof_unit_9610.cif
_audit_creation_date              2012-12-10T17:36:41-0500
_audit_creation_method            fapswitch 2.2
_symmetry_space_group_name_H-M    P1
_symmetry_Int_Tables_number       1
_space_group_crystal_system       triclinic
_cell_length_a                    11.992794
_cell_length_b                    12.852839
_cell_length_c                    15.748936
_cell_angle_alpha                 90.159213
_cell_angle_beta                  86.515034
_cell_angle_gamma                 94.048351
_cell_volume                      2417.0259691

loop_
_atom_site_label
_atom_site_type_symbol
_atom_type_description
_atom_site_fract_x
_atom_site_fract_y
_atom_site_fract_z
_atom_type_partial_charge
C1    C     C_R   0.522866 0.700534 0.498550 0.956453
C2    C     C_R   0.477134 0.299466 0.501449 0.956447
C3    C     C_R   0.643378 0.972432 0.530944 0.412708
C4    C     C_R   0.356622 0.027567 0.469054 0.412720
C5    C     C_R   0.636539 0.864364 0.524702 0.534235
C6    C     C_R   0.363458 0.135635 0.475301 0.534216
C7    C     C_R   0.447853 0.866784 0.476181 -0.250377
C8    C     C_R   0.552152 0.133214 0.523806 -0.250375
C9    C     C_R   0.450883 0.973416 0.485856 -0.089984
C10   C     C_R   0.549120 0.026583 0.514133 -0.089989
C11   C     C_R   0.952541 0.396773 0.425768 -0.343279
C12   C     C_R   0.047459 0.603227 0.574233 -0.343287
C13   C     C_R   0.836737 0.407398 0.432181 0.769926
C14   C     C_R   0.163263 0.592601 0.567820 0.769929
C15   C     C_R   0.859521 0.545477 0.531319 -0.079350
C16   C     C_R   0.140479 0.454523 0.468680 -0.079343
C17   C     C_R   0.976538 0.537761 0.526741 -0.010055
C18   C     C_R   0.023462 0.462239 0.473259 -0.010056
C19   C     C_R   0.500466 0.500086 0.661978 0.882515
C20   C     C_R   0.499534 0.499913 0.338022 0.882507
C21   C     C_3   0.480142 0.594980 0.028662 0.218743
C22   C     C_3   0.519859 0.405018 0.971339 0.218729
C23   C     C_3   0.581130 0.569595 0.968978 0.468019
C24   C     C_3   0.418871 0.430404 0.031022 0.468083
C25   C     C_1   0.501353 0.500129 0.750661 -0.109549
C26   C     C_1   0.498647 0.499870 0.249339 -0.109550
C27   C     C_3   0.399838 0.525802 0.976224 0.483142
C28   C     C_3   0.600163 0.474196 0.023776 0.483061
C29   C     C_3   0.500896 0.500162 0.916480 -0.341729
C30   C     C_3   0.499105 0.499837 0.083520 -0.341733
C31   C     C_1   0.501473 0.500163 0.825794 0.236973
C32   C     C_1   0.498528 0.499835 0.174206 0.236970
C33   C     C_R   0.461954 0.187776 0.501769 -0.264128
C34   C     C_R   0.538047 0.812223 0.498225 -0.264137
H1    H     H_    0.626519 0.174747 0.546296 0.233722
H2    H     H_    0.373487 0.825252 0.453687 0.233724
H3    H     H_    0.178119 0.397193 0.427688 0.201729
H4    H     H_    0.821881 0.602808 0.572311 0.201732
H5    H     H_    0.986256 0.337933 0.384118 0.195198
H6    H     H_    0.013743 0.662065 0.615884 0.195201
N1    N     N_R   0.207800 0.519340 0.515560 -0.161917
N2    N     N_R   0.792200 0.480660 0.484440 -0.161917
O1    O     O_R   0.421700 0.658830 0.504150 -0.592823
O2    O     O_R   0.578300 0.341170 0.495850 -0.592826
O3    O     O_R   0.609310 0.646410 0.494170 -0.578146
O4    O     O_R   0.390690 0.353590 0.505830 -0.578140
O5    O     O_R   0.406210 0.506220 0.628210 -0.566675
O6    O     O_R   0.593790 0.493780 0.371790 -0.566678
O7    O     O_R   0.593830 0.493800 0.618230 -0.623043
O8    O     O_R   0.406170 0.506200 0.381770 -0.623045
Zn1   Zn    Zn3+2 0.374730 0.508290 0.506660 1.041987
Zn2   Zn    Zn3+2 0.625270 0.491710 0.493340 1.041983
F1    F     F_    0.664719 0.639723 0.935113 -0.595388
F2    F     F_    0.335283 0.360273 0.064885 -0.595345
O9    O     O_3   0.459164 0.692196 0.065923 -0.554329
C35   C     C_3   0.447401 0.766065 0.001629 0.176691
H7    H     H_    0.378263 0.740521 0.960622 0.193062
H8    H     H_    0.526675 0.779786 0.961586 0.190083
C36   C     C_3   0.419589 0.869029 0.042733 -0.761518
H9    H     H_    0.488097 0.898091 0.082920 0.258427
H10   H     H_    0.409520 0.927781 0.992719 0.208503
H11   H     H_    0.340265 0.858302 0.082936 0.279265
O10   O     O_3   0.540818 0.307799 0.934076 -0.554328
C37   C     C_3   0.552681 0.233951 0.998366 0.176724
H12   H     H_    0.473500 0.220313 0.038535 0.190010
H13   H     H_    0.621960 0.259468 0.039248 0.193162
C38   C     C_3   0.580284 0.130935 0.957255 -0.761603
H14   H     H_    0.659519 0.141572 0.916935 0.279225
H15   H     H_    0.590424 0.072196 0.007264 0.208520
H16   H     H_    0.511639 0.101909 0.917182 0.258451
F3    F     F_    0.702704 0.448709 0.050162 -0.582559
F4    F     F_    0.297299 0.551296 0.949840 -0.582510
F5    F     F_    0.275915 0.188876 0.452635 -0.650311
F6    F     F_    0.724074 0.811123 0.547384 -0.650304
O11   O     O_3   0.738964 0.024070 0.559700 -0.578917
C39   C     C_3   0.814818 0.047288 0.489088 0.096996
H17   H     H_    0.775226 0.090474 0.438864 0.162090
H18   H     H_    0.846334 0.974333 0.461469 0.172519
C40   C     C_3   0.913895 0.115950 0.518006 -0.738896
H19   H     H_    0.954708 0.076013 0.568968 0.261434
H20   H     H_    0.975948 0.132144 0.463576 0.228933
H21   H     H_    0.885050 0.191088 0.542854 0.254103
O12   O     O_3   0.261026 0.975927 0.440318 -0.578924
C41   C     C_3   0.185190 0.952723 0.510943 0.097010
H22   H     H_    0.153689 0.025684 0.538563 0.172526
H23   H     H_    0.224796 0.909541 0.561163 0.162094
C42   C     C_3   0.086097 0.884066 0.482049 -0.738889
H24   H     H_    0.114926 0.808918 0.457208 0.254104
H25   H     H_    0.024055 0.867892 0.536488 0.228929
H26   H     H_    0.045278 0.923996 0.431087 0.261431
F7    F     F_    0.231222 0.655958 0.614180 -0.644492
F8    F     F_    0.768778 0.344040 0.385822 -0.644497

loop_
_geom_bond_atom_site_label_1
_geom_bond_atom_site_label_2
_ccdc_geom_bond_type
C25   C31   T    
C42   H24   S    
C11   C18   A    
C26   C32   T    
C22   C29   S    
C27   C29   S    
C7    H2    S    
C24   C27   S    
O9    C35   S    
O1    Zn1   S    
C2    O4    A    
C23   C29   S    
C41   H23   S    
C19   O5    A    
C24   F2    S    
C35   H7    S    
C17   C18   A    
C5    F6    S    
C20   O8    A    
C22   O10   S    
C1    O1    A    
C2    O2    A    
C12   C17   A    
C41   C42   S    
C3    O11   S    
C9    C10   A    
C16   H3    S    
O2    Zn2   S    
C21   C27   S    
C36   H9    S    
C22   C28   S    
C13   N2    A    
C1    C34   S    
C23   F1    S    
C36   H10   S    
C38   H14   S    
C37   C38   S    
C39   H17   S    
C4    C6    A    
C40   H20   S    
O5    Zn1   S    
O3    Zn2   S    
O4    Zn1   S    
C40   H19   S    
C38   H15   S    
C8    H1    S    
C37   H13   S    
C12   H6    S    
O11   C39   S    
C15   H4    S    
C19   O7    A    
O12   C41   S    
O7    Zn2   S    
C5    C34   A    
O8    Zn1   S    
C23   C28   S    
C41   H22   S    
C11   H5    S    
C20   O6    A    
C14   N1    A    
C2    C33   S    
C16   C18   A    
C12   C14   A    
C42   H25   S    
C13   F8    S    
C7    C34   A    
C22   C24   S    
C28   F3    S    
C6    F5    S    
C21   O9    S    
C7    C9    A    
C36   H11   S    
C15   N2    A    
C39   H18   S    
C3    C5    A    
C40   H21   S    
C35   C36   S    
C15   C17   A    
C21   C30   S    
C6    C33   A    
C38   H16   S    
C37   H12   S    
C21   C23   S    
C29   C31   S    
C3    C10   A    
C30   C32   S    
C11   C13   A    
C1    O3    A    
C4    O12   S    
C20   C26   S    
C28   C30   S    
C35   H8    S    
C8    C33   A    
C19   C25   S    
C24   C30   S    
C14   F7    S    
O10   C37   S    
O6    Zn2   S    
C39   C40   S    
C8    C10   A    
C42   H26   S    
C4    C9    A    
C16   N1    A    
N1    Zn1   S    
C27   F4    S    
N2    Zn2   S    
