data_mof_unit_41077.cif
_audit_creation_date              2012-10-26T19:05:03-0400
_audit_creation_method            fapswitch 2.2
_symmetry_space_group_name_H-M    P1
_symmetry_Int_Tables_number       1
_space_group_crystal_system       triclinic
_cell_length_a                    15.896549
_cell_length_b                    10.870754
_cell_length_c                    9.586289
_cell_angle_alpha                 90.985452
_cell_angle_beta                  90.149871
_cell_angle_gamma                 92.78541
_cell_volume                      1654.37059568

loop_
_atom_site_label
_atom_site_type_symbol
_atom_type_description
_atom_site_fract_x
_atom_site_fract_y
_atom_site_fract_z
_atom_type_partial_charge
C1    C     C_R   0.505799 0.263172 0.499356 0.547265
C2    C     C_R   0.576249 0.073145 0.867226 0.134444
C3    C     C_R   0.535252 0.958497 0.884248 -0.041772
C4    C     C_R   0.340359 0.499715 0.499864 0.570522
C5    C     C_R   0.501235 0.893328 0.769245 -0.100225
C6    C     C_R   0.507312 0.941848 0.633009 -0.007087
C7    C     C_R   0.532298 0.067291 0.621961 -0.002801
C8    C     C_R   0.511115 0.129485 0.499319 -0.045320
C9    C     C_R   0.480622 0.063053 0.382406 -0.092609
C10   C     C_R   0.470442 0.936046 0.384381 0.213334
C11   C     C_R   0.487398 0.872540 0.508041 0.016564
C12   C     C_3   0.949669 0.463809 0.642206 -0.251370
C13   C     C_R   0.613997 0.661805 0.147322 -0.102958
C14   C     C_R   0.670938 0.738656 0.076600 -0.129058
C15   C     C_R   0.671368 0.737827 0.932753 0.198038
C16   C     C_R   0.493997 0.737570 0.501970 0.569345
C17   C     C_R   0.614155 0.660760 0.859118 -0.071620
C18   C     C_R   0.556037 0.579249 0.926888 0.092856
C19   C     C_R   0.555980 0.579458 0.076461 0.138871
C20   C     C_R   0.446934 0.423476 0.072143 0.218412
C21   C     C_R   0.447123 0.424015 0.923795 0.028829
C22   C     C_R   0.659638 0.500571 0.500116 0.533540
C23   C     C_3   0.917014 0.506788 0.498860 -0.005710
C24   C     C_3   0.047493 0.459545 0.641278 -0.099872
C25   C     C_3   0.044558 0.414370 0.380272 0.401282
C26   C     C_3   0.946568 0.413769 0.386360 -0.203706
C27   C     C_1   0.749182 0.502282 0.500350 0.030266
C28   C     C_3   0.083150 0.504508 0.497127 0.053674
C29   C     C_3   0.955056 0.639864 0.467900 0.310512
C30   C     C_3   0.054131 0.639020 0.475311 0.129558
C31   C     C_1   0.824671 0.504187 0.499947 0.030408
C32   C     C_1   0.175487 0.502556 0.498504 0.125083
C33   C     C_1   0.250883 0.501038 0.499347 0.085715
C34   C     C_R   0.574932 0.127431 0.735922 -0.041202
Cl1   Cl    Cl    0.427183 0.863787 0.232180 -0.561256
Cl2   Cl    Cl    0.742529 0.836582 0.843431 -0.527002
Cl3   Cl    Cl    0.079804 0.454156 0.208299 -0.492203
Cl4   Cl    Cl    0.077555 0.259744 0.402475 -0.502779
Cl5   Cl    Cl    0.108449 0.720804 0.337435 -0.474035
Cl6   Cl    Cl    0.919273 0.747686 0.597675 -0.504180
Cu1   Cu    Cu3+1 0.499990 0.499990 0.640660 0.947373
Cu2   Cu    Cu3+1 0.500010 0.500010 0.359340 1.044461
H1    H     H_    0.922063 0.370063 0.664283 0.143666
H2    H     H_    0.617135 0.670408 0.749380 0.213071
H3    H     H_    0.404000 0.361843 0.866253 0.136159
H4    H     H_    0.920058 0.320155 0.411708 0.165825
H5    H     H_    0.919319 0.433625 0.282760 0.160515
H6    H     H_    0.075994 0.695032 0.567310 0.193035
H7    H     H_    0.057782 0.613469 0.774133 0.278290
H8    H     H_    0.074019 0.479604 0.850551 0.291719
H9    H     H_    0.939508 0.774584 0.320916 0.316134
H10   H     H_    0.953248 0.634631 0.249964 0.276833
H11   H     H_    0.639816 0.222669 0.957480 0.231121
H12   H     H_    0.927669 0.524390 0.727857 0.201090
H13   H     H_    0.665851 0.084991 0.016267 0.267499
H14   H     H_    0.401214 0.251107 0.109010 0.221881
H15   H     H_    0.328688 0.359575 0.113242 0.255156
H16   H     H_    0.462529 0.110235 0.289156 0.182317
H17   H     H_    0.607395 0.216340 0.723848 0.138634
H18   H     H_    0.531174 0.918342 0.986636 0.179904
H19   H     H_    0.466415 0.808555 0.791768 0.170629
H20   H     H_    0.063536 0.361930 0.654620 0.220109
H21   H     H_    0.618568 0.671444 0.257386 0.191863
H22   H     H_    0.714581 0.799910 0.134540 0.172177
N1    N     N_R   0.500800 0.501210 0.147910 -0.196521
N2    N     N_R   0.500820 0.501290 0.852040 -0.263359
N3    N     N_3   0.086061 0.529426 0.759756 -0.610971
N4    N     N_3   0.924332 0.680562 0.331962 -0.550894
N5    N     N_3   0.614978 0.135785 0.985582 -0.618029
N6    N     N_3   0.389942 0.340635 0.143213 -0.536779
O1    O     O_R   0.499990 0.319640 0.618810 -0.514938
O2    O     O_R   0.500000 0.319660 0.381240 -0.476745
O3    O     O_R   0.379430 0.499990 0.618840 -0.500536
O4    O     O_R   0.379440 0.500020 0.381260 -0.434339
O5    O     O_R   0.500000 0.680340 0.618760 -0.550810
O6    O     O_R   0.500010 0.680360 0.381190 -0.465041
O7    O     O_R   0.620560 0.499980 0.618740 -0.523813
O8    O     O_R   0.620570 0.500010 0.381160 -0.528437

loop_
_geom_bond_atom_site_label_1
_geom_bond_atom_site_label_2
_ccdc_geom_bond_type
C21   N2    A    
C16   O5    A    
Cu1   Cu2   S    
H11   N5    S    
C7    C8    A    
C25   C28   S    
C12   C23   S    
C1    O1    A    
C23   C29   S    
C30   H6    S    
C18   C19   A    
C12   H1    S    
Cu1   O7    S    
C5    C6    A    
C1    C8    S    
C9    H16   S    
C23   C26   S    
C24   N3    S    
C25   Cl3   S    
C8    C9    A    
Cu2   N1    S    
C10   Cl1   S    
H15   N6    S    
C2    N5    S    
C9    C10   A    
C4    O4    A    
H10   N4    S    
Cu1   O1    S    
C3    H18   S    
C2    C34   A    
C13   C14   A    
C20   N6    S    
C6    C7    A    
C21   H3    S    
Cu2   O4    S    
C1    O2    A    
C13   C19   A    
C27   C31   T    
C20   N1    A    
C28   C32   S    
C22   O8    A    
C6    C11   A    
C25   C26   S    
C23   C31   S    
C29   C30   S    
C25   Cl4   S    
Cu1   O5    S    
C29   N4    S    
C11   C16   S    
C13   H21   S    
C14   H22   S    
Cu2   O2    S    
C17   C18   A    
C5    H19   S    
C4    O3    A    
H13   N5    S    
C26   H5    S    
Cu2   O8    S    
H14   N6    S    
C22   C27   S    
C34   H17   S    
C7    C34   A    
C15   Cl2   S    
H8    N3    S    
C15   C17   A    
C4    C33   S    
C24   H20   S    
H7    N3    S    
C16   O6    A    
C24   C28   S    
C22   O7    A    
C3    C5    A    
Cu1   N2    S    
C18   N2    A    
C12   C24   S    
Cu2   O6    S    
C32   C33   T    
C28   C30   S    
C2    C3    A    
C17   H2    S    
C29   Cl6   S    
C30   Cl5   S    
C19   N1    A    
H9    N4    S    
C10   C11   A    
C26   H4    S    
Cu1   O3    S    
C20   C21   A    
C14   C15   A    
C12   H12   S    
