data_mof_unit_50802.cif
_audit_creation_date              2012-12-11T14:10:40-0500
_audit_creation_method            fapswitch 2.2
_symmetry_space_group_name_H-M    P1
_symmetry_Int_Tables_number       1
_space_group_crystal_system       triclinic
_cell_length_a                    19.812011
_cell_length_b                    17.279718
_cell_length_c                    15.567726
_cell_angle_alpha                 90.016
_cell_angle_beta                  52.53183
_cell_angle_gamma                 89.995971
_cell_volume                      4230.0162178

loop_
_atom_site_label
_atom_site_type_symbol
_atom_type_description
_atom_site_fract_x
_atom_site_fract_y
_atom_site_fract_z
_atom_type_partial_charge
C1    C     C_R   0.377583 0.197055 0.990045 -0.120008
C2    C     C_R   0.628917 0.804896 0.999826 -0.124170
C3    C     C_R   0.622747 0.196962 0.009592 -0.102037
C4    C     C_R   0.371074 0.804910 0.000172 -0.124370
C5    C     C_R   0.847955 0.682614 0.030622 -0.124182
C6    C     C_R   0.159178 0.323568 0.954071 -0.124593
C7    C     C_R   0.152099 0.682546 0.969270 -0.124082
C8    C     C_R   0.840894 0.323556 0.045842 -0.126893
C9    C     C_3   0.238680 0.219077 0.565546 -0.225491
C10   C     C_3   0.680880 0.736857 0.452912 -0.237628
C11   C     C_3   0.755873 0.228130 0.441176 -0.224194
C12   C     C_3   0.318885 0.736836 0.547082 -0.237408
C13   C     C_3   0.737730 0.717489 0.571954 -0.228952
C14   C     C_3   0.170967 0.229542 0.458075 -0.234676
C15   C     C_3   0.261907 0.717912 0.428119 -0.228999
C16   C     C_3   0.835613 0.220193 0.533607 -0.236728
C17   C     C_2   0.271867 0.696190 0.979943 -0.197584
C18   C     C_2   0.718528 0.308406 0.038023 -0.200255
C19   C     C_2   0.728152 0.696205 0.020009 -0.197443
C20   C     C_2   0.281593 0.308472 0.961880 -0.203325
C21   C     C_2   0.692713 0.241317 0.091792 -0.210565
C22   C     C_2   0.301713 0.759837 0.919297 -0.216292
C23   C     C_2   0.307586 0.241446 0.907888 -0.211092
C24   C     C_2   0.698263 0.759849 0.080715 -0.216403
C25   C     C_R   0.394053 0.802503 0.211314 0.055773
C26   C     C_R   0.649177 0.173484 0.777405 0.067418
C27   C     C_R   0.605923 0.802474 0.788673 0.055913
C28   C     C_R   0.350599 0.173160 0.223080 0.067579
C29   C     C_R   0.894731 0.302453 0.211828 0.038215
C30   C     C_R   0.142592 0.679459 0.776689 0.056462
C31   C     C_R   0.104930 0.302205 0.788509 0.036644
C32   C     C_R   0.857177 0.679306 0.223324 0.056886
C33   C     C_R   0.362673 0.891002 0.901071 -0.153878
C34   C     C_R   0.635564 0.108953 0.101634 -0.156719
C35   C     C_R   0.637312 0.891016 0.098945 -0.153304
C36   C     C_R   0.364613 0.109020 0.898163 -0.154428
C37   C     C_R   0.833209 0.408777 0.944935 -0.151725
C38   C     C_R   0.163197 0.592666 0.061814 -0.155646
C39   C     C_R   0.166787 0.408788 0.055081 -0.152732
C40   C     C_R   0.836823 0.592664 0.938150 -0.155775
C41   C     C_R   0.358627 0.080744 0.317037 -0.161764
C42   C     C_R   0.599235 0.893754 0.692662 -0.172091
C43   C     C_R   0.641120 0.081008 0.682971 -0.160928
C44   C     C_R   0.400736 0.893800 0.307349 -0.172550
C45   C     C_R   0.861076 0.583233 0.317465 -0.165796
C46   C     C_R   0.100291 0.394217 0.691768 -0.167918
C47   C     C_R   0.138713 0.583378 0.682476 -0.165199
C48   C     C_R   0.899987 0.394333 0.308105 -0.164561
C49   C     C_R   0.347626 0.184711 0.931608 0.144242
C50   C     C_R   0.657814 0.816767 0.059487 0.156810
C51   C     C_R   0.652734 0.184578 0.067988 0.142645
C52   C     C_R   0.342162 0.816767 0.940530 0.156948
C53   C     C_R   0.798271 0.656334 0.002663 0.150462
C54   C     C_R   0.208831 0.348247 0.983254 0.149854
C55   C     C_R   0.201767 0.656293 0.997261 0.150425
C56   C     C_R   0.791222 0.348230 0.016706 0.151309
C57   C     C_R   0.380547 0.818104 0.307043 0.012045
C58   C     C_R   0.689771 0.141601 0.675095 0.000618
C59   C     C_R   0.619383 0.818038 0.692975 0.011876
C60   C     C_R   0.309462 0.140783 0.324869 -0.003997
C61   C     C_R   0.880012 0.318417 0.308415 0.005893
C62   C     C_R   0.183688 0.646904 0.675033 0.005222
C63   C     C_R   0.120237 0.318225 0.691460 0.014284
C64   C     C_R   0.815955 0.646653 0.324921 0.005220
C65   C     C_3   0.202744 0.149797 0.541080 -0.202529
C66   C     C_3   0.715515 0.802570 0.484648 -0.197044
C67   C     C_3   0.787512 0.152334 0.459587 -0.197806
C68   C     C_3   0.284406 0.802753 0.515423 -0.197102
C69   C     C_3   0.703513 0.651599 0.540019 -0.203780
C70   C     C_3   0.207039 0.298673 0.482819 -0.199693
C71   C     C_3   0.295972 0.651826 0.459969 -0.203645
C72   C     C_3   0.803834 0.296087 0.514832 -0.201801
C73   C     C_3   0.629821 0.704494 0.568760 0.087353
C74   C     C_3   0.283007 0.249246 0.450935 0.090192
C75   C     C_3   0.369820 0.704457 0.431222 0.087333
C76   C     C_3   0.720978 0.255834 0.554106 0.092872
C77   C     C_3   0.125815 0.199815 0.574595 0.086971
C78   C     C_3   0.788162 0.750259 0.457786 0.088862
C79   C     C_3   0.871269 0.193135 0.418658 0.088682
C80   C     C_3   0.211594 0.750696 0.542310 0.088701
C81   C     C_3   0.663304 0.768863 0.599881 0.156097
C82   C     C_3   0.248821 0.181282 0.425179 0.156918
C83   C     C_3   0.336493 0.769020 0.400174 0.156030
C84   C     C_3   0.750876 0.181432 0.574178 0.153318
C85   C     C_3   0.160925 0.267545 0.598734 0.154322
C86   C     C_3   0.755606 0.685896 0.424956 0.160411
C87   C     C_3   0.840319 0.267369 0.400419 0.157409
C88   C     C_3   0.244002 0.686144 0.575049 0.160419
H1    H     H_    0.289552 0.678427 0.030506 0.123567
H2    H     H_    0.697004 0.328037 0.992255 0.124040
H3    H     H_    0.710478 0.678422 0.969433 0.123562
H4    H     H_    0.303041 0.328061 0.007761 0.123785
H5    H     H_    0.713370 0.222022 0.138666 0.123799
H6    H     H_    0.285224 0.775877 0.866751 0.122480
H7    H     H_    0.286982 0.222167 0.860945 0.126009
H8    H     H_    0.714749 0.775904 0.133268 0.122448
N1    N     N_R   0.408680 0.130810 0.995780 -0.045278
N2    N     N_R   0.591320 0.869190 0.004220 -0.046844
N3    N     N_R   0.591320 0.130810 0.004220 -0.046146
N4    N     N_R   0.408680 0.869190 0.995780 -0.046924
N5    N     N_R   0.908680 0.630810 0.995780 -0.045477
N6    N     N_R   0.091320 0.369190 0.004220 -0.045133
N7    N     N_R   0.091320 0.630810 0.004220 -0.045472
N8    N     N_R   0.908680 0.369190 0.995780 -0.046612
N9    N     N_R   0.421410 0.867210 0.153620 -0.049496
N10   N     N_R   0.578590 0.132790 0.846380 -0.053122
N11   N     N_R   0.578590 0.867210 0.846380 -0.049428
N12   N     N_R   0.421410 0.132790 0.153620 -0.049781
N13   N     N_R   0.921410 0.367210 0.153620 -0.045447
N14   N     N_R   0.078590 0.632790 0.846380 -0.047701
N15   N     N_R   0.078590 0.367210 0.846380 -0.048860
N16   N     N_R   0.921410 0.632790 0.153620 -0.047747
N17   N     N_R   0.403840 0.921910 0.935760 -0.039455
N18   N     N_R   0.596160 0.078090 0.064240 -0.041288
N19   N     N_R   0.596160 0.921910 0.064240 -0.039281
N20   N     N_R   0.403840 0.078090 0.935760 -0.040897
N21   N     N_R   0.903840 0.421910 0.935760 -0.040158
N22   N     N_R   0.096160 0.578090 0.064240 -0.041454
N23   N     N_R   0.096160 0.421910 0.064240 -0.040049
N24   N     N_R   0.903840 0.578090 0.935760 -0.041420
N25   N     N_R   0.426250 0.076100 0.213650 -0.045664
N26   N     N_R   0.573750 0.923900 0.786350 -0.040263
N27   N     N_R   0.573750 0.076100 0.786350 -0.045715
N28   N     N_R   0.426250 0.923900 0.213650 -0.040403
N29   N     N_R   0.926250 0.576100 0.213650 -0.045849
N30   N     N_R   0.073750 0.423900 0.786350 -0.041103
N31   N     N_R   0.073750 0.576100 0.786350 -0.045665
N32   N     N_R   0.926250 0.423900 0.213650 -0.041579
Ni1   Ni    Ni4+2 0.500000 0.131570 0.000000 0.206006
Ni2   Ni    Ni4+2 0.500000 0.868430 0.000000 0.200355
Ni3   Ni    Ni4+2 0.000000 0.631570 0.000000 0.217823
Ni4   Ni    Ni4+2 0.000000 0.368430 0.000000 0.209439
Ni5   Ni    Ni4+2 0.488900 0.000000 0.862310 0.200108
Ni6   Ni    Ni4+2 0.511100 0.000000 0.137690 0.200107
Ni7   Ni    Ni4+2 0.988900 0.500000 0.862310 0.203846
Ni8   Ni    Ni4+2 0.011100 0.500000 0.137690 0.203890
H9    H     H_    0.390981 0.252605 0.008154 0.100452
H10   H     H_    0.622907 0.750825 0.970815 0.097601
H11   H     H_    0.609322 0.252550 0.991701 0.096236
H12   H     H_    0.377085 0.750847 0.029169 0.097687
H13   H     H_    0.846525 0.739225 0.059491 0.109421
H14   H     H_    0.169584 0.274815 0.904465 0.109871
H15   H     H_    0.153606 0.739095 0.940238 0.109427
H16   H     H_    0.830630 0.274763 0.095248 0.103947
N33   N     N_3   0.402165 0.727463 0.166744 -0.234378
H17   H     H_    0.464888 0.722060 0.097034 0.087607
H18   H     H_    0.394420 0.684696 0.219426 0.108690
N34   N     N_3   0.667322 0.246284 0.802983 -0.229651
H19   H     H_    0.623813 0.286685 0.812982 0.099401
H20   H     H_    0.728218 0.264963 0.739545 0.106498
N35   N     N_3   0.597758 0.727447 0.833250 -0.234360
H21   H     H_    0.535095 0.722198 0.903127 0.087593
H22   H     H_    0.605224 0.684672 0.780713 0.108591
N36   N     N_3   0.329922 0.244766 0.198447 -0.231294
H23   H     H_    0.331406 0.288787 0.243175 0.110767
H24   H     H_    0.267839 0.240570 0.223067 0.095272
N37   N     N_3   0.906665 0.227101 0.166604 -0.230714
H25   H     H_    0.952945 0.198557 0.167058 0.115493
H26   H     H_    0.849811 0.196444 0.217163 0.088982
N38   N     N_3   0.145749 0.759143 0.798955 -0.231644
H27   H     H_    0.121581 0.792861 0.767780 0.119715
H28   H     H_    0.209071 0.774779 0.759961 0.084925
N39   N     N_3   0.093525 0.226938 0.834276 -0.235719
H29   H     H_    0.029925 0.222627 0.902460 0.108920
H30   H     H_    0.102766 0.184428 0.780389 0.109868
N40   N     N_3   0.853846 0.758992 0.201268 -0.231622
H31   H     H_    0.877637 0.792761 0.232887 0.119706
H32   H     H_    0.790515 0.774466 0.239965 0.084678
H33   H     H_    0.357457 0.916783 0.842000 0.090826
H34   H     H_    0.641235 0.081806 0.159601 0.092667
H35   H     H_    0.642515 0.916821 0.158029 0.090530
H36   H     H_    0.358922 0.081833 0.840219 0.092625
H37   H     H_    0.815507 0.437252 0.899675 0.089137
H38   H     H_    0.179590 0.563416 0.108027 0.089802
H39   H     H_    0.184460 0.437285 0.100371 0.089251
H40   H     H_    0.820438 0.563378 0.891937 0.089824
H41   H     H_    0.348125 0.046493 0.382215 0.105109
H42   H     H_    0.595023 0.921939 0.634058 0.096450
H43   H     H_    0.651588 0.046596 0.617920 0.103999
H44   H     H_    0.404927 0.922006 0.365976 0.096599
H45   H     H_    0.850188 0.548702 0.382672 0.105579
H46   H     H_    0.096096 0.422679 0.633319 0.096663
H47   H     H_    0.149531 0.548868 0.617268 0.105167
H48   H     H_    0.904595 0.422847 0.366176 0.095763
N41   N     N_3   0.540888 0.681301 0.634560 -0.218564
H49   H     H_    0.505826 0.729091 0.640726 0.099031
H50   H     H_    0.535350 0.638858 0.591358 0.100457
N42   N     N_3   0.370790 0.276355 0.381571 -0.223531
H51   H     H_    0.408849 0.232140 0.377025 0.106679
H52   H     H_    0.375017 0.322824 0.421051 0.099846
N43   N     N_3   0.458689 0.681006 0.365372 -0.218564
H53   H     H_    0.493891 0.728658 0.359219 0.099032
H54   H     H_    0.464126 0.638463 0.408531 0.100605
N44   N     N_3   0.637103 0.290548 0.629312 -0.227265
H55   H     H_    0.592571 0.251733 0.638740 0.106852
H56   H     H_    0.635202 0.339900 0.592054 0.099133
N45   N     N_3   0.037675 0.174396 0.646764 -0.222323
H57   H     H_    0.999968 0.220102 0.653977 0.099126
H58   H     H_    0.030782 0.129296 0.607925 0.100014
N46   N     N_3   0.876606 0.774679 0.396194 -0.227595
H59   H     H_    0.911293 0.728025 0.393794 0.103644
H60   H     H_    0.879184 0.818598 0.440279 0.100439
N47   N     N_3   0.955569 0.160387 0.340442 -0.226505
H61   H     H_    0.999669 0.200768 0.328948 0.098452
H62   H     H_    0.960385 0.111779 0.376326 0.100978
N48   N     N_3   0.123212 0.775363 0.603967 -0.227660
H63   H     H_    0.088384 0.728824 0.606426 0.103653
H64   H     H_    0.120713 0.819330 0.559899 0.100416
H65   H     H_    0.199966 0.088301 0.563628 0.113091
H66   H     H_    0.722094 0.864563 0.462071 0.110023
H67   H     H_    0.782285 0.092820 0.437317 0.110153
H68   H     H_    0.278018 0.864735 0.538025 0.110121
H69   H     H_    0.698212 0.589265 0.560481 0.114487
H70   H     H_    0.210780 0.359864 0.458567 0.109325
H71   H     H_    0.301091 0.589508 0.439465 0.114364
H72   H     H_    0.808517 0.355305 0.538426 0.108916
H73   H     H_    0.267073 0.216716 0.608823 0.120053
H74   H     H_    0.656370 0.742036 0.405270 0.113840
H75   H     H_    0.722374 0.233342 0.404583 0.114970
H76   H     H_    0.343400 0.741832 0.594738 0.113866
H77   H     H_    0.761881 0.711599 0.619961 0.123246
H78   H     H_    0.142288 0.231547 0.415183 0.114444
H79   H     H_    0.237725 0.712207 0.380124 0.123238
H80   H     H_    0.868470 0.214608 0.570980 0.117153

loop_
_geom_bond_atom_site_label_1
_geom_bond_atom_site_label_2
_ccdc_geom_bond_type
C68   C80   S    
N10   Ni1   S    
N44   H56   S    
N47   H61   S    
N37   H25   S    
C32   N40   S    
C18   C21   D    
C35   H35   S    
C80   N48   S    
N39   H29   S    
C16   C72   S    
C7    C55   A    
N12   N25   A    
C72   C76   S    
C33   H33   S    
C78   C86   S    
C8    C56   A    
C47   C62   A    
C7    H15   S    
N33   H17   S    
N41   H49   S    
C25   N9    A    
N40   H32   S    
C33   C52   A    
C30   N38   S    
C12   C68   S    
C43   H43   S    
C34   C51   A    
C78   N46   S    
C30   N14   A    
C41   H41   S    
N39   H30   S    
C45   C64   A    
N31   Ni7   S    
C11   C76   S    
N32   Ni8   S    
C10   C73   S    
N4    Ni2   S    
C68   C83   S    
C38   H38   S    
C39   C54   A    
C48   N32   A    
C9    H73   S    
C64   C86   S    
C13   C81   S    
C16   C84   S    
N42   H52   S    
C22   H6    S    
C14   C77   S    
C41   N25   A    
N45   H58   S    
C10   H74   S    
C2    C50   A    
C43   C58   A    
C9    C85   S    
C37   C56   A    
C60   C82   S    
C26   C58   A    
C38   C55   A    
C48   C61   A    
C11   C87   S    
N46   H59   S    
C1    C49   A    
N10   N27   A    
C70   C74   S    
N35   H21   S    
C57   C83   S    
C69   C73   S    
N25   Ni6   S    
C66   H66   S    
C61   C87   S    
C17   C55   S    
N36   H24   S    
C34   H34   S    
C16   H80   S    
C18   C56   S    
N14   N31   A    
C19   C53   S    
C10   C66   S    
N44   H55   S    
C3    H11   S    
C77   C85   S    
C67   C84   S    
N37   H26   S    
C7    N7    A    
C63   C85   S    
C6    N6    A    
C28   N36   S    
C14   C70   S    
C44   H44   S    
C25   C57   A    
N3    N18   A    
N11   Ni2   S    
C79   C87   S    
C73   N41   S    
N33   H18   S    
C48   H48   S    
C11   C67   S    
C31   N39   S    
C28   C60   A    
C24   C50   S    
C66   C78   S    
C29   C61   A    
C76   C84   S    
C36   H36   S    
C65   C77   S    
N3    Ni1   S    
C1    H9    S    
C45   H45   S    
N43   H53   S    
C70   H70   S    
C75   C83   S    
C31   C63   A    
C17   H1    S    
N34   H19   S    
C32   C64   A    
C20   C54   S    
C1    N1    A    
C40   H40   S    
C3    C51   A    
N48   H63   S    
N6    Ni4   S    
C15   C83   S    
N20   Ni5   S    
C62   C88   S    
C44   N28   A    
C46   N30   A    
N9    N28   A    
N42   H51   S    
C18   H2    S    
C2    H10   S    
C75   N43   S    
N43   H54   S    
N26   Ni5   S    
C58   C84   S    
C26   N10   A    
C4    H12   S    
N47   H62   S    
N13   N32   A    
C5    H13   S    
C15   C80   S    
C20   C23   D    
C27   N11   A    
C44   C57   A    
C12   C88   S    
N34   H20   S    
N2    Ni2   S    
C35   C50   A    
N36   H23   S    
C67   C79   S    
N14   Ni3   S    
C8    H16   S    
N1    N20   A    
C67   H67   S    
C8    N8    A    
C2    N2    A    
N12   Ni1   S    
N15   N30   A    
C76   N44   S    
C73   C81   S    
N5    Ni3   S    
N29   Ni8   S    
C47   H47   S    
C40   N24   A    
C4    C52   A    
N30   Ni7   S    
C6    C54   A    
C20   H4    S    
C79   N47   S    
C25   N33   S    
C4    N4    A    
C74   N42   S    
N40   H31   S    
C21   H5    S    
N7    N22   A    
C6    H14   S    
C9    C74   S    
C14   C82   S    
C43   N27   A    
C68   H68   S    
C11   H75   S    
C21   C51   S    
C72   C87   S    
N22   Ni8   S    
C42   N26   A    
C22   C52   S    
N8    N21   A    
C74   C82   S    
C29   N13   A    
C13   C78   S    
C10   C86   S    
C27   N35   S    
C32   N16   A    
C72   H72   S    
N5    N24   A    
C65   H65   S    
N7    Ni3   S    
C14   H78   S    
C19   H3    S    
N4    N17   A    
C59   C81   S    
C41   C60   A    
C13   H77   S    
C39   H39   S    
C42   C59   A    
C29   N37   S    
N21   Ni7   S    
C47   N31   A    
N9    Ni2   S    
N19   Ni6   S    
C34   N18   A    
C24   H8    S    
C15   C71   S    
N13   Ni4   S    
C33   N17   A    
C17   C22   D    
C69   C86   S    
C5    N5    A    
N28   Ni6   S    
C46   C63   A    
C16   C79   S    
N38   H27   S    
N24   Ni7   S    
C69   H69   S    
C30   C62   A    
C19   C24   D    
C5    C53   A    
N1    Ni1   S    
C80   C88   S    
C27   C59   A    
N41   H50   S    
N23   Ni8   S    
C71   C75   S    
C46   H46   S    
C65   C82   S    
C13   C69   S    
C42   H42   S    
C39   N23   A    
N18   Ni6   S    
C23   H7    S    
N2    N19   A    
N48   H64   S    
N35   H22   S    
N16   Ni3   S    
C15   H79   S    
N45   H57   S    
C28   N12   A    
C9    C65   S    
C71   H71   S    
C23   C49   S    
C36   C49   A    
C37   H37   S    
C71   C88   S    
C38   N22   A    
C3    N3    A    
N15   Ni4   S    
C26   N34   S    
C37   N21   A    
C35   N19   A    
N27   Ni5   S    
N46   H60   S    
C40   C53   A    
N8    Ni4   S    
C12   C75   S    
C45   N29   A    
C31   N15   A    
N17   Ni5   S    
N11   N26   A    
N16   N29   A    
C70   C85   S    
C77   N45   S    
C12   H76   S    
N6    N23   A    
N38   H28   S    
C66   C81   S    
C36   N20   A    
