data_mof_unit_43382.cif
_audit_creation_date              2013-03-05T15:44:36-0500
_audit_creation_method            fapswitch 2.2
_symmetry_space_group_name_H-M    P1
_symmetry_Int_Tables_number       1
_space_group_crystal_system       triclinic
_cell_length_a                    18.849729
_cell_length_b                    11.145632
_cell_length_c                    18.669657
_cell_angle_alpha                 89.999853
_cell_angle_beta                  89.856885
_cell_angle_gamma                 90.000099
_cell_volume                      3922.33600717

loop_
_atom_site_label
_atom_site_type_symbol
_atom_site_description
_atom_site_fract_x
_atom_site_fract_y
_atom_site_fract_z
_atom_type_partial_charge
O1    O     O_R   0.787540 0.042690 0.170470 -0.535638
O2    O     O_R   0.212460 0.042690 0.829530 -0.536078
O3    O     O_R   0.287540 0.542690 0.170470 -0.536091
O4    O     O_R   0.712460 0.542690 0.829530 -0.535638
O5    O     O_R   0.765660 0.292160 0.175050 -0.528351
O6    O     O_R   0.234340 0.292160 0.824950 -0.527388
O7    O     O_R   0.265660 0.792160 0.175050 -0.527386
O8    O     O_R   0.734340 0.792160 0.824950 -0.528353
C1    C     C_R   0.732377 0.382886 0.148527 0.535283
C2    C     C_R   0.267616 0.382903 0.851463 0.536386
C3    C     C_R   0.232384 0.882903 0.148537 0.536388
C4    C     C_R   0.767623 0.882885 0.851473 0.535279
O9    O     O_R   0.670190 0.408980 0.168550 -0.519132
O10   O     O_R   0.329810 0.408980 0.831450 -0.514042
O11   O     O_R   0.170190 0.908980 0.168550 -0.514042
O12   O     O_R   0.829810 0.908980 0.831450 -0.519132
O13   O     O_R   0.556580 0.251450 0.175160 -0.505386
O14   O     O_R   0.443420 0.251450 0.824840 -0.500649
O15   O     O_R   0.056580 0.751450 0.175160 -0.500649
O16   O     O_R   0.943420 0.751450 0.824840 -0.505396
C5    C     C_R   0.531523 0.154559 0.146805 0.523846
C6    C     C_R   0.468455 0.154563 0.853213 0.526640
C7    C     C_R   0.031545 0.654563 0.146787 0.526637
C8    C     C_R   0.968477 0.654559 0.853195 0.523843
O17   O     O_R   0.545920 0.049510 0.170320 -0.525061
O18   O     O_R   0.454080 0.049510 0.829680 -0.526263
O19   O     O_R   0.045920 0.549510 0.170320 -0.526265
O20   O     O_R   0.954080 0.549510 0.829680 -0.525058
O21   O     O_R   0.681390 0.957840 0.176710 -0.495849
O22   O     O_R   0.318610 0.957840 0.823290 -0.483345
O23   O     O_R   0.181390 0.457840 0.176710 -0.483351
O24   O     O_R   0.818610 0.457840 0.823290 -0.495848
C9    C     C_R   0.726861 0.022491 0.140004 0.553967
C10   C     C_R   0.273138 0.022484 0.859999 0.555685
C11   C     C_R   0.226862 0.522484 0.140001 0.555688
C12   C     C_R   0.773139 0.522491 0.859996 0.553966
O25   O     O_R   0.787500 0.044280 0.330990 -0.441224
O26   O     O_R   0.212500 0.044280 0.669010 -0.440908
O27   O     O_R   0.287500 0.544280 0.330990 -0.440953
O28   O     O_R   0.712500 0.544280 0.669010 -0.441225
O29   O     O_R   0.765610 0.293630 0.323860 -0.448416
O30   O     O_R   0.234390 0.293630 0.676140 -0.464536
O31   O     O_R   0.265610 0.793630 0.323860 -0.464530
O32   O     O_R   0.734390 0.793630 0.676140 -0.448418
C13   C     C_R   0.728495 0.376649 0.354064 0.586789
C14   C     C_R   0.266048 0.389664 0.653398 0.566852
C15   C     C_R   0.233951 0.889666 0.346602 0.566848
C16   C     C_R   0.771504 0.876649 0.645937 0.586785
O33   O     O_R   0.670140 0.410570 0.329080 -0.462779
O34   O     O_R   0.329860 0.410570 0.670920 -0.463881
O35   O     O_R   0.170140 0.910570 0.329080 -0.463914
O36   O     O_R   0.829860 0.910570 0.670920 -0.462772
O37   O     O_R   0.556540 0.252920 0.323970 -0.487744
O38   O     O_R   0.443460 0.252920 0.676030 -0.467580
O39   O     O_R   0.056540 0.752920 0.323970 -0.467577
O40   O     O_R   0.943460 0.752920 0.676030 -0.487703
C17   C     C_R   0.534216 0.156496 0.353401 0.540548
C18   C     C_R   0.465553 0.157073 0.645600 0.554073
C19   C     C_R   0.034435 0.657074 0.354394 0.554105
C20   C     C_R   0.965801 0.656498 0.646606 0.540600
O41   O     O_R   0.545870 0.051100 0.330840 -0.459837
O42   O     O_R   0.454130 0.051100 0.669160 -0.485011
O43   O     O_R   0.045870 0.551100 0.330840 -0.485014
O44   O     O_R   0.954130 0.551100 0.669160 -0.459840
O45   O     O_R   0.681340 0.959300 0.325510 -0.507677
O46   O     O_R   0.318660 0.959300 0.674490 -0.456128
O47   O     O_R   0.181340 0.459300 0.325510 -0.456144
O48   O     O_R   0.818660 0.459300 0.674490 -0.507675
C21   C     C_R   0.742714 0.966690 0.352262 0.583392
C22   C     C_R   0.270140 0.013846 0.636943 0.549975
C23   C     C_R   0.229856 0.513854 0.363057 0.549984
C24   C     C_R   0.757286 0.466690 0.647737 0.583392
Cr1   Cr    Cr6+3 0.772000 0.169640 0.250110 1.092469
Cr2   Cr    Cr6+3 0.228000 0.169640 0.749890 1.079044
Cr3   Cr    Cr6+3 0.272000 0.669640 0.250110 1.079006
Cr4   Cr    Cr6+3 0.728000 0.669640 0.749890 1.092467
Cr5   Cr    Cr6+3 0.614960 0.323350 0.249260 1.066403
Cr6   Cr    Cr6+3 0.385040 0.323350 0.750740 1.082296
Cr7   Cr    Cr6+3 0.114960 0.823350 0.249260 1.082290
Cr8   Cr    Cr6+3 0.885040 0.823350 0.750740 1.066459
Cr9   Cr    Cr6+3 0.616670 0.010620 0.250840 1.071198
Cr10  Cr    Cr6+3 0.383330 0.010620 0.749160 1.087305
Cr11  Cr    Cr6+3 0.116670 0.510620 0.250840 1.087293
Cr12  Cr    Cr6+3 0.883330 0.510620 0.749160 1.071210
O49   O     O_3   0.667880 0.167870 0.250070 -0.309186
O50   O     O_3   0.332120 0.167870 0.749930 -0.331559
O51   O     O_3   0.167880 0.667870 0.250070 -0.331546
O52   O     O_3   0.832120 0.667870 0.749930 -0.309193
H1    H     H_    0.500657 0.966559 0.063319 0.134900
H2    H     H_    0.499277 0.966573 0.936712 0.134710
H3    H     H_    0.000722 0.466573 0.063288 0.134711
H4    H     H_    0.999343 0.466559 0.936682 0.134901
C25   C     C_R   0.500014 0.160733 0.925036 0.001458
C26   C     C_R   0.499918 0.160715 0.075005 0.004013
C27   C     C_R   0.000081 0.660715 0.924995 0.004017
C28   C     C_R   0.999986 0.660732 0.074964 0.001458
C29   C     C_R   0.505804 0.270951 0.962414 0.034586
C30   C     C_R   0.494106 0.270932 0.037642 0.037097
C31   C     C_R   0.005894 0.770932 0.962358 0.037097
C32   C     C_R   0.994196 0.770951 0.037586 0.034587
C33   C     C_R   0.499072 0.052873 0.036692 -0.162769
C34   C     C_R   0.500852 0.052882 0.963344 -0.163348
C35   C     C_R   0.999148 0.552882 0.036656 -0.163348
C36   C     C_R   0.000927 0.552873 0.963308 -0.162768
C37   C     C_R   0.521528 0.381114 0.927761 0.015084
C38   C     C_R   0.478398 0.381067 0.072326 0.023584
C39   C     C_R   0.021602 0.881067 0.927673 0.023573
C40   C     C_R   0.978472 0.881114 0.072238 0.015085
C41   C     C_R   0.010216 0.988709 0.964245 -0.119585
C42   C     C_R   0.989824 0.988733 0.035628 -0.120604
C43   C     C_R   0.510176 0.488733 0.964371 -0.120605
C44   C     C_R   0.489784 0.488709 0.035754 -0.119584
H5    H     H_    0.016800 0.073777 0.937321 0.099741
H6    H     H_    0.983196 0.073822 0.062517 0.100654
H7    H     H_    0.516804 0.573822 0.937481 0.100655
H8    H     H_    0.483200 0.573777 0.062677 0.099739
C45   C     C_R   0.673719 0.948706 0.024908 -0.142907
C46   C     C_R   0.326279 0.948676 0.975099 -0.143118
C47   C     C_R   0.173721 0.448675 0.024901 -0.143119
C48   C     C_R   0.826281 0.448706 0.975091 -0.142908
H9    H     H_    0.626778 0.919675 0.053410 0.132889
H10   H     H_    0.373205 0.919601 0.946589 0.132982
H11   H     H_    0.126795 0.419601 0.053411 0.132982
H12   H     H_    0.873221 0.419676 0.946590 0.132889
C49   C     C_R   0.679093 0.925570 0.951339 -0.159600
C50   C     C_R   0.320917 0.925567 0.048675 -0.159361
C51   C     C_R   0.179083 0.425567 0.951325 -0.159359
C52   C     C_R   0.820907 0.425571 0.048661 -0.159601
H13   H     H_    0.635688 0.881866 0.923893 0.118419
H14   H     H_    0.364318 0.881842 0.076117 0.119418
H15   H     H_    0.135682 0.381842 0.923883 0.119420
H16   H     H_    0.864312 0.381866 0.076108 0.118419
C53   C     C_R   0.743736 0.946327 0.916373 0.011740
C54   C     C_R   0.256289 0.946376 0.083655 0.012388
C55   C     C_R   0.243711 0.446376 0.916346 0.012391
C56   C     C_R   0.756264 0.446328 0.083627 0.011740
C57   C     C_R   0.793402 0.020729 0.949221 -0.083792
C58   C     C_R   0.206641 0.020821 0.050817 -0.082383
C59   C     C_R   0.293359 0.520820 0.949183 -0.082381
C60   C     C_R   0.706599 0.520730 0.050779 -0.083792
H17   H     H_    0.839920 0.051535 0.920306 0.150416
H18   H     H_    0.160143 0.051673 0.079748 0.152856
H19   H     H_    0.339857 0.551673 0.920252 0.152857
H20   H     H_    0.660080 0.551535 0.079694 0.150416
C61   C     C_R   0.787034 0.051344 0.020334 -0.017325
C62   C     C_R   0.212987 0.051380 0.979690 -0.017865
C63   C     C_R   0.287013 0.551380 0.020310 -0.017865
C64   C     C_R   0.712966 0.551345 0.979666 -0.017325
C65   C     C_R   0.729860 0.005155 0.061403 0.029843
C66   C     C_R   0.270143 0.005149 0.938608 0.028401
C67   C     C_R   0.229857 0.505149 0.061392 0.028403
C68   C     C_R   0.770140 0.505155 0.938597 0.029843
C69   C     C_R   0.566618 0.136412 0.476702 -0.090853
C70   C     C_R   0.550965 0.138206 0.548661 -0.065841
C71   C     C_R   0.949027 0.638211 0.451346 -0.065871
C72   C     C_R   0.933386 0.636418 0.523309 -0.090875
H21   H     H_    0.619793 0.112320 0.459720 0.098617
H22   H     H_    0.591753 0.116460 0.587209 0.172208
H23   H     H_    0.908234 0.616460 0.412804 0.172198
H24   H     H_    0.880215 0.612318 0.540299 0.098628
C73   C     C_R   0.482843 0.167706 0.570557 0.080689
C74   C     C_R   0.514246 0.164896 0.426558 0.103903
C75   C     C_R   0.985766 0.664904 0.573447 0.103974
C76   C     C_R   0.017145 0.667711 0.429438 0.080733
C77   C     C_R   0.429684 0.200101 0.519909 0.019314
C78   C     C_R   0.446258 0.200974 0.446492 0.044957
C79   C     C_R   0.053746 0.701014 0.553495 0.045012
C80   C     C_R   0.070308 0.700111 0.480077 0.019205
C81   C     C_R   0.819557 0.926660 0.454439 0.171665
C82   C     C_R   0.206459 0.033336 0.519265 0.124447
C83   C     C_R   0.293512 0.533399 0.480747 0.124582
C84   C     C_R   0.680442 0.426658 0.545562 0.171670
C85   C     C_R   0.821214 0.939555 0.528386 0.132273
C86   C     C_R   0.209732 0.033813 0.444496 0.129612
C87   C     C_R   0.290244 0.533839 0.555516 0.129638
C88   C     C_R   0.678785 0.439551 0.471615 0.132286
C89   C     C_R   0.760307 0.907315 0.570456 -0.054053
C90   C     C_R   0.259624 0.959157 0.409764 -0.047429
C91   C     C_R   0.240365 0.459149 0.590238 -0.047580
C92   C     C_R   0.739692 0.407313 0.429544 -0.054054
C93   C     C_R   0.696094 0.876669 0.536188 0.128812
C94   C     C_R   0.322871 0.931429 0.446191 0.162043
C95   C     C_R   0.177123 0.431396 0.553806 0.161858
C96   C     C_R   0.803906 0.376670 0.463812 0.128810
C97   C     C_R   0.693945 0.878371 0.461751 -0.157066
C98   C     C_R   0.323825 0.942980 0.521505 -0.144633
C99   C     C_R   0.176168 0.442971 0.478493 -0.144647
C100  C     C_R   0.806055 0.378373 0.538249 -0.157065
H25   H     H_    0.643252 0.865444 0.435638 0.223492
H26   H     H_    0.371847 0.921667 0.550546 0.223723
H27   H     H_    0.128153 0.421634 0.449448 0.223740
H28   H     H_    0.856749 0.365448 0.564361 0.223494
C101  C     C_R   0.753965 0.910374 0.421423 -0.062014
C102  C     C_R   0.264338 0.987385 0.559187 -0.103625
C103  C     C_R   0.235648 0.487415 0.440817 -0.103551
C104  C     C_R   0.746035 0.410374 0.578577 -0.062015
N1    N     N_R   0.883223 0.939171 0.412119 0.113652
O53   O     O_R   0.924626 0.031513 0.420310 -0.163062
O54   O     O_R   0.894609 0.866674 0.358668 -0.359719
N2    N     N_R   0.143417 0.077126 0.553386 0.137190
O55   O     O_R   0.120929 0.184306 0.539347 -0.216379
O56   O     O_R   0.100415 0.002142 0.584408 -0.271953
N3    N     N_R   0.356547 0.577217 0.446634 0.137208
O57   O     O_R   0.379017 0.684404 0.460679 -0.216517
O58   O     O_R   0.399579 0.502233 0.415658 -0.271983
N4    N     N_R   0.616777 0.439167 0.587882 0.113654
O59   O     O_R   0.575371 0.531506 0.579690 -0.163064
O60   O     O_R   0.605392 0.366670 0.641333 -0.359715
N5    N     N_R   0.884316 0.988910 0.559791 0.144689
O61   O     O_R   0.944435 0.932175 0.555082 -0.247276
O62   O     O_R   0.882514 0.095182 0.588597 -0.265999
N6    N     N_R   0.158511 0.100782 0.403744 0.120658
O63   O     O_R   0.090927 0.080481 0.411644 -0.180177
O64   O     O_R   0.179883 0.168225 0.351057 -0.326267
N7    N     N_R   0.341456 0.600816 0.596276 0.120655
O65   O     O_R   0.409043 0.580547 0.588372 -0.180140
O66   O     O_R   0.320075 0.668231 0.648971 -0.326307
N8    N     N_R   0.615682 0.488903 0.440209 0.144689
O67   O     O_R   0.555564 0.432165 0.444919 -0.247381
O68   O     O_R   0.617482 0.595176 0.411404 -0.266007
N9    N     N_R   0.631705 0.852133 0.575471 0.097914
O69   O     O_R   0.581426 0.789071 0.546188 -0.197282
O70   O     O_R   0.618420 0.906986 0.635564 -0.337423
N10   N     N_R   0.387705 0.907527 0.407356 0.119821
O71   O     O_R   0.447546 0.897407 0.441529 -0.256024
O72   O     O_R   0.389562 0.914538 0.337798 -0.328273
N11   N     N_R   0.112290 0.407463 0.592636 0.119783
O73   O     O_R   0.052450 0.397355 0.558459 -0.256002
O74   O     O_R   0.110427 0.414468 0.662194 -0.328206
N12   N     N_R   0.868295 0.352136 0.424528 0.097913
O75   O     O_R   0.918574 0.289075 0.453812 -0.197279
O76   O     O_R   0.881580 0.406990 0.364436 -0.337426
C105  C     C_3   0.560087 0.387605 0.856922 -0.330073
H29   H     H_    0.573327 0.298736 0.834040 0.147895
H30   H     H_    0.529165 0.440957 0.817636 0.168871
H31   H     H_    0.611820 0.429959 0.865701 0.161089
C106  C     C_3   0.439856 0.387499 0.143180 -0.345072
H32   H     H_    0.426616 0.298614 0.166050 0.134314
H33   H     H_    0.470793 0.440809 0.182473 0.155881
H34   H     H_    0.388129 0.429879 0.134421 0.162846
C107  C     C_3   0.060144 0.887499 0.856820 -0.345050
H35   H     H_    0.073384 0.798615 0.833949 0.134317
H36   H     H_    0.029208 0.940810 0.817526 0.155909
H37   H     H_    0.111871 0.929879 0.865578 0.162849
C108  C     C_3   0.939913 0.887605 0.143077 -0.330076
H38   H     H_    0.926673 0.798736 0.165959 0.147892
H39   H     H_    0.970835 0.940957 0.182363 0.168871
H40   H     H_    0.888180 0.929959 0.134298 0.161089
C109  C     C_3   0.837591 0.143299 0.047433 -0.384495
H41   H     H_    0.803431 0.212520 0.068521 0.168751
H42   H     H_    0.872456 0.110728 0.090175 0.154903
H43   H     H_    0.871445 0.183188 0.004806 0.099257
C110  C     C_3   0.162409 0.143282 0.952573 -0.384330
H44   H     H_    0.196548 0.212509 0.931458 0.168827
H45   H     H_    0.127554 0.110639 0.909844 0.154933
H46   H     H_    0.128547 0.183176 0.995191 0.100081
C111  C     C_3   0.337590 0.643283 0.047427 -0.384330
H47   H     H_    0.303452 0.712509 0.068542 0.168828
H48   H     H_    0.372446 0.610640 0.090155 0.154931
H49   H     H_    0.371453 0.683177 0.004808 0.100082
C112  C     C_3   0.662409 0.643299 0.952566 -0.384494
H50   H     H_    0.696568 0.712520 0.931478 0.168752
H51   H     H_    0.627543 0.610727 0.909824 0.154903
H52   H     H_    0.628555 0.683187 0.995194 0.099256
C113  C     C_3   0.356472 0.235288 0.542925 -0.353148
H53   H     H_    0.353324 0.333103 0.537809 0.175479
H54   H     H_    0.315590 0.194204 0.508598 0.099779
H55   H     H_    0.343667 0.207844 0.598044 0.129287
C114  C     C_3   0.392981 0.234181 0.388573 -0.330516
H56   H     H_    0.417628 0.296536 0.349406 0.181141
H57   H     H_    0.376170 0.152285 0.359510 0.156109
H58   H     H_    0.345008 0.280590 0.408564 0.162993
C115  C     C_3   0.107090 0.734126 0.611371 -0.330292
H59   H     H_    0.082373 0.795759 0.650924 0.180477
H60   H     H_    0.124380 0.652037 0.639982 0.156127
H61   H     H_    0.154776 0.781383 0.591342 0.163425
C116  C     C_3   0.143518 0.735286 0.457052 -0.353279
H62   H     H_    0.146624 0.833117 0.462071 0.175480
H63   H     H_    0.184403 0.694344 0.491444 0.099825
H64   H     H_    0.156344 0.707716 0.401959 0.129250

loop_
_geom_bond_atom_site_label_1
_geom_bond_atom_site_label_2
_geom_bond_distance
_ccdc_geom_bond_type
C41   H5    1.080148 S    
C18   O42   1.278448 A    
Cr11  O51   2.000928 S    
N3    O57   1.294588 A    
O4    C12   1.298343 A    
C108  H39   1.110610 S    
O47   Cr11  1.940379 S    
C77   C78   1.405100 A    
O39   C19   1.279153 A    
O20   Cr12  2.058225 S    
O5    Cr1   1.960519 S    
C39   C107  1.509296 S    
C70   C73   1.386170 A    
O15   C7    1.292531 A    
C43   C44   1.386103 A    
C53   C57   1.393939 A    
C56   C60   1.393937 A    
N10   O71   1.302197 A    
C60   C64   1.375757 A    
N12   O76   1.301448 A    
C82   N2    1.432587 S    
C29   C30   1.421133 A    
C10   C66   1.481201 S    
O1    C9    1.298342 A    
C38   C44   1.396748 A    
C55   C59   1.393916 A    
N3    O58   1.299432 A    
C59   C63   1.375830 A    
C109  H41   1.078688 S    
C33   C34   1.369703 A    
C11   C67   1.481202 S    
O36   Cr8   2.062852 S    
C86   N6    1.439401 S    
O24   C12   1.311701 A    
C57   C61   1.375759 A    
C88   N8    1.436890 S    
C51   C55   1.400128 A    
C107  H35   1.107023 S    
C15   C90   1.492480 S    
O25   C21   1.271454 A    
C52   C56   1.400148 A    
C47   C51   1.400975 A    
O30   C14   1.296442 A    
C112  H50   1.078686 S    
C27   C31   1.417060 A    
O47   C23   1.304089 A    
C93   C97   1.390528 A    
C5    C26   1.469852 S    
C50   H14   1.082297 S    
C83   C87   1.397121 A    
C89   C93   1.412418 A    
C100  C104  1.403494 A    
O34   Cr6   2.062852 S    
O8    Cr4   1.960525 S    
C115  H61   1.106132 S    
O23   Cr11  1.934251 S    
C7    C28   1.469907 S    
C46   C66   1.408410 A    
C111  H47   1.078679 S    
C94   C98   1.412117 A    
O32   Cr4   1.954295 S    
C1    O9    1.263415 A    
O44   Cr12  2.050708 S    
C61   C65   1.417842 A    
C57   H17   1.084354 S    
C19   C76   1.442546 S    
C35   C36   1.369705 A    
C13   C92   1.465835 S    
N5    O62   1.301252 A    
C74   C78   1.392912 A    
C59   H19   1.084359 S    
O41   Cr9   2.050712 S    
O11   Cr7   2.063346 S    
C17   C74   1.418916 S    
C4    O12   1.263415 A    
C26   C33   1.398820 A    
C40   C42   1.396768 A    
N2    O55   1.294597 A    
C38   C106  1.509296 S    
C92   C96   1.412417 A    
C30   C38   1.418752 A    
C107  H36   1.110595 S    
C7    O19   1.279852 A    
C64   C112  1.488947 S    
O3    Cr3   2.072780 S    
C113  H53   1.096005 S    
Cr4   O52   1.962735 S    
C99   H27   1.082697 S    
N7    O66   1.301112 A    
O2    Cr2   2.072773 S    
O8    C4    1.289521 A    
C23   C103  1.485650 S    
C29   C37   1.418814 A    
C22   C102  1.485620 S    
Cr6   O50   1.999597 S    
C54   C58   1.393914 A    
C37   C43   1.396769 A    
Cr5   O49   1.999600 S    
O18   Cr10  2.058225 S    
N9    O70   1.301448 A    
C77   C113  1.496644 S    
C106  H32   1.107023 S    
Cr8   O52   1.999597 S    
O17   Cr9   2.058223 S    
C39   C41   1.396746 A    
C79   C115  1.523230 S    
N1    O53   1.300908 A    
C3    O11   1.263441 A    
C61   C109  1.488948 S    
C52   H16   1.082296 S    
O13   Cr5   1.942843 S    
C16   C89   1.465837 S    
C112  H51   1.096858 S    
C80   C116  1.496635 S    
O6    Cr2   1.960525 S    
C91   C95   1.408358 A    
O31   Cr3   1.954301 S    
O24   Cr12  1.934248 S    
O9    Cr5   2.063346 S    
C109  H42   1.096858 S    
C69   C74   1.398712 A    
C32   C40   1.418814 A    
O22   C10   1.311708 A    
C71   H23   1.081926 S    
O48   Cr12  1.940379 S    
C64   C68   1.417844 A    
C72   H24   1.084293 S    
O32   C16   1.289035 A    
C2    C55   1.472463 S    
C72   C75   1.398749 A    
C83   C103  1.418498 A    
C2    O10   1.263441 A    
C3    C54   1.472462 S    
C95   N11   1.444223 S    
C79   C80   1.405070 A    
C82   C102  1.418521 A    
C108  H38   1.106955 S    
O16   Cr8   1.942840 S    
N4    O59   1.300910 A    
C12   C68   1.481067 S    
C15   O35   1.268872 A    
C6    C25   1.469907 S    
O26   Cr2   2.078435 S    
C49   H13   1.082295 S    
O27   C23   1.284830 A    
Cr10  O50   2.000931 S    
C93   N9    1.442678 S    
C40   C108  1.509245 S    
C114  H57   1.108532 S    
O13   C5    1.292584 A    
C96   C100  1.390527 A    
C48   H12   1.080915 S    
O48   C24   1.263924 A    
O12   Cr8   2.063349 S    
Cr9   O49   2.000928 S    
C87   N7    1.439402 S    
C98   H26   1.082698 S    
O7    C3    1.289530 A    
N7    O65   1.301894 A    
O5    C1    1.289522 A    
N9    O69   1.301433 A    
H3    C35   1.083308 S    
C95   C99   1.412120 A    
O46   Cr10  1.940379 S    
O39   Cr7   1.940789 S    
C88   C92   1.435138 A    
O45   Cr9   1.940379 S    
N11   O73   1.302197 A    
O3    C11   1.298362 A    
C75   C79   1.392951 A    
O14   Cr6   1.942840 S    
C28   C35   1.398847 A    
C112  H52   1.111619 S    
C21   C101  1.451737 S    
N5    O61   1.300507 A    
C116  H64   1.099807 S    
O7    Cr3   1.960519 S    
O29   C13   1.289036 A    
Cr2   O50   1.962735 S    
N1    O54   1.301438 A    
O15   Cr7   1.942843 S    
O21   C9    1.311699 A    
C105  H30   1.110611 S    
O35   Cr7   2.062852 S    
Cr1   O49   1.962735 S    
C90   C94   1.408325 A    
O30   Cr2   1.954295 S    
C97   H25   1.083449 S    
C116  H62   1.095982 S    
C76   C80   1.425882 A    
Cr3   O51   1.962735 S    
O26   C22   1.284811 A    
N11   O74   1.301358 A    
N6    O64   1.301112 A    
O21   Cr9   1.934251 S    
C48   C68   1.408392 A    
O27   Cr3   2.078431 S    
C4    C53   1.472460 S    
C106  H33   1.110594 S    
C83   N3    1.432529 S    
C87   C91   1.412152 A    
O37   Cr5   1.940789 S    
O38   C18   1.279144 A    
C78   C114  1.523237 S    
O23   C11   1.311704 A    
C63   C111  1.488909 S    
C114  H58   1.105847 S    
C45   H9    1.080916 S    
C20   C75   1.418946 S    
C25   C29   1.417169 A    
C42   H6    1.080147 S    
C44   H8    1.080147 S    
C6    O18   1.279854 A    
C27   C36   1.398818 A    
C8    O20   1.279785 A    
C81   N1    1.441919 S    
C82   C86   1.397130 A    
O25   Cr1   2.078431 S    
C49   C53   1.400146 A    
C19   O43   1.278468 A    
O45   C21   1.263924 A    
C62   C66   1.417872 A    
C5    O17   1.279785 A    
C106  H34   1.096064 S    
C109  H43   1.111618 S    
O37   C17   1.277824 A    
O22   Cr10  1.934248 S    
Cr7   O51   1.999600 S    
H1    C33   1.083313 S    
C113  H55   1.099797 S    
O14   C6    1.292530 A    
C37   C105  1.509244 S    
C14   C91   1.492467 S    
C98   C102  1.411837 A    
C86   C90   1.412183 A    
C85   N5    1.436891 S    
C60   H20   1.084354 S    
C97   C101  1.403492 A    
N10   O72   1.301356 A    
C25   C34   1.398847 A    
C24   C104  1.451735 S    
C110  H46   1.111616 S    
C81   C101  1.394766 A    
C48   C52   1.400936 A    
C17   O41   1.266945 A    
O42   Cr10  2.050708 S    
C47   H11   1.080908 S    
C71   C76   1.386166 A    
C31   C39   1.418752 A    
C14   O34   1.268900 A    
C94   N10   1.444219 S    
O40   Cr8   1.940795 S    
C31   C32   1.421133 A    
C100  H28   1.083450 S    
N8    O68   1.301253 A    
C20   O44   1.266976 A    
C111  H49   1.111617 S    
O1    Cr1   2.072780 S    
C107  H37   1.096063 S    
H2    C34   1.083310 S    
C116  H63   1.103143 S    
C69   C70   1.374890 A    
C96   N12   1.442679 S    
C62   C110  1.488909 S    
C113  H54   1.103057 S    
C9    C65   1.481067 S    
C41   C42   1.386105 A    
C8    C27   1.469853 S    
C43   H7    1.080147 S    
C81   C85   1.388459 A    
O2    C10   1.298362 A    
N8    O67   1.300507 A    
C110  H44   1.078677 S    
Cr12  O52   2.000931 S    
O31   C15   1.296475 A    
C58   C62   1.375830 A    
C46   H10   1.080908 S    
C63   C67   1.417871 A    
C28   C32   1.417169 A    
C84   N4    1.441921 S    
C115  H60   1.108838 S    
O33   Cr5   2.062852 S    
C13   O33   1.254206 A    
C58   H18   1.084360 S    
N4    O60   1.301437 A    
O10   Cr6   2.063349 S    
C69   H21   1.084293 S    
N12   O75   1.301433 A    
C105  H31   1.096099 S    
C51   H15   1.082297 S    
O4    Cr4   2.072773 S    
C47   C67   1.408411 A    
C84   C104  1.394767 A    
O6    C2    1.289529 A    
H4    C36   1.083313 S    
O29   Cr1   1.954301 S    
O19   Cr11  2.058223 S    
C1    C56   1.472459 S    
O28   Cr4   2.078435 S    
C16   O36   1.254205 A    
O28   C24   1.271456 A    
O40   C20   1.277849 A    
O46   C22   1.304091 A    
C50   C54   1.400127 A    
N2    O56   1.299463 A    
C110  H45   1.096833 S    
C108  H40   1.096099 S    
O43   Cr11  2.050712 S    
C71   C72   1.374919 A    
C70   H22   1.081927 S    
C26   C30   1.417059 A    
C99   C103  1.411824 A    
C45   C65   1.408392 A    
C46   C50   1.400975 A    
C111  H48   1.096833 S    
C85   C89   1.435133 A    
C114  H56   1.109888 S    
C18   C73   1.442530 S    
C45   C49   1.400936 A    
O16   C8    1.292584 A    
C73   C77   1.425929 A    
C84   C88   1.388459 A    
C105  H29   1.106954 S    
N6    O63   1.301894 A    
O38   Cr6   1.940795 S    
C115  H59   1.110206 S    
