data_mof_unit_26003.cif
_audit_creation_date              2012-12-11T15:57:37-0500
_audit_creation_method            fapswitch 2.2
_symmetry_space_group_name_H-M    P1
_symmetry_Int_Tables_number       1
_space_group_crystal_system       triclinic
_cell_length_a                    10.746502
_cell_length_b                    10.750114
_cell_length_c                    16.997811
_cell_angle_alpha                 99.93645
_cell_angle_beta                  99.702348
_cell_angle_gamma                 61.070054
_cell_volume                      1684.60557987

loop_
_atom_site_label
_atom_site_type_symbol
_atom_type_description
_atom_site_fract_x
_atom_site_fract_y
_atom_site_fract_z
_atom_type_partial_charge
C1    C     C_R   0.354589 0.775416 0.401534 0.575019
C2    C     C_2   0.822422 0.334042 0.157250 -0.049446
C3    C     C_2   0.829092 0.225154 0.190074 0.202076
C4    C     C_2   0.800068 0.247315 0.273434 -0.175791
C5    C     C_2   0.328408 0.856095 0.334429 -0.004532
C6    C     C_2   0.346082 0.821967 0.156926 -0.115190
C7    C     C_2   0.426416 0.860363 0.214536 -0.169806
C8    C     C_2   0.441698 0.826923 0.296220 -0.139176
C9    C     C_2   0.384666 0.403195 0.681416 -0.032501
C10   C     C_2   0.335648 0.328164 0.825535 -0.064778
C11   C     C_2   0.460201 0.322757 0.816018 -0.036440
C12   C     C_R   0.369341 0.345948 0.357227 0.560428
C13   C     C_2   0.488432 0.323026 0.734428 -0.126143
C14   C     C_1   0.846114 0.329121 0.705073 -0.044162
C15   C     C_1   0.893472 0.293299 0.771401 -0.048212
C16   C     C_1   0.358736 0.766338 0.713419 -0.042385
C17   C     C_1   0.325678 0.812776 0.780328 -0.040349
C18   C     C_R   0.892539 0.308759 0.086144 0.570865
C19   C     C_R   0.319125 0.300453 0.119665 0.546859
C20   C     C_R   0.294508 0.890862 0.083583 0.549315
C21   C     C_R   0.943755 0.272795 0.853734 0.547326
C22   C     C_R   0.309925 0.294076 0.896306 0.539408
C23   C     C_R   0.775095 0.376870 0.404126 0.558987
C24   C     C_R   0.280428 0.881133 0.857234 0.538535
C25   C     C_R   0.381176 0.715601 0.631360 0.530980
C26   C     C_R   0.411035 0.383637 0.597471 0.572017
C27   C     C_R   0.777154 0.379126 0.629049 0.535731
C28   C     C_1   0.343062 0.336008 0.273876 -0.043065
C29   C     C_1   0.331385 0.327099 0.202989 -0.037702
C30   C     C_2   0.838878 0.330405 0.329193 -0.148710
Cr1   Cr    Cr6+3 0.608020 0.610770 0.522990 1.033554
Cr2   Cr    Cr6+3 0.289390 0.599570 0.488050 1.021368
Cr3   Cr    Cr6+3 0.602610 0.289690 0.489020 1.018690
Cr4   Cr    Cr6+3 0.053780 0.052210 0.965970 1.058307
Cr5   Cr    Cr6+3 0.060060 0.372530 0.992430 1.028089
Cr6   Cr    Cr6+3 0.372600 0.061970 0.991430 1.035356
H1    H     H_    0.594494 0.249493 0.716275 0.140777
H2    H     H_    0.259592 0.329068 0.774730 0.099618
H3    H     H_    0.741686 0.196442 0.287766 0.157861
H4    H     H_    0.783909 0.440155 0.189868 0.058510
H5    H     H_    0.899153 0.379568 0.315295 0.101257
H6    H     H_    0.476113 0.921862 0.203158 0.164745
H7    H     H_    0.550392 0.762374 0.321529 0.150934
H8    H     H_    0.298139 0.759756 0.169826 0.120620
O1    O     O_R   0.749250 0.499990 0.439200 -0.507994
O2    O     O_R   0.299400 0.468710 0.556310 -0.506592
O3    O     O_R   0.489240 0.256450 0.560730 -0.495943
O4    O     O_R   0.723350 0.306730 0.584410 -0.520666
O5    O     O_3   0.500010 0.500010 0.500020 -0.298853
O6    O     O_R   0.170650 0.915100 0.051290 -0.484312
O7    O     O_R   0.941960 0.184500 0.049060 -0.422568
O8    O     O_R   0.922640 0.402670 0.071640 -0.524999
O9    O     O_R   0.196880 0.368740 0.083740 -0.497144
O10   O     O_R   0.411120 0.181190 0.091480 -0.506297
O11   O     O_R   0.364220 0.944920 0.062310 -0.499661
O12   O     O_R   0.477870 0.725740 0.440280 -0.496367
O13   O     O_R   0.158740 0.906940 0.874970 -0.515078
O14   O     O_R   0.930920 0.176940 0.885610 -0.507990
O15   O     O_R   0.910730 0.394510 0.895320 -0.506922
O16   O     O_R   0.185840 0.361180 0.920280 -0.512547
O17   O     O_R   0.399210 0.173040 0.915160 -0.504435
O18   O     O_R   0.353170 0.937370 0.898860 -0.492048
O19   O     O_3   0.162150 0.162240 0.983280 -0.279303
O20   O     O_R   0.260770 0.742210 0.412610 -0.504698
O21   O     O_R   0.297990 0.466320 0.394220 -0.490593
O22   O     O_R   0.487720 0.253870 0.385870 -0.509986
O23   O     O_R   0.721940 0.304340 0.422320 -0.497950
O24   O     O_R   0.750770 0.502570 0.614050 -0.504533
O25   O     O_R   0.479280 0.728140 0.602370 -0.475689
O26   O     O_R   0.262290 0.744790 0.587460 -0.519325
O27   O     O_3   0.862718 0.093646 0.146268 -0.661620
H9    H     H_    0.865392 0.027985 0.181736 0.316035
C31   C     C_3   0.242922 0.528564 0.707450 -0.384226
H10   H     H_    0.156346 0.497562 0.693214 0.140652
H11   H     H_    0.250552 0.568963 0.771778 0.135139
H12   H     H_    0.206924 0.622334 0.675023 0.167113
C32   C     C_3   0.175457 0.956193 0.306098 -0.374595
H13   H     H_    0.168374 0.027722 0.263712 0.154672
H14   H     H_    0.119790 0.893560 0.276844 0.143278
H15   H     H_    0.118967 0.025812 0.358446 0.138200
C33   C     C_3   0.573553 0.308358 0.884617 -0.347220
H16   H     H_    0.656063 0.327645 0.865884 0.157687
H17   H     H_    0.525684 0.389138 0.935804 0.126566
H18   H     H_    0.625425 0.199507 0.904196 0.171968

loop_
_geom_bond_atom_site_label_1
_geom_bond_atom_site_label_2
_ccdc_geom_bond_type
C27   O4    A    
C23   O1    A    
C2    C18   S    
C31   H10   S    
C8    H7    S    
C33   H16   S    
C18   O8    A    
C7    C8    S    
C32   H13   S    
C11   C33   S    
Cr4   O7    S    
C12   C28   S    
C1    C5    S    
C28   C29   T    
C1    O12   A    
C21   O15   A    
C22   O16   A    
Cr5   O9    S    
Cr3   O5    S    
Cr5   O15   S    
C7    H6    S    
C23   O23   A    
C9    C13   D    
C20   O6    A    
C27   O24   A    
C16   C17   T    
Cr3   O22   S    
Cr4   O13   S    
C30   H5    S    
Cr1   O12   S    
Cr6   O19   S    
C14   C27   S    
C13   H1    S    
C19   O9    A    
C6    H8    S    
C31   H11   S    
C9    C31   S    
Cr1   O5    S    
C20   O11   A    
Cr6   O18   S    
C33   H17   S    
C9    C26   S    
C32   H14   S    
Cr1   O24   S    
Cr4   O6    S    
C17   C24   S    
C23   C30   S    
Cr2   O20   S    
C24   O13   A    
Cr2   O26   S    
C12   O22   A    
C10   C22   S    
Cr5   O16   S    
C3    O27   S    
C4    H3    S    
C15   C21   S    
C26   O3    A    
C19   O10   A    
Cr3   O3    S    
C31   H12   S    
C25   O25   A    
C5    C32   S    
Cr6   O17   S    
C19   C29   S    
C1    O20   A    
C33   H18   S    
Cr3   O23   S    
C32   H15   S    
C16   C25   S    
C24   O18   A    
Cr2   O2    S    
C5    C8    D    
C6    C7    D    
C18   O7    A    
C6    C20   S    
C12   O21   A    
C10   H2    S    
C2    C3    D    
C21   O14   A    
Cr6   O11   S    
C22   O17   A    
C11   C13   S    
Cr4   O19   S    
Cr2   O5    S    
Cr6   O10   S    
C10   C11   D    
C26   O2    A    
C2    H4    S    
Cr1   O25   S    
O27   H9    S    
Cr1   O1    S    
Cr5   O8    S    
Cr4   O14   S    
Cr3   O4    S    
C14   C15   T    
Cr5   O19   S    
C25   O26   A    
C4    C30   D    
C3    C4    S    
Cr2   O21   S    
