data_mof_unit_59886.cif
_audit_creation_date              2012-12-10T17:42:16-0500
_audit_creation_method            fapswitch 2.2
_symmetry_space_group_name_H-M    P1
_symmetry_Int_Tables_number       1
_space_group_crystal_system       triclinic
_cell_length_a                    15.043091
_cell_length_b                    13.810416
_cell_length_c                    10.830594
_cell_angle_alpha                 89.272111
_cell_angle_beta                  87.732638
_cell_angle_gamma                 89.976568
_cell_volume                      2248.12743412

loop_
_atom_site_label
_atom_site_type_symbol
_atom_type_description
_atom_site_fract_x
_atom_site_fract_y
_atom_site_fract_z
_atom_type_partial_charge
C1    C     C_R   0.328854 0.500093 0.500379 0.777492
C2    C     C_3   0.603070 0.507739 0.916950 -0.094213
C3    C     C_R   0.816094 0.431621 0.430034 -0.180750
C4    C     C_R   0.768063 0.502084 0.495232 -0.019255
C5    C     C_R   0.812270 0.575931 0.554468 -0.199828
C6    C     C_R   0.904809 0.576759 0.554588 0.068504
C7    C     C_R   0.953765 0.503798 0.492299 0.070920
C8    C     C_R   0.909363 0.431267 0.426200 0.034971
C9    C     C_R   0.948393 0.648906 0.618197 -0.159492
C10   C     C_R   0.041332 0.650054 0.623392 -0.023897
C11   C     C_R   0.091454 0.576959 0.560936 0.026896
C12   C     C_R   0.499651 0.500290 0.259727 0.710092
C13   C     C_R   0.046904 0.503571 0.496280 0.072649
C14   C     C_R   0.095629 0.429607 0.435428 0.080029
C15   C     C_R   0.052113 0.359030 0.369019 -0.167858
C16   C     C_R   0.959443 0.359709 0.361079 -0.038051
C17   C     C_R   0.184818 0.575304 0.558883 -0.227073
C18   C     C_R   0.232257 0.500701 0.500222 -0.051864
C19   C     C_R   0.187905 0.427801 0.439714 -0.219323
C20   C     C_R   0.438278 0.792633 0.572506 0.018867
C21   C     C_R   0.440614 0.205776 0.575995 0.022461
C22   C     C_R   0.560053 0.796634 0.426592 0.122596
C23   C     C_R   0.555644 0.205792 0.420024 0.193510
C24   C     C_R   0.549165 0.898123 0.408100 -0.131005
C25   C     C_R   0.546214 0.103983 0.404664 -0.046511
C26   C     C_R   0.671235 0.500294 0.498801 0.846475
C27   C     C_R   0.491408 0.948493 0.489756 0.088179
C28   C     C_R   0.491306 0.051758 0.489741 0.067039
C29   C     C_R   0.435962 0.895683 0.573901 0.007708
C30   C     C_R   0.437153 0.102762 0.575607 0.005156
C31   C     C_R   0.593361 0.950938 0.310072 -0.104920
C32   C     C_R   0.588761 0.052857 0.305853 -0.022462
C33   C     C_R   0.380408 0.049493 0.657769 -0.165552
C34   C     C_R   0.379446 0.947253 0.656445 -0.171046
C35   C     C_R   0.498581 0.499373 0.739605 0.822034
C36   C     C_3   0.430852 0.573598 0.071620 -0.157638
C37   C     C_3   0.478774 0.395468 0.070619 -0.145551
C38   C     C_3   0.443522 0.582492 0.929206 -0.371307
C39   C     C_3   0.461900 0.402602 0.931255 -0.469789
C40   C     C_3   0.600070 0.529001 0.063552 -0.177840
C41   C     C_3   0.502006 0.499886 0.120599 -0.146571
C42   C     C_3   0.502978 0.498546 0.876457 0.018132
Cu1   Cu    Cu3+1 0.499990 0.597420 0.500010 0.987414
Cu2   Cu    Cu3+1 0.499990 0.402580 0.500010 0.989215
H1    H     H_    0.440469 0.646551 0.109663 0.113373
H2    H     H_    0.538220 0.349123 0.083030 0.154421
H3    H     H_    0.222265 0.631083 0.602428 0.127683
H4    H     H_    0.225610 0.371160 0.392886 0.158121
H5    H     H_    0.091153 0.304319 0.320537 0.188999
H6    H     H_    0.392892 0.751526 0.632923 0.122063
H7    H     H_    0.397129 0.245588 0.639153 0.128846
H8    H     H_    0.337119 0.086857 0.723748 0.151579
H9    H     H_    0.335430 0.908524 0.721407 0.148466
H10   H     H_    0.378772 0.583636 0.883144 0.197656
H11   H     H_    0.389351 0.401617 0.914020 0.196677
H12   H     H_    0.474113 0.653821 0.906111 0.202515
H13   H     H_    0.490138 0.337060 0.885695 0.192538
H14   H     H_    0.779427 0.378216 0.382335 0.155187
H15   H     H_    0.774411 0.631605 0.602868 0.148830
H16   H     H_    0.909207 0.703669 0.666346 0.195895
N1    N     N_R   0.499930 0.743810 0.499950 -0.196724
N2    N     N_R   0.499930 0.256190 0.499950 -0.211836
O1    O     O_R   0.370250 0.582280 0.500040 -0.597001
O2    O     O_R   0.370250 0.417720 0.500040 -0.581797
O3    O     O_R   0.499970 0.582270 0.317700 -0.567128
O4    O     O_R   0.499970 0.417730 0.317700 -0.591517
O5    O     O_R   0.629730 0.582260 0.499980 -0.556473
O6    O     O_R   0.629730 0.417740 0.499980 -0.574875
O7    O     O_R   0.500000 0.582270 0.682320 -0.565125
O8    O     O_R   0.500000 0.417730 0.682320 -0.570975
C43   C     C_2   0.082889 0.726688 0.697743 0.409693
H17   H     H_    0.149598 0.719110 0.730378 0.057515
O9    O     O_2   0.041713 0.799938 0.725859 -0.506536
C44   C     C_2   0.917958 0.286560 0.281547 0.473214
H18   H     H_    0.853205 0.298571 0.243967 0.107526
O10   O     O_2   0.957085 0.211820 0.254391 -0.504083
C45   C     C_2   0.648685 0.756865 0.395074 0.442926
H19   H     H_    0.706661 0.788314 0.435650 0.062203
O11   O     O_2   0.659044 0.693731 0.318931 -0.534450
C46   C     C_2   0.634713 0.253683 0.364514 0.400722
H20   H     H_    0.628707 0.317125 0.307698 0.065846
O12   O     O_2   0.708283 0.219161 0.379793 -0.566888
C47   C     C_1   0.637145 0.902396 0.206325 0.261715
N3    N     N_1   0.672468 0.865675 0.122490 -0.165213
C48   C     C_1   0.619471 0.103225 0.193157 0.309895
N4    N     N_1   0.643668 0.143070 0.103330 -0.262504
C49   C     C_2   0.336214 0.550774 0.116786 0.355229
H21   H     H_    0.320513 0.548396 0.215454 0.067667
O13   O     O_2   0.276747 0.535813 0.045838 -0.550378
C50   C     C_2   0.402202 0.341055 0.135710 0.409098
H22   H     H_    0.334285 0.366116 0.131202 0.100804
O14   O     O_2   0.415958 0.265264 0.191103 -0.550081
C51   C     C_2   0.621065 0.635628 0.086581 0.546200
H23   H     H_    0.571886 0.686491 0.120351 0.075466
O15   O     O_2   0.696492 0.666947 0.067101 -0.455489
C52   C     C_2   0.673512 0.475660 0.131312 0.348773
H24   H     H_    0.663908 0.455652 0.227267 0.048560
O16   O     O_2   0.748335 0.466666 0.084634 -0.521557
C53   C     C_2   0.656063 0.585985 0.842891 0.462197
H25   H     H_    0.726003 0.574286 0.818778 0.116764
O17   O     O_2   0.624030 0.664603 0.817219 -0.553980
C54   C     C_2   0.650522 0.411843 0.884171 0.355562
H26   H     H_    0.656113 0.353940 0.951785 0.123978
O18   O     O_2   0.678784 0.396000 0.778961 -0.538330

loop_
_geom_bond_atom_site_label_1
_geom_bond_atom_site_label_2
_ccdc_geom_bond_type
C49   H21   S    
C51   H23   S    
C27   C29   A    
Cu2   O4    S    
C24   C27   A    
C40   C51   S    
C6    C9    A    
Cu1   O1    S    
C7    C8    A    
C45   H19   S    
Cu2   O2    S    
C33   H8    S    
C1    C18   S    
C44   O10   D    
C37   C50   S    
C16   C44   S    
C26   O5    A    
C38   C42   S    
C5    C6    A    
C2    C54   S    
C15   C16   A    
C39   H13   S    
C31   C47   S    
C18   C19   A    
C8    C16   A    
C20   N1    A    
C35   C42   S    
C20   H6    S    
C23   N2    A    
C39   H11   S    
C31   C32   A    
C35   O8    A    
C52   O16   D    
Cu2   O8    S    
C23   C46   S    
C9    C10   A    
C10   C43   S    
C25   C32   A    
C23   C25   A    
C51   O15   D    
C13   C14   A    
C36   C41   S    
C40   C52   S    
C1    O1    A    
C33   C34   A    
C39   C42   S    
C20   C29   A    
C45   O11   D    
C36   C49   S    
C44   H18   S    
C5    H15   S    
C46   O12   D    
C3    C8    A    
C43   O9    D    
C19   H4    S    
C4    C5    A    
Cu2   N2    S    
C48   N4    T    
C12   O4    A    
C29   C34   A    
C25   C28   A    
Cu1   Cu2   S    
C12   C41   S    
C50   O14   D    
C47   N3    T    
C38   H10   S    
Cu1   O3    S    
C52   H24   S    
C17   C18   A    
C36   H1    S    
C54   O18   D    
C21   N2    A    
C40   C41   S    
C53   O17   D    
C2    C53   S    
C49   O13   D    
C22   C24   A    
Cu2   O6    S    
C3    C4    A    
C1    O2    A    
C21   H7    S    
Cu1   N1    S    
C21   C30   A    
C11   C17   A    
C30   C33   A    
C14   C19   A    
C17   H3    S    
C22   C45   S    
C46   H20   S    
C4    C26   S    
C6    C7    A    
C12   O3    A    
C53   H25   S    
C9    H16   S    
C26   O6    A    
C36   C38   S    
C24   C31   A    
C43   H17   S    
C37   C39   S    
C22   N1    A    
C11   C13   A    
C50   H22   S    
C2    C42   S    
C32   C48   S    
C28   C30   A    
C15   H5    S    
C37   C41   S    
C54   H26   S    
C10   C11   A    
C3    H14   S    
C2    C40   S    
C7    C13   A    
C38   H12   S    
C35   O7    A    
C34   H9    S    
Cu1   O5    S    
C27   C28   A    
C14   C15   A    
C37   H2    S    
Cu1   O7    S    
