data_mof_unit_9512.cif
_audit_creation_date              2013-03-05T15:55:01-0500
_audit_creation_method            fapswitch 2.2
_symmetry_space_group_name_H-M    P1
_symmetry_Int_Tables_number       1
_space_group_crystal_system       triclinic
_cell_length_a                    6.929339
_cell_length_b                    14.560636
_cell_length_c                    16.201296
_cell_angle_alpha                 90.450782
_cell_angle_beta                  89.968904
_cell_angle_gamma                 90.149991
_cell_volume                      1634.58278835

loop_
_atom_site_label
_atom_site_type_symbol
_atom_site_description
_atom_site_fract_x
_atom_site_fract_y
_atom_site_fract_z
_atom_type_partial_charge
O1    O     O_R   0.505810 0.583360 0.413880 -0.597897
O2    O     O_R   0.175870 0.595480 0.585520 -0.600984
O3    O     O_R   0.005540 0.416640 0.586120 -0.589089
C1    C     C_R   0.345009 0.617660 0.614655 0.921612
O4    O     O_R   0.176100 0.594390 0.414490 -0.600987
O5    O     O_R   0.005770 0.415540 0.413870 -0.595153
C2    C     C_R   0.345305 0.616436 0.385689 0.916388
O6    O     O_R   0.505580 0.584460 0.586130 -0.598854
O7    O     O_3   0.339190 0.441320 0.500000 -0.264062
V1    V     V_3+5 0.064350 0.510890 0.500000 1.160112
O8    O     O_R   0.676050 0.404520 0.414480 -0.603581
C3    C     C_R   0.844910 0.382361 0.385600 0.963209
O9    O     O_R   0.675830 0.405610 0.585510 -0.599736
C4    C     C_R   0.844560 0.385604 0.615023 1.006791
V2    V     V_3+5 0.564340 0.489110 0.500000 1.162933
O10   O     O_3   0.839370 0.558680 0.500000 -0.283603
C5    C     C_2   0.728605 0.215498 0.790887 -0.247470
C6    C     C_2   0.888363 0.167227 0.811660 0.079287
H1    H     H_    0.601673 0.211193 0.830019 0.172153
C7    C     C_2   0.710849 0.275595 0.717182 0.005856
C8    C     C_2   0.859716 0.324144 0.686613 -0.417922
H2    H     H_    0.567898 0.283905 0.690873 0.163020
H3    H     H_    0.999717 0.321158 0.716354 0.185544
C9    C     C_R   0.042127 0.241060 0.206065 0.565440
C10   C     C_R   0.029491 0.302811 0.272835 -0.291236
H4    H     H_    0.156094 0.342827 0.289137 0.150453
C11   C     C_R   0.856077 0.314633 0.316616 -0.185704
C12   C     C_R   0.694658 0.262138 0.293127 -0.118983
H5    H     H_    0.558566 0.269634 0.325361 0.149087
C13   C     C_R   0.707564 0.198024 0.228554 -0.169269
H6    H     H_    0.580906 0.157556 0.213451 0.192602
C14   C     C_R   0.881024 0.185750 0.184440 -0.312694
C15   C     C_R   0.188358 0.723863 0.718644 -0.135652
H7    H     H_    0.047505 0.705901 0.694441 0.120580
C16   C     C_R   0.199634 0.786100 0.784958 -0.113586
H8    H     H_    0.066904 0.814405 0.809456 0.123691
C17   C     C_R   0.379295 0.811586 0.818956 -0.130643
C18   C     C_R   0.547354 0.773056 0.784560 -0.130996
H9    H     H_    0.688210 0.791029 0.808755 0.119730
C19   C     C_R   0.536080 0.710823 0.718243 -0.129142
H10   H     H_    0.668814 0.682539 0.693732 0.121772
C20   C     C_R   0.356414 0.685300 0.684269 -0.128114
C21   C     C_R   0.188474 0.723087 0.283856 -0.140292
H11   H     H_    0.047628 0.704713 0.307626 0.121132
C22   C     C_R   0.199612 0.786210 0.219145 -0.133478
H12   H     H_    0.066824 0.814627 0.195275 0.122927
C23   C     C_R   0.379254 0.812354 0.185887 -0.123848
C24   C     C_R   0.547436 0.773512 0.219277 -0.141021
H13   H     H_    0.688276 0.791884 0.195499 0.119764
C25   C     C_R   0.536297 0.710386 0.283991 -0.133478
H14   H     H_    0.669076 0.681958 0.307860 0.122428
C26   C     C_R   0.356657 0.684286 0.317280 -0.124001
O11   O     O_R   0.230120 0.912300 0.917180 -0.594957
O12   O     O_R   0.559740 0.902430 0.088770 -0.602457
O13   O     O_R   0.729930 0.081310 0.089370 -0.600945
C27   C     C_R   0.390562 0.880299 0.117553 0.914746
O14   O     O_R   0.559840 0.901330 0.917750 -0.599888
O15   O     O_R   0.730030 0.080210 0.917120 -0.598497
C28   C     C_R   0.390700 0.879175 0.888602 0.941173
O16   O     O_R   0.230020 0.913400 0.089430 -0.600744
O17   O     O_3   0.396460 0.055470 0.003290 -0.260025
V3    V     V_3+5 0.671360 0.985960 0.003250 1.163438
O18   O     O_R   0.059740 0.091300 0.917690 -0.551992
C29   C     C_R   0.891766 0.110932 0.887672 0.867313
O19   O     O_R   0.059640 0.092400 0.088720 -0.555970
C30   C     C_R   0.890924 0.115686 0.116866 0.952283
V4    V     V_3+5 0.171350 0.007820 0.003190 1.207345
O20   O     O_3   0.896380 0.938200 0.003220 -0.288936
N1    N     N_R   0.050280 0.160200 0.756182 0.244729
O21   O     O_R   0.225731 0.167723 0.784044 -0.424433
O22   O     O_R   0.023315 0.135222 0.679725 -0.373944
O23   O     O_3   0.215540 0.233528 0.164343 -0.633530
C31   C     C_3   0.222131 0.301863 0.102973 0.281809
H15   H     H_    0.197913 0.371731 0.129662 0.069241
H16   H     H_    0.111482 0.287792 0.054592 0.076403
C32   C     C_3   0.420181 0.301540 0.062369 -0.874722
H17   H     H_    0.452021 0.232623 0.036123 0.276952
H18   H     H_    0.423934 0.352643 0.011865 0.198771
H19   H     H_    0.532672 0.319868 0.108469 0.241801

loop_
_geom_bond_atom_site_label_1
_geom_bond_atom_site_label_2
_geom_bond_distance
_ccdc_geom_bond_type
O15   V3    2.005586 S    
C18   C19   1.402134 A    
C31   H15   1.115328 S    
C16   H8    1.082730 S    
C32   H19   1.110439 S    
C1    O6    1.297687 A    
O11   C28   1.297638 A    
O14   V3    2.000942 S    
C22   H12   1.082729 S    
C15   C20   1.406886 A    
C4    C8    1.474475 S    
C12   H5    1.083074 S    
C16   C17   1.409282 A    
C32   H18   1.110537 S    
C2    C26   1.492410 S    
O5    C3    1.296097 A    
C13   H6    1.082869 S    
C21   C26   1.406954 A    
O14   C28   1.302665 A    
V2    O10   2.155925 S    
O13   V3    2.001541 S    
C5    C7    1.491284 S    
N1    O22   1.301691 A    
C5    H1    1.085918 S    
O8    V2    2.003228 S    
O16   V4    2.010304 S    
O19   V4    2.003250 S    
C25   C26   1.408837 A    
O1    V2    2.007040 S    
O7    V1    2.159444 S    
C6    N1    1.440561 S    
C24   C25   1.401699 A    
O9    C4    1.298107 A    
C31   H16   1.114244 S    
O17   V3    2.159397 S    
C25   H14   1.082729 S    
O12   C27   1.302058 A    
C22   C23   1.408826 A    
C8    H3    1.084540 S    
O15   C29   1.297653 A    
O18   V4    2.006741 S    
C3    C11   1.486807 S    
V4    O20   2.155900 S    
C32   H17   1.109415 S    
O4    C2    1.302027 A    
O12   V3    2.004402 S    
C10   H4    1.083517 S    
C27   O16   1.297782 A    
O2    C1    1.302680 A    
C21   H11   1.082702 S    
C9    C14   1.417331 A    
C17   C18   1.406856 A    
O17   V4    1.705542 S    
C23   C24   1.406975 A    
C5    C6    1.356819 D    
C9    C10   1.404030 A    
C21   C22   1.401631 A    
C17   C28   1.493380 S    
O3    C4    1.291481 A    
C19   H10   1.082722 S    
C7    H2    1.086011 S    
O6    V2    2.003089 S    
O9    V2    2.006706 S    
C31   C32   1.521555 S    
O2    V1    2.000809 S    
O13   C30   1.299087 A    
C9    O23   1.382572 S    
C14   C30   1.492223 S    
C24   H13   1.082701 S    
O1    C2    1.297818 A    
O23   C31   1.412800 S    
O5    V1    2.001667 S    
O8    C3    1.300434 A    
C10   C11   1.405326 A    
V3    O20   1.708948 S    
C12   C13   1.399628 A    
O7    V2    1.706624 S    
O4    V1    2.004370 S    
O3    V1    2.005668 S    
V1    O10   1.708875 S    
C13   C14   1.409119 A    
C6    C29   1.484934 S    
C18   H9    1.082709 S    
C1    C20   1.493479 S    
C19   C20   1.409293 A    
C15   C16   1.402146 A    
C15   H7    1.082702 S    
N1    O21   1.301131 A    
O11   V4    2.003465 S    
O18   C29   1.295203 A    
C7    C8    1.345448 D    
O19   C30   1.299513 A    
C11   C12   1.404124 A    
C23   C27   1.492422 S    
