data_mof_unit_34161.cif
_audit_creation_date              2012-12-10T17:50:11-0500
_audit_creation_method            fapswitch 2.2
_symmetry_space_group_name_H-M    P1
_symmetry_Int_Tables_number       1
_space_group_crystal_system       triclinic
_cell_length_a                    10.645352
_cell_length_b                    14.767838
_cell_length_c                    14.725311
_cell_angle_alpha                 64.920687
_cell_angle_beta                  104.329168
_cell_angle_gamma                 103.279092
_cell_volume                      2010.82658104

loop_
_atom_site_label
_atom_site_type_symbol
_atom_type_description
_atom_site_fract_x
_atom_site_fract_y
_atom_site_fract_z
_atom_type_partial_charge
C1    C     C_R   0.482503 0.119417 0.312182 0.847855
C2    C     C_R   0.516944 0.880623 0.687684 0.864285
C3    C     C_R   0.468730 0.287878 0.174917 -0.286575
C4    C     C_R   0.519447 0.711477 0.824087 -0.291712
C5    C     C_R   0.475474 0.359036 0.075165 0.087864
C6    C     C_R   0.490552 0.638174 0.918280 0.091017
C7    C     C_R   0.494859 0.324955 0.003727 0.130012
C8    C     C_R   0.462237 0.671654 0.987076 0.137438
C9    C     C_R   0.467911 0.463374 0.045348 0.078850
C10   C     C_R   0.488512 0.532922 0.945715 0.079448
C11   C     C_R   0.503259 0.494669 0.876106 -0.207816
C12   C     C_R   0.439906 0.500508 0.111429 -0.207489
C13   C     C_R   0.505803 0.392764 0.904750 -0.202769
C14   C     C_R   0.436723 0.602456 0.082398 -0.198394
C15   C     C_R   0.714026 0.284974 0.672184 -0.341165
C16   C     C_R   0.285349 0.714638 0.328308 -0.339411
C17   C     C_R   0.684106 0.204502 0.641206 0.193052
C18   C     C_R   0.315895 0.795463 0.358776 0.193705
C19   C     C_R   0.517980 0.285176 0.508547 -0.007935
C20   C     C_R   0.481414 0.714504 0.491914 -0.010541
C21   C     C_R   0.547045 0.370839 0.535842 -0.016435
C22   C     C_R   0.451651 0.628483 0.465134 -0.015879
C23   C     C_R   0.259469 0.000274 0.499405 0.871427
C24   C     C_R   0.740539 0.999743 0.500579 0.862465
C25   C     C_R   0.646374 0.367709 0.620510 0.142963
C26   C     C_R   0.352285 0.631569 0.380501 0.145182
C27   C     C_R   0.481599 0.458579 0.483443 0.086252
C28   C     C_R   0.516602 0.540499 0.517884 0.084402
C29   C     C_R   0.614688 0.531396 0.604095 -0.232644
C30   C     C_R   0.382986 0.467422 0.397585 -0.227283
C31   C     C_R   0.678318 0.446920 0.653830 -0.183244
C32   C     C_R   0.319564 0.551980 0.347715 -0.186551
C33   C     C_3   0.011312 0.915335 0.490759 -0.156751
C34   C     C_3   0.988724 0.084716 0.509229 -0.159433
C35   C     C_3   0.925621 0.996644 0.412550 -0.220756
C36   C     C_3   0.074430 0.003423 0.587427 -0.217261
C37   C     C_3   0.877375 0.999633 0.501229 -0.053348
C38   C     C_3   0.122661 0.000422 0.498754 -0.054568
C39   C     C_3   0.961541 0.919468 0.578409 0.012831
C40   C     C_3   0.038511 0.080599 0.421580 0.012972
C41   C     C_R   0.481639 0.186627 0.204196 -0.050449
C42   C     C_R   0.509675 0.813310 0.794469 -0.029904
C43   C     C_R   0.505955 0.223387 0.032118 -0.222314
C44   C     C_R   0.457019 0.774187 0.959279 -0.235827
C45   C     C_R   0.502077 0.153958 0.132414 0.180149
C46   C     C_R   0.477558 0.845043 0.862588 0.162122
Cu1   Cu    Cu3+1 0.465750 0.918270 0.475680 0.991841
Cu2   Cu    Cu3+1 0.534250 0.081730 0.524320 0.996280
H1    H     H_    0.862831 0.994423 0.340832 0.158543
H2    H     H_    0.137256 0.005628 0.659145 0.164719
H3    H     H_    0.558499 0.719606 0.553242 0.149470
H4    H     H_    0.441010 0.280083 0.447157 0.148899
H5    H     H_    0.791093 0.283059 0.736718 0.149616
H6    H     H_    0.208301 0.716526 0.263766 0.148759
H7    H     H_    0.644767 0.588450 0.635519 0.139558
H8    H     H_    0.352210 0.410060 0.366592 0.137054
H9    H     H_    0.021492 0.845053 0.484719 0.197996
H10   H     H_    0.978577 0.155024 0.515228 0.198606
H11   H     H_    0.518572 0.367105 0.849065 0.153272
H12   H     H_    0.413797 0.627300 0.135222 0.150490
H13   H     H_    0.548840 0.691554 0.770930 0.154691
H14   H     H_    0.457573 0.309675 0.233115 0.159991
H15   H     H_    0.522295 0.198832 0.976754 0.135996
H16   H     H_    0.432737 0.799093 0.011542 0.143175
H17   H     H_    0.510733 0.540958 0.797695 0.142846
H18   H     H_    0.416576 0.452808 0.185783 0.136757
H19   H     H_    0.753691 0.443542 0.719560 0.154874
H20   H     H_    0.243882 0.555191 0.282192 0.151305
N1    N     N_R   0.585750 0.204560 0.560800 -0.222779
N2    N     N_R   0.414250 0.795440 0.439200 -0.223429
O1    O     O_R   0.454850 0.022100 0.338110 -0.555402
O2    O     O_R   0.545150 0.977900 0.661890 -0.547179
O3    O     O_R   0.512700 0.160150 0.379180 -0.590514
O4    O     O_R   0.487300 0.839850 0.620820 -0.593149
O5    O     O_R   0.287930 0.931000 0.479440 -0.569649
O6    O     O_R   0.712070 0.069000 0.520560 -0.570188
O7    O     O_R   0.345780 0.069050 0.520520 -0.578752
O8    O     O_R   0.654220 0.930950 0.479480 -0.583533
C47   C     C_2   0.238400 0.879078 0.300647 0.892747
O9    O     O_2   0.141628 0.880669 0.330115 -0.618919
O10   O     O_R   0.266780 0.949606 0.206081 -0.744412
H21   H     H_    0.204797 0.002031 0.171926 0.333706
C48   C     C_2   0.762178 0.121172 0.698697 0.893125
O11   O     O_2   0.859881 0.120982 0.669456 -0.617866
O12   O     O_R   0.732853 0.048998 0.792348 -0.766366
H22   H     H_    0.795228 0.996854 0.826059 0.332067
C49   C     C_2   0.922137 0.827866 0.667886 0.826926
O13   O     O_2   0.001622 0.770438 0.722040 -0.592833
O14   O     O_R   0.795729 0.808446 0.689306 -0.788211
H23   H     H_    0.781838 0.744363 0.751682 0.321334
C50   C     C_2   0.077994 0.172359 0.332249 0.826331
O15   O     O_2   0.998337 0.229568 0.277889 -0.595030
O16   O     O_R   0.204740 0.192294 0.311315 -0.786466
H24   H     H_    0.218791 0.256652 0.249230 0.321944
N3    N     N_3   0.458941 0.947529 0.832523 -0.541130
H25   H     H_    0.519988 0.975030 0.885541 0.246685
H26   H     H_    0.362115 0.947566 0.836209 0.209640
N4    N     N_3   0.525830 0.052377 0.162435 -0.512068
H27   H     H_    0.618375 0.045336 0.208109 0.204207
H28   H     H_    0.529903 0.038954 0.099038 0.216587

loop_
_geom_bond_atom_site_label_1
_geom_bond_atom_site_label_2
_ccdc_geom_bond_type
C18   N2    A    
C38   C40   S    
C49   O13   D    
C17   N1    A    
O16   H24   S    
C34   C37   S    
Cu2   O6    S    
N3    H25   S    
C39   C49   S    
Cu2   N1    S    
O10   H21   S    
C43   H15   S    
O12   H22   S    
C44   H16   S    
C31   H19   S    
C1    O1    A    
C4    C42   A    
C34   C40   S    
C15   H5    S    
C28   C29   A    
C19   C21   A    
C20   H3    S    
C45   N4    S    
C15   C25   A    
C42   C46   A    
C19   H4    S    
C46   N3    S    
C48   O11   D    
C18   C47   S    
C35   H1    S    
C8    C14   A    
C7    C43   A    
C9    C10   A    
C2    O4    A    
C32   H20   S    
C21   C27   A    
C22   C28   A    
C27   C30   A    
C20   N2    A    
Cu2   O2    S    
C2    O2    A    
C44   C46   A    
C5    C7    A    
C16   C26   A    
C4    C6    A    
C23   O5    A    
C50   O15   D    
C47   O10   S    
C26   C32   A    
C24   O6    A    
C6    C8    A    
C29   H7    S    
C30   H8    S    
C4    H13   S    
C17   C48   S    
Cu2   O7    S    
Cu1   N2    S    
C5    C9    A    
C50   O16   S    
Cu1   Cu2   S    
C29   C31   A    
C24   C37   S    
C33   C39   S    
C23   O7    A    
C43   C45   A    
Cu1   O1    S    
C24   O8    A    
C48   O12   S    
C20   C22   A    
N4    H28   S    
C49   O14   S    
C19   N1    A    
C36   H2    S    
C25   C31   A    
C3    H14   S    
C1    C41   S    
C15   C17   A    
C21   C25   A    
C3    C41   A    
C33   H9    S    
C35   C37   S    
Cu2   O3    S    
C36   C39   S    
C8    C44   A    
Cu1   O4    S    
C12   C14   A    
C3    C5    A    
C6    C10   A    
N3    H26   S    
C13   H11   S    
C23   C38   S    
C14   H12   S    
C33   C38   S    
C1    O3    A    
C36   C38   S    
C35   C40   S    
Cu1   O5    S    
C37   C39   S    
C30   C32   A    
C11   C13   A    
C12   H18   S    
C2    C42   S    
C33   C35   S    
C34   C36   S    
C40   C50   S    
C9    C12   A    
C16   H6    S    
C10   C11   A    
C47   O9    D    
C7    C13   A    
C16   C18   A    
N4    H27   S    
C22   C26   A    
C27   C28   A    
C34   H10   S    
C41   C45   A    
Cu1   O8    S    
O14   H23   S    
C11   H17   S    
