data_mof_unit_58579.cif
_audit_creation_date              2012-12-10T17:25:28-0500
_audit_creation_method            fapswitch 2.2
_symmetry_space_group_name_H-M    P1
_symmetry_Int_Tables_number       1
_space_group_crystal_system       triclinic
_cell_length_a                    10.28574
_cell_length_b                    10.603263
_cell_length_c                    22.837274
_cell_angle_alpha                 91.124806
_cell_angle_beta                  84.794219
_cell_angle_gamma                 95.823625
_cell_volume                      2467.47647223

loop_
_atom_site_label
_atom_site_type_symbol
_atom_type_description
_atom_site_fract_x
_atom_site_fract_y
_atom_site_fract_z
_atom_type_partial_charge
C1    C     C_R   0.555164 0.732634 0.493835 0.918856
C2    C     C_R   0.586174 0.480611 0.284647 -0.282313
C3    C     C_R   0.572363 0.488581 0.768995 0.415772
C4    C     C_R   0.577025 0.498974 0.224683 0.446390
C5    C     C_R   0.517215 0.599120 0.790481 0.152391
C6    C     C_R   0.469473 0.557003 0.207169 0.174045
C7    C     C_2   0.584732 0.865807 0.481739 -0.322161
C8    C     C_2   0.412710 0.132568 0.493012 -0.278771
C9    C     C_2   0.486914 0.930712 0.468795 -0.157237
C10   C     C_2   0.506437 0.065836 0.468024 -0.167430
C11   C     C_2   0.924786 0.486413 0.516525 0.368059
C12   C     C_R   0.444302 0.267059 0.501164 0.947148
C13   C     C_2   0.063527 0.461824 0.511794 0.352605
C14   C     C_R   0.503862 0.503425 0.610493 0.896866
C15   C     C_R   0.496647 0.502003 0.389230 0.863895
C16   C     C_R   0.367952 0.504013 0.118318 0.563880
C17   C     C_R   0.555693 0.713118 0.880756 0.562838
C18   C     C_R   0.521210 0.688394 0.122194 0.669543
C19   C     C_R   0.381755 0.546187 0.878766 0.662116
C20   C     C_R   0.501405 0.720790 0.064625 -0.149328
C21   C     C_R   0.347061 0.561232 0.938941 -0.142484
C22   C     C_R   0.421915 0.634376 0.032275 -0.080759
C23   C     C_R   0.470535 0.680854 0.751943 -0.123304
C24   C     C_R   0.429317 0.645257 0.971038 -0.075460
C25   C     C_R   0.342811 0.531230 0.060277 -0.037130
C26   C     C_R   0.525753 0.733352 0.941818 -0.042445
C27   C     C_R   0.561939 0.833519 0.037549 0.432101
C28   C     C_R   0.238508 0.489202 0.968570 0.419702
C29   C     C_R   0.586703 0.835200 0.975233 0.006008
C30   C     C_R   0.243420 0.461830 0.028873 0.011858
C31   C     C_3   0.140226 0.682053 0.509065 -0.286831
C32   C     C_3   0.168200 0.771949 0.560513 -0.633433
C33   C     C_3   0.894346 0.429926 0.415648 -0.287141
C34   C     C_R   0.371605 0.591921 0.248813 -0.155741
C35   C     C_3   0.845790 0.298588 0.393490 -0.682621
C36   C     C_3   0.677866 0.943483 0.946217 -0.323486
C37   C     C_3   0.604025 0.031049 0.911510 -0.550521
C38   C     C_3   0.145545 0.358127 0.057393 -0.351105
C39   C     C_3   0.044390 0.411728 0.101836 -0.521086
C40   C     C_R   0.470289 0.649799 0.692879 -0.164665
C41   C     C_R   0.379984 0.571367 0.307803 -0.185009
C42   C     C_R   0.516448 0.536332 0.671760 -0.066374
C43   C     C_R   0.487730 0.516535 0.326288 -0.093646
C44   C     C_R   0.569705 0.456973 0.709364 -0.173480
H1    H     H_    0.427488 0.765069 0.768526 0.172921
H2    H     H_    0.683587 0.911255 0.484791 0.166510
H3    H     H_    0.511781 0.044289 0.165675 0.393658
H4    H     H_    0.018318 0.508150 0.852271 0.404479
H5    H     H_    0.251516 0.744772 0.583524 0.263937
H6    H     H_    0.192320 0.870151 0.544100 0.198230
H7    H     H_    0.080301 0.771919 0.592402 0.294735
H8    H     H_    0.209898 0.710438 0.470563 0.188896
H9    H     H_    0.041806 0.696018 0.495402 0.141796
H10   H     H_    0.882414 0.224142 0.419221 0.278565
H11   H     H_    0.737113 0.285333 0.396914 0.250421
H12   H     H_    0.288849 0.635909 0.235161 0.164904
H13   H     H_    0.882488 0.287523 0.346613 0.238221
H14   H     H_    0.003189 0.441734 0.409004 0.158603
H15   H     H_    0.859840 0.502412 0.387972 0.202524
H16   H     H_    0.674078 0.109180 0.892347 0.290591
H17   H     H_    0.555917 0.979953 0.875240 0.255393
H18   H     H_    0.527015 0.072913 0.940561 0.275182
H19   H     H_    0.731186 0.002277 0.978610 0.257249
H20   H     H_    0.759694 0.906816 0.918338 0.257263
H21   H     H_    0.989047 0.479497 0.080423 0.296026
H22   H     H_    0.974302 0.332667 0.119944 0.285835
H23   H     H_    0.430316 0.712591 0.663820 0.157778
H24   H     H_    0.090415 0.462209 0.138788 0.252274
H25   H     H_    0.091508 0.301511 0.024512 0.253616
H26   H     H_    0.196621 0.285077 0.077415 0.258979
H27   H     H_    0.766961 0.525787 0.856965 0.371808
H28   H     H_    0.579927 0.313439 0.125532 0.388665
H29   H     H_    0.935353 0.129425 0.532402 0.378254
H30   H     H_    0.031790 0.471040 0.642501 0.401470
H31   H     H_    0.302880 0.601013 0.338958 0.164958
H32   H     H_    0.603073 0.368257 0.693007 0.209325
H33   H     H_    0.669404 0.438303 0.298838 0.196821
H34   H     H_    0.603884 0.109459 0.453285 0.194626
H35   H     H_    0.387860 0.886079 0.465694 0.182883
H36   H     H_    0.316040 0.087816 0.508167 0.190667
N1    N     N_R   0.455943 0.581672 0.146944 -0.343968
N2    N     N_R   0.486322 0.618652 0.851948 -0.344238
N3    N     N_2   0.842710 0.448880 0.476480 -0.094084
N4    N     N_2   0.157290 0.551120 0.523520 -0.094654
O1    O     O_R   0.431060 0.692470 0.504730 -0.635841
O2    O     O_2   0.655968 0.781440 0.850273 -0.556083
O3    O     O_2   0.610202 0.758076 0.152431 -0.436706
O4    O     O_2   0.317627 0.454439 0.847479 -0.443039
O5    O     O_2   0.727766 0.990264 0.096626 -0.232797
O6    O     O_2   0.562054 0.089578 0.048055 -0.302619
O7    O     O_3   0.486024 0.966425 0.143095 -0.518893
O8    O     O_2   0.094027 0.315373 0.907884 -0.232890
O9    O     O_2   0.971674 0.456597 0.972989 -0.262428
O10   O     O_3   0.086925 0.548974 0.876142 -0.511044
O11   O     O_2   0.529541 0.285727 0.837756 -0.243226
O12   O     O_R   0.568940 0.307530 0.495270 -0.609325
O13   O     O_2   0.744926 0.320142 0.782763 -0.255315
O14   O     O_3   0.696122 0.463492 0.874087 -0.499203
O15   O     O_2   0.796467 0.563619 0.156644 -0.243610
O16   O     O_2   0.773017 0.352249 0.199689 -0.325161
O17   O     O_3   0.637415 0.389964 0.112141 -0.486487
O18   O     O_2   0.142775 0.274723 0.574296 -0.276642
O19   O     O_2   0.141456 0.243178 0.466301 -0.346281
O20   O     O_3   0.921667 0.220405 0.530937 -0.546303
O21   O     O_2   0.802658 0.637958 0.595976 -0.286246
O22   O     O_2   0.799006 0.409412 0.619296 -0.257630
O23   O     O_R   0.651120 0.659650 0.489640 -0.592071
O24   O     O_3   0.008915 0.554558 0.630292 -0.543559
O25   O     O_R   0.348880 0.340350 0.510360 -0.505571
O26   O     O_R   0.389950 0.516450 0.591390 -0.595530
O27   O     O_R   0.610050 0.483550 0.408610 -0.631987
O28   O     O_R   0.610020 0.483630 0.576300 -0.505282
O29   O     O_R   0.389980 0.516370 0.423700 -0.627248
O30   O     O_2   0.310264 0.399218 0.146014 -0.571185
S1    S     S_3+6 0.588085 0.974902 0.081058 0.060874
S2    S     S_3+6 0.092966 0.448465 0.931765 0.080337
S3    S     S_3+6 0.636954 0.384784 0.815986 0.063129
S4    S     S_3+6 0.701147 0.450423 0.173139 0.034463
S5    S     S_3+6 0.073457 0.297077 0.520798 0.031353
S6    S     S_3+6 0.877688 0.523176 0.591343 0.078309
Zn1   Zn    Zn3+2 0.353060 0.521920 0.510080 1.009699
Zn2   Zn    Zn3+2 0.646940 0.478080 0.489920 1.030805

loop_
_geom_bond_atom_site_label_1
_geom_bond_atom_site_label_2
_ccdc_geom_bond_type
C38   H26   S    
C34   H12   S    
C33   H14   S    
C23   H1    S    
C27   C29   A    
C39   H21   S    
C39   H24   S    
O24   S6    S    
C31   H8    S    
O5    S1    D    
C37   H18   S    
C10   H34   S    
O11   S3    D    
C14   O28   A    
C13   N4    D    
H4    O10   S    
O17   S4    S    
C36   C37   S    
C19   C21   A    
C24   C26   A    
O26   Zn1   S    
C38   C39   S    
H28   O17   S    
C23   C40   A    
C25   C30   A    
C18   N1    A    
C30   C38   S    
C14   O26   A    
C17   N2    A    
C9    H35   S    
C44   H32   S    
C28   S2    S    
H29   O20   S    
C22   C25   A    
C5    C23   A    
C15   O29   A    
O21   S6    D    
O1    Zn1   S    
C36   H19   S    
C3    S3    S    
C9    C10   S    
C14   C42   S    
O20   S5    S    
C40   C42   A    
C38   H25   S    
C33   H15   S    
C6    N1    S    
O27   Zn2   S    
C41   C43   A    
C4    S4    S    
C34   C41   A    
C42   C44   A    
C11   S6    S    
C12   O25   A    
C13   S5    S    
C1    O1    A    
H27   O14   S    
C3    C44   A    
C35   H11   S    
C17   O2    S    
C7    H2    S    
C15   O27   A    
C4    C6    A    
C19   O4    S    
O10   S2    S    
C11   N3    D    
N4    Zn1   S    
C40   H23   S    
C31   N4    S    
C6    C34   A    
O9    S2    D    
C2    C4    A    
C32   H7    S    
O28   Zn2   S    
C41   H31   S    
C33   N3    S    
C31   C32   S    
C29   C36   S    
C2    C43   A    
C8    C12   S    
O6    S1    D    
C31   H9    S    
O8    S2    D    
C32   H6    S    
C1    O23   A    
C21   C28   A    
C20   C22   A    
C39   H22   S    
C22   C24   A    
O16   S4    D    
C17   C26   A    
C19   N2    A    
O14   S3    S    
C16   C25   A    
C7    C9    D    
O22   S6    D    
C1    C7    S    
H3    O7    S    
O19   S5    D    
C3    C5    A    
C16   O30   S    
C37   H17   S    
C20   C27   A    
C18   O3    S    
O12   Zn2   S    
C35   H13   S    
C28   C30   A    
C15   C43   S    
C2    H33   S    
O15   S4    D    
C5    N2    S    
C11   C13   S    
O25   Zn1   S    
C16   N1    A    
C33   C35   S    
O7    S1    S    
C18   C20   A    
N3    Zn2   S    
O13   S3    D    
C32   H5    S    
C37   H16   S    
H30   O24   S    
O29   Zn1   S    
C26   C29   A    
C8    C10   D    
C21   C24   A    
C8    H36   S    
C12   O12   A    
O23   Zn2   S    
C36   H20   S    
O18   S5    D    
C35   H10   S    
C27   S1    S    
