data_mof_unit_45046.cif
_audit_creation_date              2012-12-11T14:43:38-0500
_audit_creation_method            fapswitch 2.2
_symmetry_space_group_name_H-M    P1
_symmetry_Int_Tables_number       1
_space_group_crystal_system       triclinic
_cell_length_a                    20.891132
_cell_length_b                    7.107728
_cell_length_c                    16.480872
_cell_angle_alpha                 90.000061
_cell_angle_beta                  93.101976
_cell_angle_gamma                 90.000061
_cell_volume                      2443.63404125

loop_
_atom_site_label
_atom_site_type_symbol
_atom_type_description
_atom_site_fract_x
_atom_site_fract_y
_atom_site_fract_z
_atom_type_partial_charge
O1    O     O_R   0.564840 0.505290 0.579830 -0.532698
O2    O     O_R   0.435160 0.005290 0.420170 -0.532698
O3    O     O_R   0.556720 0.179930 0.409350 -0.533635
O4    O     O_R   0.443280 0.679930 0.590650 -0.533635
C1    C     C_R   0.570593 0.345123 0.381904 0.697971
C2    C     C_R   0.429407 0.845124 0.618096 0.697973
O5    O     O_R   0.572280 0.175810 0.578530 -0.542768
O6    O     O_R   0.427720 0.675810 0.421470 -0.542767
O7    O     O_R   0.450830 0.001920 0.590540 -0.545612
O8    O     O_R   0.549170 0.501920 0.409460 -0.545612
C3    C     C_R   0.589805 0.344535 0.604954 0.698793
C4    C     C_R   0.410195 0.844535 0.395046 0.698794
O9    O     O_3   0.460130 0.338030 0.503750 -0.374578
O10   O     O_3   0.539870 0.838030 0.496250 -0.374579
V1    V     V_3+5 0.507400 0.064560 0.499310 1.407641
V2    V     V_3+5 0.492600 0.564560 0.500690 1.407644
C5    C     C_R   0.141691 0.907600 0.169848 -0.031859
C6    C     C_R   0.858309 0.407598 0.830151 -0.031861
C7    C     C_R   0.357705 0.854787 0.330410 -0.150709
C8    C     C_R   0.642295 0.354788 0.669590 -0.150713
C9    C     C_R   0.319676 0.901035 0.189132 -0.220598
C10   C     C_R   0.680325 0.401058 0.810866 -0.220598
C11   C     C_R   0.371040 0.893092 0.247987 -0.037217
C12   C     C_R   0.628960 0.393107 0.752011 -0.037215
C13   C     C_R   0.292841 0.833179 0.351621 0.209582
C14   C     C_R   0.707159 0.333167 0.648380 0.209576
C15   C     C_R   0.241911 0.856956 0.291715 0.122360
C16   C     C_R   0.758089 0.356947 0.708286 0.122362
C17   C     C_R   0.255986 0.888793 0.210151 0.089804
C18   C     C_R   0.744014 0.388804 0.789847 0.089803
C19   C     C_R   0.206117 0.910744 0.149902 -0.211338
C20   C     C_R   0.793883 0.410761 0.850096 -0.211343
C21   C     C_R   0.127562 0.876748 0.250966 -0.191490
C22   C     C_R   0.872438 0.376723 0.749035 -0.191490
C23   C     C_R   0.176911 0.851890 0.311261 -0.155846
C24   C     C_R   0.823090 0.351864 0.688740 -0.155845
H1    H     H_    0.217934 0.928313 0.087485 0.121958
H2    H     H_    0.782066 0.428349 0.912512 0.121963
H3    H     H_    0.078144 0.870718 0.267612 0.109227
H4    H     H_    0.921857 0.370679 0.732390 0.109228
H5    H     H_    0.329263 0.921051 0.125704 0.125775
H6    H     H_    0.670738 0.421085 0.874294 0.125775
H7    H     H_    0.163775 0.829761 0.373177 0.153889
H8    H     H_    0.836225 0.329717 0.626825 0.153888
C25   C     C_R   0.385639 0.945611 0.830409 -0.178471
C26   C     C_R   0.614361 0.445606 0.169590 -0.178469
H9    H     H_    0.472988 0.919771 0.769522 0.116543
H10   H     H_    0.527012 0.419763 0.230477 0.116544
H11   H     H_    0.310485 0.049562 0.943433 0.137212
H12   H     H_    0.689515 0.549561 0.056567 0.137212
H13   H     H_    0.410696 0.988025 0.886785 0.117041
H14   H     H_    0.589304 0.488017 0.113214 0.117042
C27   C     C_R   0.390746 0.857846 0.689671 -0.036733
C28   C     C_R   0.609254 0.357845 0.310328 -0.036735
C29   C     C_R   0.081715 0.843448 0.740680 -0.161273
C30   C     C_R   0.918285 0.343446 0.259320 -0.161273
C31   C     C_R   0.115383 0.800281 0.673073 -0.128016
C32   C     C_R   0.884617 0.300277 0.326926 -0.128016
C33   C     C_R   0.181732 0.812485 0.676041 -0.140661
C34   C     C_R   0.818267 0.312480 0.323958 -0.140663
C35   C     C_R   0.216857 0.874163 0.746841 0.039171
C36   C     C_R   0.783143 0.374161 0.253159 0.039170
C37   C     C_R   0.182011 0.928225 0.816502 0.001015
C38   C     C_R   0.817989 0.428225 0.183498 0.001016
C39   C     C_R   0.285696 0.882865 0.750140 0.071795
C40   C     C_R   0.714304 0.382863 0.249860 0.071795
C41   C     C_R   0.318540 0.938739 0.823596 0.075425
C42   C     C_R   0.681460 0.438736 0.176403 0.075424
C43   C     C_R   0.284697 0.997356 0.889043 -0.226736
C44   C     C_R   0.715303 0.497354 0.110958 -0.226735
C45   C     C_R   0.218117 0.002007 0.885423 0.222674
C46   C     C_R   0.781883 0.502008 0.114578 0.222674
C47   C     C_R   0.323567 0.842194 0.682878 -0.219269
C48   C     C_R   0.676433 0.342193 0.317122 -0.219269
C49   C     C_R   0.421283 0.906760 0.763784 -0.155929
C50   C     C_R   0.578717 0.406754 0.236216 -0.155931
C51   C     C_R   0.113236 0.905134 0.812917 -0.078346
C52   C     C_R   0.886764 0.405134 0.187083 -0.078346
H15   H     H_    0.302638 0.806360 0.623845 0.098475
H16   H     H_    0.697362 0.306361 0.376155 0.098472
H17   H     H_    0.030114 0.824822 0.737055 0.107178
H18   H     H_    0.969885 0.324820 0.262945 0.107178
H19   H     H_    0.204108 0.770504 0.621645 0.115066
H20   H     H_    0.795892 0.270497 0.378354 0.115070
H21   H     H_    0.089782 0.751925 0.618097 0.117359
H22   H     H_    0.910218 0.251919 0.381902 0.117359
O11   O     O_R   0.950790 0.256670 0.090520 -0.536753
O12   O     O_R   0.049210 0.756670 0.909480 -0.536753
O13   O     O_R   0.927720 0.590370 0.921470 -0.537419
O14   O     O_R   0.072280 0.090370 0.078530 -0.537419
C53   C     C_R   0.910827 0.421054 0.894189 0.670674
C54   C     C_R   0.089173 0.921054 0.105811 0.670674
O15   O     O_R   0.943270 0.586180 0.090640 -0.535469
O16   O     O_R   0.056730 0.086180 0.909360 -0.535469
O17   O     O_R   0.064850 0.759970 0.079840 -0.533381
O18   O     O_R   0.935150 0.259970 0.920160 -0.533381
C55   C     C_R   0.928202 0.417307 0.116792 0.685611
C56   C     C_R   0.071798 0.917307 0.883208 0.685611
O19   O     O_3   0.039850 0.428050 0.996240 -0.374894
O20   O     O_3   0.960150 0.928050 0.003760 -0.374893
V3    V     V_3+5 0.992610 0.701540 0.000700 1.398136
V4    V     V_3+5 0.007390 0.201540 0.999300 1.398136
N1    N     N_2   0.190546 0.097554 0.950199 -0.546796
H23   H     H_    0.156727 0.027640 0.980874 0.245560
C57   C     C_3   0.183452 0.298849 0.940449 -0.426922
H24   H     H_    0.166667 0.360820 0.997334 0.194740
H25   H     H_    0.148310 0.331329 0.889398 0.197223
H26   H     H_    0.230295 0.364036 0.928136 0.171428
N2    N     N_2   0.809454 0.597559 0.049802 -0.546798
H27   H     H_    0.843273 0.527646 0.019127 0.245561
C58   C     C_3   0.816548 0.798853 0.059556 -0.426924
H28   H     H_    0.833333 0.860827 0.002671 0.194740
H29   H     H_    0.851691 0.831330 0.110607 0.197224
H30   H     H_    0.769706 0.864039 0.071870 0.171429
C59   C     C_R   0.436996 0.930702 0.219802 0.102882
C60   C     C_R   0.445621 0.067798 0.159256 -0.145173
C61   C     C_R   0.505385 0.094422 0.126943 -0.136350
C62   C     C_R   0.558494 0.993621 0.157896 -0.084628
C63   C     C_R   0.551548 0.863931 0.220169 -0.114262
C64   C     C_R   0.490956 0.826766 0.248645 -0.127964
H31   H     H_    0.405979 0.153986 0.136160 0.109345
H32   H     H_    0.510827 0.197088 0.079298 0.112704
H33   H     H_    0.605204 0.018124 0.134507 0.116168
H34   H     H_    0.593186 0.789983 0.245493 0.133007
H35   H     H_    0.486649 0.714196 0.291758 0.113249
C65   C     C_R   0.563004 0.430718 0.780196 0.102884
C66   C     C_R   0.554379 0.567817 0.840741 -0.145175
C67   C     C_R   0.494615 0.594437 0.873055 -0.136349
C68   C     C_R   0.441507 0.493631 0.842105 -0.084628
C69   C     C_R   0.448453 0.363939 0.779833 -0.114266
C70   C     C_R   0.509045 0.326777 0.751355 -0.127960
H36   H     H_    0.594021 0.654009 0.863836 0.109345
H37   H     H_    0.489174 0.697105 0.920701 0.112704
H38   H     H_    0.394797 0.518131 0.865495 0.116168
H39   H     H_    0.406815 0.289987 0.754510 0.133008
H40   H     H_    0.513352 0.214205 0.708244 0.113246
N3    N     N_2   0.278399 0.793427 0.433476 -0.539673
H41   H     H_    0.308027 0.858247 0.477014 0.239278
C71   C     C_3   0.268709 0.595819 0.450059 -0.553837
H42   H     H_    0.313765 0.515903 0.443070 0.212363
H43   H     H_    0.230352 0.536889 0.408183 0.204305
H44   H     H_    0.253965 0.578197 0.513288 0.184668
N4    N     N_2   0.721600 0.293399 0.566526 -0.539674
H45   H     H_    0.691973 0.358217 0.522986 0.239275
C72   C     C_3   0.731284 0.095784 0.549950 -0.553818
H46   H     H_    0.686227 0.015882 0.556948 0.212365
H47   H     H_    0.769642 0.036852 0.591824 0.204298
H48   H     H_    0.746023 0.078146 0.486719 0.184669

loop_
_geom_bond_atom_site_label_1
_geom_bond_atom_site_label_2
_ccdc_geom_bond_type
C40   C42   A    
C65   C66   A    
O18   V4    S    
C15   C17   A    
C71   H43   S    
H10   C50   S    
C13   N3    S    
C58   H28   S    
O1    C3    A    
O2    C4    A    
C67   C68   A    
C2    O7    A    
C26   C50   A    
O12   V3    S    
C39   C47   A    
C63   H34   S    
C66   H36   S    
O5    C3    A    
N3    C71   S    
C21   H3    S    
C22   H4    S    
C6    C53   S    
C33   H19   S    
N2    C58   S    
C29   C51   A    
C71   H44   S    
C31   C33   A    
C25   H13   S    
C32   C34   A    
N4    H45   S    
C40   C48   A    
C26   H14   S    
C30   C52   A    
C60   C61   A    
C34   C36   A    
C43   C45   A    
C62   C63   A    
O14   V4    S    
C36   C38   A    
C53   O18   A    
C28   C48   A    
C8    C12   A    
C31   H21   S    
C39   C41   A    
C25   C41   A    
C20   H2    S    
C29   H17   S    
C23   H7    S    
C22   C24   A    
O5    V1    S    
N3    H41   S    
O6    V2    S    
H11   C43   S    
C12   C65   S    
C27   C49   A    
C5    C54   S    
C5    C21   A    
C32   H22   S    
O20   V4    S    
C72   H47   S    
C72   H46   S    
C57   H26   S    
C3    C8    S    
C33   C35   A    
C60   H31   S    
C36   C40   A    
C1    C28   S    
N1    C57   S    
C70   H40   S    
O15   V3    S    
C64   H35   S    
C15   C23   A    
C9    C17   A    
C54   O17   A    
C19   H1    S    
C41   C43   A    
O4    V2    S    
C7    C11   A    
C61   H32   S    
C26   C42   A    
O11   V4    S    
C57   H25   S    
C67   H37   S    
O14   C54   A    
O6    C4    A    
C52   C55   S    
C35   C37   A    
C47   H15   S    
C51   C56   S    
C58   H29   S    
O1    V2    S    
C63   C64   A    
O2    V1    S    
C6    C22   A    
O16   V4    S    
C9    H5    S    
O4    C2    A    
O19   V3    S    
C69   H39   S    
C37   C45   A    
C9    C11   A    
C5    C19   A    
C28   C50   A    
C24   H8    S    
O13   C53   A    
C2    C27   S    
C14   N4    S    
O15   C55   A    
C72   H48   S    
O3    V1    S    
C68   C69   A    
C37   C51   A    
N4    C72   S    
C45   N1    S    
C46   N2    S    
C10   C18   A    
O13   V3    S    
C38   C52   A    
C27   C47   A    
O3    C1    A    
C44   C46   A    
C71   H42   S    
C30   H18   S    
C66   C67   A    
C13   C15   A    
C57   H24   S    
C14   C16   A    
C25   C49   A    
C29   C31   A    
C69   C70   A    
O7    V1    S    
H9    C49   S    
C1    O8    A    
C17   C19   A    
O8    V2    S    
C61   C62   A    
C18   C20   A    
C34   H20   S    
C59   C60   A    
C10   H6    S    
C8    C14   A    
C65   C70   A    
C4    C7    S    
C16   C18   A    
O20   V3    S    
C21   C23   A    
C30   C32   A    
C58   H30   S    
C10   C12   A    
C62   H33   S    
C38   C46   A    
H12   C44   S    
C7    C13   A    
C11   C59   S    
C68   H38   S    
C35   C39   A    
O19   V4    S    
C6    C20   A    
C16   C24   A    
C42   C44   A    
C59   C64   A    
O9    V2    S    
N1    H23   S    
O16   C56   A    
O10   V1    S    
C48   H16   S    
N2    H27   S    
O12   C56   A    
O17   V3    S    
O11   C55   A    
