data_mof_unit_10478.cif
_audit_creation_date              2012-12-10T18:44:22-0500
_audit_creation_method            fapswitch 2.2
_symmetry_space_group_name_H-M    P1
_symmetry_Int_Tables_number       1
_space_group_crystal_system       triclinic
_cell_length_a                    12.85873
_cell_length_b                    10.659498
_cell_length_c                    9.836182
_cell_angle_alpha                 90.401691
_cell_angle_beta                  97.403916
_cell_angle_gamma                 90.292711
_cell_volume                      1336.92350357

loop_
_atom_site_label
_atom_site_type_symbol
_atom_type_description
_atom_site_fract_x
_atom_site_fract_y
_atom_site_fract_z
_atom_type_partial_charge
C1    C     C_R   0.501086 0.260049 0.499586 0.949189
C2    C     C_R   0.499365 0.739833 0.500353 0.919774
C3    C     C_R   0.497929 0.872068 0.500130 -0.188206
C4    C     C_R   0.500765 0.127591 0.498108 -0.183576
C5    C     C_R   0.560677 0.583244 0.083112 -0.310298
C6    C     C_R   0.439450 0.416587 0.916902 -0.323840
C7    C     C_R   0.562533 0.582337 0.938464 0.579841
C8    C     C_R   0.437540 0.417628 0.061439 0.529218
C9    C     C_R   0.298059 0.499907 0.473025 0.853343
C10   C     C_R   0.701937 0.501192 0.527066 0.887014
C11   C     C_R   0.814146 0.501316 0.543783 -0.039448
C12   C     C_R   0.185897 0.502971 0.456948 -0.048612
C13   C     C_R   0.021325 0.556177 0.326229 -0.227268
C14   C     C_R   0.979068 0.451750 0.675732 -0.225005
C15   C     C_R   0.129157 0.545342 0.335108 -0.218888
C16   C     C_R   0.871175 0.461434 0.666565 -0.218856
C17   C     C_R   0.135819 0.469682 0.569127 -0.295414
C18   C     C_R   0.864158 0.535699 0.431866 -0.275130
C19   C     C_R   0.028962 0.481922 0.562065 0.190344
C20   C     C_R   0.971257 0.525269 0.439561 0.189478
C21   C     C_R   0.558519 0.062818 0.408704 0.482928
C22   C     C_R   0.436599 0.937102 0.584812 0.497915
C23   C     C_R   0.558453 0.933503 0.413029 -0.370008
C24   C     C_R   0.440411 0.066003 0.585530 -0.366032
H1    H     H_    0.819627 0.568570 0.337686 0.151657
H2    H     H_    0.180129 0.435865 0.663008 0.149449
H3    H     H_    0.832307 0.434622 0.753443 0.151725
H4    H     H_    0.168183 0.572621 0.248619 0.154074
H5    H     H_    0.607413 0.650391 0.147652 0.170542
H6    H     H_    0.393691 0.348434 0.852490 0.163906
N1    N     N_R   0.499970 0.499970 0.857200 -0.130754
N2    N     N_R   0.500030 0.500030 0.142800 -0.132919
O1    O     O_R   0.499990 0.316750 0.614620 -0.640017
O2    O     O_R   0.500010 0.683250 0.385380 -0.646673
O3    O     O_R   0.499990 0.316780 0.385290 -0.541400
O4    O     O_R   0.500010 0.683220 0.614710 -0.522344
O5    O     O_R   0.346360 0.499970 0.595710 -0.630650
O6    O     O_R   0.653640 0.500030 0.404290 -0.622640
O7    O     O_R   0.346360 0.499990 0.366380 -0.605901
O8    O     O_R   0.653640 0.500010 0.633620 -0.617103
Zn1   Zn    Zn3+2 0.500000 0.499980 0.653120 0.991300
Zn2   Zn    Zn3+2 0.500000 0.500020 0.346880 0.983164
H7    H     H_    0.977425 0.589525 0.232024 0.134661
H8    H     H_    0.023100 0.419228 0.770223 0.132093
O9    O     O_3   0.624576 0.126593 0.331738 -0.604170
C25   C     C_3   0.591264 0.106539 0.190626 0.142540
H9    H     H_    0.506185 0.127180 0.164412 0.181125
H10   H     H_    0.606365 0.008325 0.160095 0.128109
C26   C     C_3   0.652614 0.193503 0.107779 -0.787845
H11   H     H_    0.737320 0.170089 0.125412 0.245124
H12   H     H_    0.624015 0.182733 0.996835 0.207213
H13   H     H_    0.642405 0.292521 0.138930 0.261352
O10   O     O_3   0.377185 0.875499 0.671551 -0.582700
C27   C     C_3   0.276146 0.852990 0.600582 0.098529
H14   H     H_    0.280133 0.793894 0.507481 0.118561
H15   H     H_    0.236245 0.942943 0.570048 0.130856
C28   C     C_3   0.210454 0.783330 0.694074 -0.787861
H16   H     H_    0.131551 0.762301 0.638208 0.209773
H17   H     H_    0.248972 0.693804 0.727890 0.267433
H18   H     H_    0.201499 0.841812 0.785697 0.244272
H19   H     H_    0.607619 0.880968 0.351595 0.169019
H20   H     H_    0.394977 0.117805 0.652434 0.178765
O11   O     O_3   0.620202 0.670099 0.876039 -0.569774
C29   C     C_3   0.727567 0.669388 0.931330 0.087779
H21   H     H_    0.774461 0.654361 0.845481 0.175244
H22   H     H_    0.750273 0.593307 0.006644 0.095078
C30   C     C_3   0.758561 0.796475 0.996493 -0.863179
H23   H     H_    0.713817 0.815510 0.083494 0.238249
H24   H     H_    0.843592 0.797310 0.035150 0.211094
H25   H     H_    0.742280 0.871855 0.919410 0.271969
O12   O     O_3   0.380341 0.329335 0.123414 -0.592738
C31   C     C_3   0.272517 0.339891 0.074896 0.091597
H26   H     H_    0.255393 0.305640 0.967298 0.118968
H27   H     H_    0.245494 0.438677 0.081374 0.131348
C32   C     C_3   0.210188 0.258828 0.162606 -0.802215
H28   H     H_    0.226889 0.287586 0.271920 0.259445
H29   H     H_    0.124954 0.269250 0.128462 0.204361
H30   H     H_    0.231891 0.158755 0.152757 0.242044

loop_
_geom_bond_atom_site_label_1
_geom_bond_atom_site_label_2
_ccdc_geom_bond_type
C11   C18   A    
C3    C23   A    
C19   C20   A    
O2    Zn2   S    
C15   H4    S    
C1    O1    A    
O9    C25   S    
C25   C26   S    
C17   H2    S    
O6    Zn2   S    
C4    C24   A    
C28   H17   S    
C9    O7    A    
C10   O8    A    
O3    Zn2   S    
C27   H14   S    
C26   H12   S    
C12   C17   A    
O7    Zn2   S    
C18   C20   A    
C5    N2    A    
C2    O2    A    
C16   H3    S    
C6    N1    A    
O4    Zn1   S    
C18   H1    S    
C31   C32   S    
C32   H30   S    
C22   O10   S    
C5    H5    S    
C27   H15   S    
C7    N1    A    
C30   H23   S    
C8    N2    A    
C29   C30   S    
C31   H27   S    
C5    C7    A    
C28   H18   S    
C6    C8    A    
O10   C27   S    
C21   O9    S    
C30   H24   S    
C29   H22   S    
C32   H28   S    
C11   C16   A    
C12   C15   A    
C26   H13   S    
C9    O5    A    
C32   H29   S    
C7    O11   S    
O8    Zn1   S    
C6    H6    S    
C13   C15   A    
C14   C16   A    
C13   H7    S    
C1    O3    A    
C14   H8    S    
C2    O4    A    
C25   H9    S    
C8    O12   S    
C24   H20   S    
N1    Zn1   S    
C13   C20   A    
C14   C19   A    
C31   H26   S    
C10   O6    A    
C30   H25   S    
O1    Zn1   S    
C29   H21   S    
C1    C4    S    
C21   C23   A    
C2    C3    S    
O12   C31   S    
C4    C21   A    
C28   H16   S    
C17   C19   A    
C22   C24   A    
O5    Zn1   S    
C9    C12   S    
C10   C11   S    
O11   C29   S    
C25   H10   S    
C23   H19   S    
C26   H11   S    
N2    Zn2   S    
C3    C22   A    
C27   C28   S    
