data_mof_unit_45192.cif
_audit_creation_date              2012-12-10T16:51:45-0500
_audit_creation_method            fapswitch 2.2
_symmetry_space_group_name_H-M    P1
_symmetry_Int_Tables_number       1
_space_group_crystal_system       triclinic
_cell_length_a                    15.369609
_cell_length_b                    15.494068
_cell_length_c                    9.712474
_cell_angle_alpha                 90.444952
_cell_angle_beta                  90.317866
_cell_angle_gamma                 90.009687
_cell_volume                      2312.80148176

loop_
_atom_site_label
_atom_site_type_symbol
_atom_type_description
_atom_site_fract_x
_atom_site_fract_y
_atom_site_fract_z
_atom_type_partial_charge
C1    C     C_R   0.380328 0.885238 0.499573 0.737869
C2    C     C_R   0.378959 0.113820 0.500271 0.721607
C3    C     C_R   0.878892 0.386393 0.499360 0.731613
C4    C     C_R   0.886153 0.621130 0.501220 0.727896
C5    C     C_R   0.619664 0.114981 0.500826 0.823890
C6    C     C_R   0.616125 0.881604 0.499537 0.809085
C7    C     C_R   0.119011 0.615540 0.500493 0.809306
C8    C     C_R   0.119348 0.384745 0.500032 0.815773
C9    C     C_2   0.727759 0.794786 0.389691 -0.120160
C10   C     C_2   0.732487 0.201553 0.392342 -0.119057
C11   C     C_2   0.222842 0.288477 0.387732 -0.131282
C12   C     C_2   0.215094 0.717127 0.388818 -0.152861
C13   C     C_2   0.676727 0.810564 0.498254 -0.253999
C14   C     C_2   0.692015 0.174664 0.505779 -0.262147
C15   C     C_2   0.191796 0.325343 0.502304 -0.261252
C16   C     C_2   0.190875 0.675467 0.502552 -0.260596
C17   C     C_2   0.295307 0.227435 0.395845 -0.210811
C18   C     C_2   0.286931 0.778890 0.391052 -0.279754
C19   C     C_2   0.789089 0.722620 0.391014 -0.251313
C20   C     C_2   0.804353 0.263433 0.403539 -0.213242
C21   C     C_2   0.303049 0.171022 0.499796 0.284291
C22   C     C_2   0.304449 0.829802 0.500480 0.291702
C23   C     C_2   0.830767 0.698434 0.506350 0.290878
C24   C     C_2   0.803429 0.328633 0.495745 0.305169
C25   C     C_2   0.429745 0.992630 0.922290 -0.061888
C26   C     C_2   0.932478 0.481565 0.923221 -0.085643
C27   C     C_2   0.428621 0.007928 0.078244 0.550501
C28   C     C_2   0.928457 0.497218 0.078029 0.547496
Cu1   Cu    Cu3+1 0.500020 0.000000 0.638630 0.969992
Cu2   Cu    Cu3+1 0.000020 0.500000 0.638630 0.957117
Cu3   Cu    Cu3+1 0.499980 0.000000 0.361370 0.974451
Cu4   Cu    Cu3+1 0.999980 0.500000 0.361370 0.982971
H1    H     H_    0.722016 0.832527 0.296259 0.154129
H2    H     H_    0.715923 0.175300 0.291530 0.166039
H3    H     H_    0.197960 0.305798 0.286769 0.157178
H4    H     H_    0.184014 0.703760 0.290200 0.172567
H5    H     H_    0.549439 0.967026 0.109425 0.181088
H6    H     H_    0.055471 0.479204 0.110143 0.190732
N1    N     N_2   0.498660 0.000000 0.846910 -0.020605
N2    N     N_2   0.998660 0.500000 0.846910 -0.020644
N3    N     N_2   0.498630 0.000000 0.153040 -0.282155
N4    N     N_2   0.998630 0.500000 0.153040 -0.291167
O1    O     O_R   0.410990 0.910970 0.617040 -0.567889
O2    O     O_R   0.410990 0.089030 0.617040 -0.598172
O3    O     O_R   0.910990 0.410970 0.617040 -0.618494
O4    O     O_R   0.910990 0.589030 0.617040 -0.594930
O5    O     O_R   0.410950 0.910970 0.382900 -0.591284
O6    O     O_R   0.410950 0.089030 0.382900 -0.518935
O7    O     O_R   0.910950 0.410970 0.382900 -0.532901
O8    O     O_R   0.910950 0.589030 0.382900 -0.547061
O9    O     O_R   0.589050 0.089030 0.617100 -0.563805
O10   O     O_R   0.589050 0.910970 0.617100 -0.612631
O11   O     O_R   0.089050 0.589030 0.617100 -0.561442
O12   O     O_R   0.089050 0.410970 0.617100 -0.608990
O13   O     O_R   0.589010 0.089030 0.382960 -0.568569
O14   O     O_R   0.589010 0.910970 0.382960 -0.591476
O15   O     O_R   0.089010 0.589030 0.382960 -0.579143
O16   O     O_R   0.089010 0.410970 0.382960 -0.587700
H7    H     H_    0.677505 0.769053 0.587309 0.167368
H8    H     H_    0.714446 0.195094 0.607222 0.177312
H9    H     H_    0.221869 0.313312 0.601643 0.168136
H10   H     H_    0.225569 0.683184 0.599386 0.200456
H11   H     H_    0.344084 0.230692 0.315450 0.148485
H12   H     H_    0.325689 0.783420 0.298156 0.141346
H13   H     H_    0.798378 0.688243 0.294752 0.142998
H14   H     H_    0.859535 0.254055 0.335493 0.124750
O17   O     O_3   0.231394 0.155818 0.584280 -0.584684
C29   C     C_3   0.255055 0.149577 0.724644 0.072211
H15   H     H_    0.307143 0.196515 0.753845 0.149347
H16   H     H_    0.276262 0.082747 0.747883 0.164867
C30   C     C_3   0.175873 0.168648 0.813178 -0.825098
H17   H     H_    0.122983 0.122078 0.788634 0.252866
H18   H     H_    0.193472 0.162741 0.923768 0.208985
H19   H     H_    0.152109 0.235197 0.794213 0.246535
O18   O     O_3   0.251769 0.831483 0.615886 -0.582638
C31   C     C_3   0.192665 0.900736 0.603392 0.078755
H20   H     H_    0.149115 0.890921 0.512497 0.158413
H21   H     H_    0.227486 0.963403 0.593269 0.141854
C32   C     C_3   0.136609 0.905260 0.731726 -0.765096
H22   H     H_    0.178240 0.915972 0.824087 0.227090
H23   H     H_    0.089662 0.959424 0.722986 0.204514
H24   H     H_    0.099934 0.844008 0.743658 0.260196
O19   O     O_3   0.834933 0.756425 0.617584 -0.564229
C33   C     C_3   0.817338 0.716792 0.745350 0.092813
H25   H     H_    0.878634 0.691932 0.791334 0.197276
H26   H     H_    0.768579 0.663704 0.735686 0.111568
C34   C     C_3   0.782241 0.784164 0.845710 -0.847586
H27   H     H_    0.719650 0.810708 0.807849 0.238214
H28   H     H_    0.771226 0.754323 0.947715 0.194170
H29   H     H_    0.829687 0.837781 0.858154 0.258813
O20   O     O_3   0.725035 0.349695 0.560239 -0.573477
C35   C     C_3   0.737336 0.383664 0.694043 0.053328
H30   H     H_    0.759213 0.451992 0.688671 0.151969
H31   H     H_    0.784533 0.344102 0.754016 0.146674
C36   C     C_3   0.651058 0.382018 0.769873 -0.796637
H32   H     H_    0.626894 0.314626 0.776961 0.259188
H33   H     H_    0.659820 0.408645 0.875536 0.201069
H34   H     H_    0.602177 0.421650 0.714300 0.250269
H35   H     H_    0.369784 0.974908 0.870363 0.084813
H36   H     H_    0.876825 0.451767 0.873751 0.082511
O21   O     O_3   0.563732 0.046435 0.905203 -0.494618
C37   C     C_3   0.641845 0.999734 0.887702 0.199731
H37   H     H_    0.666293 0.005026 0.781376 0.190566
H38   H     H_    0.633250 0.930231 0.913019 0.102704
C38   C     C_3   0.711505 0.037277 0.982799 -0.895408
H39   H     H_    0.691156 0.032479 0.091969 0.251782
H40   H     H_    0.773305 0.001136 0.969260 0.210108
H41   H     H_    0.722848 0.106194 0.957798 0.256561
O22   O     O_3   0.058668 0.552903 0.904478 -0.498808
C39   C     C_3   0.140792 0.512481 0.890880 0.197184
H42   H     H_    0.163382 0.511094 0.783303 0.182963
H43   H     H_    0.139193 0.444618 0.927929 0.092227
C40   C     C_3   0.207837 0.562546 0.975367 -0.888304
H44   H     H_    0.189072 0.564095 0.085606 0.251551
H45   H     H_    0.272515 0.531174 0.965991 0.205545
H46   H     H_    0.212561 0.629780 0.937213 0.262285
O23   O     O_3   0.353313 0.035587 0.143554 -0.549118
C41   C     C_3   0.280131 0.986657 0.102249 0.015624
H47   H     H_    0.295660 0.916556 0.092021 0.128057
H48   H     H_    0.253865 0.011517 0.003396 0.132485
C42   C     C_3   0.209632 0.996568 0.210526 -0.739899
H49   H     H_    0.190547 0.065469 0.220637 0.250175
H50   H     H_    0.151618 0.957994 0.180224 0.194004
H51   H     H_    0.234006 0.973570 0.311576 0.232262
O24   O     O_3   0.849068 0.494632 0.145674 -0.545624
C43   C     C_3   0.786783 0.547659 0.080357 0.027376
H52   H     H_    0.771084 0.524912 0.974438 0.116178
H53   H     H_    0.810181 0.615571 0.076447 0.134275
C44   C     C_3   0.702478 0.544589 0.161676 -0.764131
H54   H     H_    0.714785 0.560365 0.271718 0.249943
H55   H     H_    0.655228 0.591629 0.118837 0.192661
H56   H     H_    0.673900 0.478829 0.154849 0.248603

loop_
_geom_bond_atom_site_label_1
_geom_bond_atom_site_label_2
_ccdc_geom_bond_type
C2    O2    A    
C34   H27   S    
O21   C37   S    
Cu2   O3    S    
C36   H32   S    
C33   C34   S    
Cu4   O16   S    
C18   H12   S    
C3    O7    A    
C36   H34   S    
C4    O4    A    
C6    O14   A    
Cu2   O12   S    
C43   H52   S    
C23   O19   S    
C22   O18   S    
C20   H14   S    
C31   H21   S    
H6    N4    S    
C37   C38   S    
C9    C19   S    
C9    C13   D    
C39   H42   S    
C42   H51   S    
C8    O16   A    
C41   H47   S    
C11   C15   D    
C1    O1    A    
C20   C24   D    
C10   C20   S    
C29   H15   S    
C31   C32   S    
Cu3   O14   S    
C12   H4    S    
C44   H56   S    
C1    C22   S    
Cu3   O5    S    
C21   O17   S    
C9    H1    S    
C3    C24   S    
C16   H10   S    
Cu4   O15   S    
C38   H41   S    
C25   H35   S    
N1    O21   S    
C41   H48   S    
C27   O23   S    
Cu2   O11   S    
C42   H49   S    
O17   C29   S    
C12   C16   D    
C31   H20   S    
C10   C14   D    
C8    O12   A    
O20   C35   S    
C30   H18   S    
C4    C23   S    
C1    O5    A    
C43   C44   S    
C2    O6    A    
C3    O3    A    
C35   C36   S    
C17   C21   D    
C4    O8    A    
C41   C42   S    
C17   H11   S    
C19   C23   D    
O18   C31   S    
C32   H24   S    
C38   H40   S    
C27   N3    D    
O19   C33   S    
Cu1   N1    S    
C2    C21   S    
C35   H31   S    
C15   H9    S    
Cu2   N2    S    
C10   H2    S    
C33   H25   S    
C37   H38   S    
C39   C40   S    
Cu4   O8    S    
C5    C14   S    
C7    C16   S    
C8    C15   S    
Cu3   O6    S    
C34   H28   S    
Cu1   O2    S    
O24   C43   S    
C7    O11   A    
C24   O20   S    
C28   O24   S    
C32   H23   S    
C40   H44   S    
Cu1   O9    S    
C11   C17   S    
C43   H53   S    
Cu3   N3    S    
C18   C22   D    
C5    O13   A    
C33   H26   S    
C30   H19   S    
C36   H33   S    
N2    O22   S    
C13   H7    S    
C25   C27   S    
C14   H8    S    
C38   H39   S    
C26   C28   S    
Cu2   O4    S    
C6    O10   A    
C40   H46   S    
C11   H3    S    
C44   H54   S    
C30   H17   S    
Cu1   Cu3   S    
O23   C41   S    
C25   N1    D    
C6    C13   S    
Cu2   Cu4   S    
C26   N2    D    
C40   H45   S    
C29   C30   S    
C28   N4    D    
C35   H30   S    
C19   H13   S    
H5    N3    S    
C37   H37   S    
C39   H43   S    
Cu4   O7    S    
C42   H50   S    
C32   H22   S    
C29   H16   S    
C34   H29   S    
C12   C18   S    
Cu4   N4    S    
C5    O9    A    
Cu3   O13   S    
O22   C39   S    
C7    O15   A    
Cu1   O1    S    
C26   H36   S    
C44   H55   S    
Cu1   O10   S    
