data_mof_unit_38014.cif
_audit_creation_date              2012-12-10T20:36:38-0500
_audit_creation_method            fapswitch 2.2
_symmetry_space_group_name_H-M    P1
_symmetry_Int_Tables_number       1
_space_group_crystal_system       triclinic
_cell_length_a                    10.507189
_cell_length_b                    10.677864
_cell_length_c                    9.878338
_cell_angle_alpha                 89.827115
_cell_angle_beta                  89.481066
_cell_angle_gamma                 90.048067
_cell_volume                      1108.24264641

loop_
_atom_site_label
_atom_site_type_symbol
_atom_type_description
_atom_site_fract_x
_atom_site_fract_y
_atom_site_fract_z
_atom_type_partial_charge
C1    C     C_R   0.503981 0.259946 0.500106 0.869627
C2    C     C_3   0.960475 0.503252 0.369722 -0.193802
C3    C     C_3   0.043774 0.400935 0.435662 -0.207995
C4    C     C_3   0.122445 0.504680 0.501303 -0.043741
C5    C     C_R   0.526922 0.063232 0.622367 0.141857
C6    C     C_R   0.524660 0.128512 0.500226 -0.104352
C7    C     C_R   0.547207 0.065124 0.378085 -0.222977
C8    C     C_R   0.547340 0.935613 0.377821 -0.202389
C9    C     C_R   0.524916 0.871279 0.499686 -0.104190
C10   C     C_R   0.526900 0.935463 0.622009 0.124216
C11   C     C_3   0.438533 0.927315 0.741112 -0.459829
C12   C     C_R   0.257414 0.501821 0.500564 0.927521
C13   C     C_3   0.438626 0.069189 0.741684 -0.496602
C14   C     C_R   0.389379 0.483350 0.072436 0.248843
C15   C     C_R   0.607238 0.527749 0.070753 -0.142519
C16   C     C_R   0.607243 0.527770 0.926990 -0.137894
C17   C     C_R   0.389280 0.483446 0.930020 0.217730
C18   C     C_3   0.304045 0.371796 0.926415 -0.519195
C19   C     C_3   0.304124 0.372054 0.080125 -0.510607
C20   C     C_R   0.504258 0.739958 0.499747 0.929035
C21   C     C_R   0.742574 0.500174 0.499330 0.871215
C22   C     C_3   0.038535 0.503412 0.628938 -0.164412
C23   C     C_3   0.957793 0.399463 0.563341 -0.150261
C24   C     C_3   0.877363 0.501752 0.497836 0.029220
C25   C     C_3   0.955084 0.605829 0.563472 -0.231146
C26   C     C_3   0.040799 0.605910 0.436512 0.016625
H1    H     H_    0.918993 0.314963 0.614924 0.136481
H2    H     H_    0.485212 0.885661 0.831194 0.206300
H3    H     H_    0.344597 0.110505 0.716446 0.202711
H4    H     H_    0.485717 0.109201 0.832130 0.204134
H5    H     H_    0.694377 0.548367 0.123640 0.155777
H6    H     H_    0.694427 0.548459 0.872430 0.157739
H7    H     H_    0.209449 0.393892 0.883452 0.197216
H8    H     H_    0.351498 0.288722 0.881835 0.213546
H9    H     H_    0.209816 0.395330 0.125338 0.204364
H10   H     H_    0.351638 0.288833 0.124915 0.212831
H11   H     H_    0.072940 0.504741 0.734683 0.143328
H12   H     H_    0.914416 0.689269 0.614840 0.144707
H13   H     H_    0.925186 0.503480 0.264096 0.146447
H14   H     H_    0.084202 0.317571 0.383957 0.145729
H15   H     H_    0.555629 0.114413 0.282395 0.172794
H16   H     H_    0.555816 0.887045 0.282036 0.176174
H17   H     H_    0.344555 0.886145 0.715332 0.211640
N1    N     N_R   0.499140 0.499140 0.142800 -0.110821
N2    N     N_R   0.499140 0.499180 0.857150 -0.109529
O1    O     O_R   0.500020 0.316790 0.614690 -0.616508
O2    O     O_R   0.500000 0.316760 0.385350 -0.628880
O3    O     O_R   0.313960 0.499990 0.614650 -0.630822
O4    O     O_R   0.313940 0.499950 0.385310 -0.596205
O5    O     O_R   0.500000 0.683240 0.614650 -0.624456
O6    O     O_R   0.499980 0.683210 0.385310 -0.596962
O7    O     O_R   0.686060 0.500050 0.614690 -0.633915
O8    O     O_R   0.686040 0.500010 0.385350 -0.633837
Zn1   Zn    Zn3+2 0.500010 0.500020 0.653130 0.942704
Zn2   Zn    Zn3+2 0.499990 0.499980 0.346870 0.962463
C27   C     C_2   0.084630 0.723305 0.366588 0.870004
O9    O     O_2   0.006105 0.793148 0.315969 -0.636267
O10   O     O_R   0.213987 0.753173 0.360524 -0.812339
H18   H     H_    0.231118 0.835030 0.311365 0.339475

loop_
_geom_bond_atom_site_label_1
_geom_bond_atom_site_label_2
_ccdc_geom_bond_type
C16   N2    A    
O3    Zn1   S    
C4    C26   S    
C23   C24   S    
C15   H5    S    
C6    C7    A    
C23   H1    S    
C25   H12   S    
C16   H6    S    
C4    C22   S    
C9    C10   A    
C9    C20   S    
C3    C23   S    
C14   C17   A    
C12   O3    A    
O1    Zn1   S    
C7    H15   S    
C12   O4    A    
C25   C26   S    
O2    Zn2   S    
C7    C8    A    
C2    C26   S    
C19   H9    S    
C24   C25   S    
C21   O8    A    
C11   C13   S    
N1    Zn2   S    
O5    Zn1   S    
C11   H2    S    
C18   H8    S    
C5    C6    A    
C2    H13   S    
C13   H3    S    
O7    Zn1   S    
N2    Zn1   S    
C17   C18   S    
C20   O6    A    
C2    C3    S    
C19   H10   S    
O8    Zn2   S    
C2    C24   S    
C15   N1    A    
C18   H7    S    
C1    O1    A    
C4    C12   S    
C10   C11   S    
C8    H16   S    
C15   C16   A    
C13   H4    S    
C5    C10   A    
C27   O9    D    
C14   N1    A    
C18   C19   S    
C21   C24   S    
C1    C6    S    
C22   C23   S    
C1    O2    A    
C20   O5    A    
C11   H17   S    
C3    H14   S    
O6    Zn2   S    
O10   H18   S    
O4    Zn2   S    
C22   H11   S    
C5    C13   S    
C14   C19   S    
C21   O7    A    
C3    C4    S    
C17   N2    A    
C27   O10   S    
C8    C9    A    
C22   C25   S    
C26   C27   S    
