data_mof_unit_7280.cif
_audit_creation_date              2012-10-26T18:32:58-0400
_audit_creation_method            fapswitch 2.2
_symmetry_space_group_name_H-M    P1
_symmetry_Int_Tables_number       1
_space_group_crystal_system       triclinic
_cell_length_a                    13.841778
_cell_length_b                    13.887443
_cell_length_c                    15.042761
_cell_angle_alpha                 87.534696
_cell_angle_beta                  87.829793
_cell_angle_gamma                 85.93477
_cell_volume                      2879.91898187

loop_
_atom_site_label
_atom_site_type_symbol
_atom_type_description
_atom_site_fract_x
_atom_site_fract_y
_atom_site_fract_z
_atom_type_partial_charge
C1    C     C_R   0.501261 0.500111 0.328740 0.543913
C2    C     C_R   0.662571 0.420010 0.950309 -0.137987
C3    C     C_R   0.792553 0.565489 0.444389 0.143133
C4    C     C_R   0.205345 0.438439 0.557720 0.142557
C5    C     C_R   0.796086 0.431710 0.549233 0.023064
C6    C     C_R   0.205734 0.561759 0.443119 0.020478
C7    C     C_R   0.899297 0.425904 0.546215 -0.007883
C8    C     C_R   0.102602 0.566768 0.443440 -0.008278
C9    C     C_R   0.948940 0.496947 0.495620 0.021067
C10   C     C_R   0.052331 0.496297 0.493870 0.020673
C11   C     C_R   0.895497 0.568963 0.446922 -0.010667
C12   C     C_R   0.498685 0.498753 0.671289 0.542561
C13   C     C_R   0.105347 0.427046 0.545541 -0.018854
C14   C     C_R   0.954708 0.350749 0.591491 -0.011799
C15   C     C_R   0.048203 0.640653 0.396232 -0.013790
C16   C     C_R   0.514974 0.317267 0.500196 0.539296
C17   C     C_R   0.485016 0.682749 0.499414 0.543931
C18   C     C_R   0.056204 0.351905 0.589596 -0.140050
C19   C     C_R   0.946586 0.641844 0.400268 -0.140201
C20   C     C_1   0.476781 0.785659 0.497772 -0.026658
C21   C     C_1   0.522945 0.214363 0.501729 -0.031976
C22   C     C_2   0.460457 0.975758 0.494336 -0.124864
C23   C     C_R   0.498522 0.496433 0.953582 0.060310
C24   C     C_2   0.538559 0.024267 0.505118 -0.123172
C25   C     C_1   0.530343 0.127692 0.503300 -0.058838
C26   C     C_1   0.468931 0.872329 0.496156 -0.058787
C27   C     C_R   0.579159 0.457949 0.812855 -0.136037
C28   C     C_R   0.420496 0.539262 0.187152 -0.138441
C29   C     C_R   0.496882 0.495945 0.768216 -0.013296
C30   C     C_R   0.502357 0.500341 0.231891 -0.014315
C31   C     C_R   0.414977 0.533243 0.816138 -0.144836
C32   C     C_R   0.582596 0.459295 0.184228 -0.142470
C33   C     C_R   0.415406 0.534257 0.908797 0.012386
C34   C     C_R   0.499862 0.497792 0.046653 0.059951
C35   C     C_R   0.582525 0.458946 0.091529 0.011310
C36   C     C_3   0.740904 0.630577 0.373739 -0.211038
C37   C     C_3   0.769294 0.598982 0.278758 -0.316167
C38   C     C_3   0.714494 0.661912 0.208847 -0.455561
C39   C     C_3   0.241669 0.404798 0.649581 -0.202011
C40   C     C_3   0.303754 0.308339 0.652096 -0.271076
C41   C     C_3   0.285026 0.248331 0.737755 -0.480942
C42   C     C_3   0.908932 0.268132 0.642552 -0.260442
C43   C     C_3   0.874124 0.297500 0.736220 -0.301148
C44   C     C_3   0.822064 0.216674 0.785336 -0.456392
C45   C     C_R   0.580494 0.457693 0.905349 0.012322
C46   C     C_3   0.095380 0.721157 0.342932 -0.263297
C47   C     C_3   0.130284 0.796131 0.404335 -0.294673
C48   C     C_3   0.185552 0.872222 0.351603 -0.450716
C49   C     C_R   0.418408 0.537751 0.094799 0.011532
C50   C     C_R   0.334680 0.573381 0.957356 -0.136425
C51   C     C_R   0.663388 0.420139 0.042974 -0.138473
C52   C     C_R   0.336269 0.575360 0.049888 -0.135962
Cu1   Cu    Cu3+1 0.597420 0.500010 0.499990 0.915687
Cu2   Cu    Cu3+1 0.402580 0.499990 0.500010 0.918470
H1    H     H_    0.609041 0.986602 0.515342 0.131109
H2    H     H_    0.246654 0.610208 0.401057 0.128794
H3    H     H_    0.097166 0.293458 0.624135 0.111177
H4    H     H_    0.908490 0.701878 0.365923 0.106807
H5    H     H_    0.642177 0.428360 0.775539 0.117224
H6    H     H_    0.358271 0.570792 0.224311 0.114981
H7    H     H_    0.635023 0.659412 0.220624 0.161231
H8    H     H_    0.734089 0.737930 0.211099 0.147426
H9    H     H_    0.733987 0.635137 0.141553 0.153054
H10   H     H_    0.847901 0.602820 0.263615 0.155235
H11   H     H_    0.752989 0.522637 0.272745 0.173813
H12   H     H_    0.389940 0.013355 0.484098 0.128179
H13   H     H_    0.662991 0.632598 0.378958 0.218197
H14   H     H_    0.755039 0.707244 0.382029 0.096863
H15   H     H_    0.299800 0.289930 0.796649 0.158524
H16   H     H_    0.208782 0.227999 0.742350 0.143656
H17   H     H_    0.333627 0.181173 0.738110 0.148004
H18   H     H_    0.289008 0.264885 0.594354 0.166721
H19   H     H_    0.381418 0.322514 0.650440 0.194663
H20   H     H_    0.274215 0.462801 0.682452 0.158498
H21   H     H_    0.178756 0.398172 0.697049 0.101754
H22   H     H_    0.756025 0.201956 0.749899 0.153485
H23   H     H_    0.352115 0.563808 0.781317 0.110942
H24   H     H_    0.870734 0.149668 0.790123 0.152573
H25   H     H_    0.800199 0.238441 0.853721 0.137900
H26   H     H_    0.937536 0.313825 0.774787 0.161322
H27   H     H_    0.823920 0.363481 0.732660 0.153481
H28   H     H_    0.848673 0.242802 0.604954 0.135868
H29   H     H_    0.962450 0.204780 0.649030 0.135965
H30   H     H_    0.250892 0.837795 0.317497 0.152738
H31   H     H_    0.138475 0.910567 0.301315 0.150426
H32   H     H_    0.209062 0.925797 0.397575 0.143425
H33   H     H_    0.066641 0.832403 0.439622 0.162172
H34   H     H_    0.644041 0.426044 0.219278 0.116564
H35   H     H_    0.178508 0.760911 0.455309 0.168748
H36   H     H_    0.155828 0.690578 0.299793 0.125367
H37   H     H_    0.043057 0.758773 0.296546 0.135110
H38   H     H_    0.270562 0.602749 0.923757 0.105080
H39   H     H_    0.727366 0.390473 0.076618 0.105511
H40   H     H_    0.273284 0.606131 0.086343 0.103169
H41   H     H_    0.726103 0.390675 0.913797 0.104082
H42   H     H_    0.756223 0.380684 0.589340 0.129257
N1    N     N_R   0.743820 0.499960 0.499930 -0.236732
N2    N     N_R   0.256180 0.500040 0.500070 -0.232330
O1    O     O_R   0.582280 0.500030 0.370250 -0.521071
O2    O     O_R   0.417720 0.499970 0.629750 -0.521593
O3    O     O_R   0.417740 0.500020 0.370270 -0.500604
O4    O     O_R   0.582260 0.499980 0.629730 -0.498074
O5    O     O_R   0.593900 0.362160 0.500010 -0.499608
O6    O     O_R   0.406100 0.637840 0.499990 -0.499923
O7    O     O_R   0.429360 0.362150 0.500030 -0.498654
O8    O     O_R   0.570640 0.637850 0.499970 -0.515631

loop_
_geom_bond_atom_site_label_1
_geom_bond_atom_site_label_2
_ccdc_geom_bond_type
C16   C21   S    
C23   C45   A    
C4    N2    A    
C12   C29   S    
C27   C29   A    
C14   C18   A    
Cu2   O3    S    
C42   H28   S    
C1    O1    A    
C36   H13   S    
Cu1   Cu2   S    
Cu1   O1    S    
C24   H1    S    
C15   C19   A    
C11   C19   A    
C13   C18   A    
C6    N2    A    
Cu2   O6    S    
C36   C37   S    
C17   O6    A    
C32   H34   S    
C17   C20   S    
C40   H19   S    
C34   C35   A    
C39   H20   S    
C4    C13   A    
C44   H22   S    
C22   H12   S    
C18   H3    S    
Cu1   O8    S    
C7    C14   A    
C23   C33   A    
C37   H11   S    
C50   C52   A    
C31   C33   A    
C52   H40   S    
C39   H21   S    
C9    C10   A    
C14   C42   S    
C38   H7    S    
C49   C52   A    
C19   H4    S    
C47   H35   S    
Cu2   O2    S    
C31   H23   S    
C28   H6    S    
C2    C45   A    
C32   C35   A    
C24   C25   S    
C39   C40   S    
C5    C7    A    
C6    C8    A    
C46   H37   S    
Cu1   N1    S    
C43   H26   S    
C48   H30   S    
C37   H10   S    
C47   H33   S    
C43   C44   S    
C12   O4    A    
C37   C38   S    
C28   C49   A    
C3    N1    A    
C16   O5    A    
C47   C48   S    
C4    C39   S    
Cu1   O4    S    
C23   C34   A    
C9    C11   A    
C16   O7    A    
C51   H39   S    
C50   H38   S    
C40   C41   S    
C5    N1    A    
C8    C15   A    
C35   C51   A    
C43   H27   S    
C48   H32   S    
C42   C43   S    
C1    O3    A    
C5    H42   S    
C41   H15   S    
C38   H9    S    
C7    C9    A    
C21   C25   T    
C46   C47   S    
C2    H41   S    
C34   C49   A    
C40   H18   S    
Cu2   O7    S    
C44   H25   S    
C42   H29   S    
C6    H2    S    
C10   C13   A    
C36   H14   S    
C46   H36   S    
C41   H17   S    
C44   H24   S    
C33   C50   A    
C29   C31   A    
C27   H5    S    
C17   O8    A    
C30   C32   A    
C27   C45   A    
C20   C26   T    
C3    C36   S    
Cu1   O5    S    
C28   C30   A    
C1    C30   S    
C22   C24   D    
C12   O2    A    
C3    C11   A    
C2    C51   A    
C8    C10   A    
C22   C26   S    
C48   H31   S    
Cu2   N2    S    
C15   C46   S    
C41   H16   S    
C38   H8    S    
