data_mof_unit_22030.cif
_audit_creation_date              2012-12-11T14:29:22-0500
_audit_creation_method            fapswitch 2.2
_symmetry_space_group_name_H-M    P1
_symmetry_Int_Tables_number       1
_space_group_crystal_system       triclinic
_cell_length_a                    6.929466
_cell_length_b                    14.763136
_cell_length_c                    16.32128
_cell_angle_alpha                 90.397081
_cell_angle_beta                  90.109415
_cell_angle_gamma                 89.928293
_cell_volume                      1669.63311423

loop_
_atom_site_label
_atom_site_type_symbol
_atom_type_description
_atom_site_fract_x
_atom_site_fract_y
_atom_site_fract_z
_atom_type_partial_charge
O1    O     O_R   0.494400 0.416610 0.413880 -0.546674
O2    O     O_R   0.823920 0.406790 0.585520 -0.520288
O3    O     O_R   0.994250 0.583390 0.586120 -0.527733
C1    C     C_R   0.655801 0.387569 0.615459 0.729596
O4    O     O_R   0.824110 0.405730 0.414490 -0.520788
O5    O     O_R   0.994440 0.582310 0.413870 -0.541351
C2    C     C_R   0.655440 0.384728 0.385748 0.772867
O6    O     O_R   0.494210 0.417690 0.586130 -0.515548
O7    O     O_3   0.660810 0.557940 0.500000 -0.364793
V1    V     V_3+5 0.935650 0.489250 0.500000 1.688971
O8    O     O_R   0.324160 0.593210 0.414480 -0.530300
C3    C     C_R   0.154997 0.613404 0.385206 0.746078
O9    O     O_R   0.323970 0.594270 0.585510 -0.524207
C4    C     C_R   0.154949 0.618695 0.612113 0.855545
V2    V     V_3+5 0.435660 0.510750 0.500000 1.675113
O10   O     O_3   0.160630 0.442060 0.500000 -0.347421
C5    C     C_R   0.099093 0.559234 0.783004 0.306879
C6    C     C_R   0.099748 0.529869 0.865075 0.210328
C7    C     C_R   0.162748 0.589189 0.927228 0.295371
C8    C     C_R   0.190090 0.680849 0.909953 0.284298
C9    C     C_R   0.149070 0.716200 0.830581 -0.153019
C10   C     C_R   0.130277 0.652981 0.764332 -0.072306
C11   C     C_R   0.122864 0.811049 0.815491 -0.043403
C12   C     C_R   0.105932 0.842326 0.732756 -0.060479
C13   C     C_R   0.145868 0.780647 0.666933 -0.156633
C14   C     C_R   0.146320 0.685056 0.681947 -0.053363
C15   C     C_R   0.057381 0.934437 0.713598 0.261877
C16   C     C_R   0.053400 0.963682 0.631374 0.197018
C17   C     C_R   0.111789 0.904495 0.568355 0.325513
C18   C     C_R   0.174810 0.817490 0.587353 0.300443
C19   C     C_2   0.001306 0.733017 0.299981 0.260329
C20   C     C_2   0.145607 0.671652 0.310910 0.142873
C21   C     C_2   0.973891 0.783740 0.221435 0.369533
C22   C     C_2   0.124181 0.825968 0.185504 -0.194390
H1    H     H_    0.266202 0.821317 0.213504 0.158709
C23   C     C_2   0.765337 0.219368 0.791322 -0.112976
C24   C     C_2   0.613106 0.165242 0.806318 0.258813
H2    H     H_    0.888154 0.219326 0.832827 0.137088
C25   C     C_2   0.783042 0.273280 0.715298 0.343434
C26   C     C_2   0.644509 0.332818 0.691120 0.211058
C27   C     C_2   0.766045 0.224744 0.203817 0.251729
C28   C     C_2   0.616189 0.168573 0.186120 0.116278
C29   C     C_2   0.785694 0.272206 0.283794 0.425343
C30   C     C_2   0.642827 0.326107 0.312285 -0.336271
H3    H     H_    0.509823 0.330966 0.277171 0.168739
O11   O     O_R   0.770210 0.079270 0.910680 -0.542443
O12   O     O_R   0.440150 0.091160 0.082270 -0.518436
O13   O     O_R   0.269970 0.914530 0.082860 -0.526710
C31   C     C_R   0.609042 0.112288 0.110974 0.768295
O14   O     O_R   0.440480 0.090100 0.911240 -0.546418
O15   O     O_R   0.270310 0.913460 0.910610 -0.529625
C32   C     C_R   0.608405 0.108610 0.881045 0.620599
O16   O     O_R   0.769870 0.080340 0.082930 -0.530941
O17   O     O_3   0.603660 0.938980 0.996790 -0.355968
V3    V     V_3+5 0.328750 0.007610 0.996740 1.656775
O18   O     O_R   0.940600 0.902510 0.911180 -0.531897
C33   C     C_R   0.110424 0.877247 0.885372 0.837753
O19   O     O_R   0.940270 0.903570 0.082200 -0.516918
C34   C     C_R   0.109034 0.884761 0.112448 0.830898
V4    V     V_3+5 0.828770 0.986010 0.996670 1.650898
O20   O     O_3   0.103730 0.054750 0.996710 -0.363138
O21   O     O_3   0.112247 0.930115 0.487065 -0.561916
H4    H     H_    0.003896 0.972666 0.477818 0.343531
O22   O     O_3   0.277683 0.658062 0.248472 -0.634154
H5    H     H_    0.365371 0.607825 0.263768 0.303958
O23   O     O_3   0.791311 0.792134 0.187928 -0.604997
H6    H     H_    0.701986 0.752626 0.218744 0.339408
O24   O     O_3   0.466621 0.158959 0.748686 -0.580585
H7    H     H_    0.374151 0.111648 0.765893 0.318490
Cl1   Cl    Cl    0.999019 0.256311 0.660131 -0.543981
Cl2   Cl    Cl    0.447269 0.358547 0.756235 -0.561341
Cl3   Cl    Cl    0.952148 0.245542 0.132296 -0.574490
Cl4   Cl    Cl    0.432381 0.147125 0.258520 -0.518668
Cl5   Cl    Cl    0.007111 0.258209 0.336147 -0.482883
O25   O     O_3   0.056796 0.498071 0.721050 -0.627202
H8    H     H_    0.049310 0.435600 0.742156 0.377992
O26   O     O_3   0.043401 0.442247 0.882342 -0.618726
H9    H     H_    0.991526 0.440463 0.938837 0.325218
O27   O     O_3   0.204210 0.559146 0.005388 -0.580787
H10   H     H_    0.240036 0.494212 0.002733 0.329491
Cl6   Cl    Cl    0.317594 0.741488 0.985935 -0.583320
O28   O     O_3   0.010355 0.994840 0.775621 -0.648860
H11   H     H_    0.999022 0.057365 0.754810 0.344433
O29   O     O_3   0.000035 0.051849 0.614925 -0.599995
H12   H     H_    0.074841 0.073769 0.567381 0.356452
Cl7   Cl    Cl    0.321131 0.766755 0.511816 -0.538253
Cl8   Cl    Cl    0.833375 0.757612 0.378771 -0.553419

loop_
_geom_bond_atom_site_label_1
_geom_bond_atom_site_label_2
_ccdc_geom_bond_type
O13   V3    S    
O25   H8    S    
C26   Cl2   S    
C16   O29   S    
C27   C28   D    
C7    C8    A    
C12   C15   A    
C1    O6    A    
O12   C31   A    
O17   V4    S    
O26   H9    S    
C17   C18   A    
C9    C10   A    
C23   C24   D    
C22   H1    S    
O5    C3    A    
O19   V4    S    
V2    O10   S    
C24   O24   S    
O11   C32   A    
O18   C33   A    
C6    C7    A    
O17   V3    S    
O8    V2    S    
O29   H12   S    
C1    C26   S    
O24   H7    S    
O14   C32   A    
C11   C12   A    
C19   C21   S    
O15   C33   A    
C18   Cl7   S    
O7    V1    S    
C29   Cl5   S    
O23   H6    S    
O9    C4    A    
C3    C20   S    
C27   C29   S    
O16   V4    S    
C21   O23   S    
C5    C6    A    
C23   C25   S    
C19   Cl8   S    
C12   C13   A    
C20   O22   S    
C25   C26   D    
O4    C2    A    
C24   C32   S    
O19   C34   A    
O18   V4    S    
V4    O20   S    
O2    C1    A    
C29   C30   D    
O21   H4    S    
C19   C20   D    
O9    V2    S    
C21   C22   D    
C2    C30   S    
C4    C14   S    
C7    O27   S    
O3    C4    A    
C27   Cl3   S    
O1    V2    S    
O6    V2    S    
C9    C11   A    
C22   C34   S    
O2    V1    S    
C30   H3    S    
O13   C34   A    
O12   V3    S    
C13   C18   A    
C11   C33   S    
C17   O21   S    
C16   C17   A    
C28   Cl4   S    
O11   V4    S    
O1    C2    A    
C15   O28   S    
O14   V3    S    
O5    V1    S    
O8    C3    A    
C5    C10   A    
O22   H5    S    
C23   H2    S    
C13   C14   A    
O4    V1    S    
O3    V1    S    
V1    O10   S    
C6    O26   S    
C31   O16   A    
V3    O20   S    
C25   Cl1   S    
O15   V3    S    
O7    V2    S    
C28   C31   S    
O27   H10   S    
C8    C9    A    
O28   H11   S    
C10   C14   A    
C15   C16   A    
C5    O25   S    
C8    Cl6   S    
