data_mof_unit_14536.cif
_audit_creation_date              2012-10-26T21:08:07-0400
_audit_creation_method            fapswitch 2.2
_symmetry_space_group_name_H-M    P1
_symmetry_Int_Tables_number       1
_space_group_crystal_system       triclinic
_cell_length_a                    15.840268
_cell_length_b                    10.827043
_cell_length_c                    9.631227
_cell_angle_alpha                 90.53882
_cell_angle_beta                  89.541058
_cell_angle_gamma                 95.199427
_cell_volume                      1644.87502544

loop_
_atom_site_label
_atom_site_type_symbol
_atom_type_description
_atom_site_fract_x
_atom_site_fract_y
_atom_site_fract_z
_atom_type_partial_charge
C1    C     C_R   0.492477 0.261921 0.499704 0.594544
C2    C     C_R   0.296113 0.023116 0.730796 -0.038349
C3    C     C_R   0.304982 0.897591 0.739656 0.210180
C4    C     C_R   0.340450 0.505835 0.500326 0.590485
C5    C     C_R   0.367770 0.846621 0.662878 -0.085772
C6    C     C_R   0.427281 0.922008 0.582829 -0.042049
C7    C     C_R   0.421052 0.052136 0.577553 0.028102
C8    C     C_R   0.483166 0.126239 0.497951 0.027683
C9    C     C_R   0.542617 0.069832 0.416831 -0.148590
C10   C     C_R   0.545396 0.942916 0.417602 -0.115074
C11   C     C_R   0.490115 0.869336 0.502151 0.039307
C12   C     C_3   0.083491 0.512132 0.501310 0.051466
C13   C     C_R   0.627303 0.641191 0.149881 -0.085232
C14   C     C_R   0.704149 0.678607 0.088984 -0.202786
C15   C     C_R   0.712723 0.669007 0.947633 -0.107484
C16   C     C_R   0.497698 0.736866 0.500533 0.558063
C17   C     C_R   0.641542 0.635425 0.866283 0.265954
C18   C     C_R   0.566300 0.568800 0.926620 0.158388
C19   C     C_R   0.563600 0.569451 0.076346 0.126609
C20   C     C_R   0.439065 0.433889 0.073634 0.011210
C21   C     C_R   0.438655 0.434733 0.926159 0.009775
C22   C     C_R   0.660039 0.499984 0.499497 0.572050
C23   C     C_3   0.977591 0.615311 0.559365 -0.089776
C24   C     C_3   0.966917 0.412177 0.572676 -0.103253
C25   C     C_3   0.023725 0.405503 0.441796 -0.095505
C26   C     C_1   0.250839 0.510091 0.501190 0.048180
C27   C     C_1   0.750063 0.502733 0.498671 -0.001885
C28   C     C_3   0.028177 0.518847 0.632234 -0.082538
C29   C     C_3   0.917887 0.508598 0.499788 0.038908
C30   C     C_3   0.034526 0.608633 0.428433 -0.096638
C31   C     C_3   0.973232 0.501929 0.368901 -0.104671
C32   C     C_1   0.175297 0.512092 0.501559 -0.001977
C33   C     C_1   0.825899 0.505559 0.498904 -0.046901
C34   C     C_R   0.350486 0.099130 0.646610 0.190143
Cl1   Cl    Cl    0.232549 0.801552 0.838190 -0.617237
Cl2   Cl    Cl    0.650208 0.734190 0.722343 -0.609776
Cl3   Cl    Cl    0.313007 0.241339 0.610964 -0.651810
Cu1   Cu    Cu3+1 0.499990 0.499990 0.640660 1.048989
Cu2   Cu    Cu3+1 0.500010 0.500010 0.359340 0.970011
H1    H     H_    0.044026 0.319377 0.393571 0.131347
H2    H     H_    0.949313 0.494941 0.260820 0.119747
H3    H     H_    0.063683 0.689315 0.369336 0.133070
H4    H     H_    0.957231 0.701376 0.607644 0.133797
H5    H     H_    0.052149 0.525939 0.740280 0.147361
H6    H     H_    0.589067 0.125047 0.354775 0.130894
H7    H     H_    0.243170 0.060550 0.783316 0.179950
H8    H     H_    0.367105 0.747138 0.665166 0.172110
H9    H     H_    0.592898 0.902049 0.354822 0.126275
H10   H     H_    0.389133 0.379077 0.128389 0.134802
H11   H     H_    0.620823 0.669566 0.255176 0.189219
H12   H     H_    0.755209 0.723742 0.150387 0.131111
H13   H     H_    0.771122 0.710442 0.901357 0.162574
H14   H     H_    0.388398 0.380757 0.871490 0.164682
H15   H     H_    0.937832 0.331477 0.631826 0.122900
N1    N     N_R   0.500800 0.501210 0.147910 -0.246089
N2    N     N_R   0.500830 0.501290 0.852040 -0.242795
O1    O     O_R   0.499990 0.319640 0.618810 -0.472747
O2    O     O_R   0.500000 0.319660 0.381240 -0.498513
O3    O     O_R   0.379070 0.499980 0.618770 -0.467382
O4    O     O_R   0.379080 0.500000 0.381190 -0.495945
O5    O     O_R   0.500000 0.680340 0.618760 -0.449975
O6    O     O_R   0.500010 0.680360 0.381190 -0.532225
O7    O     O_R   0.620920 0.500000 0.618810 -0.458610
O8    O     O_R   0.620930 0.500020 0.381230 -0.528303

loop_
_geom_bond_atom_site_label_1
_geom_bond_atom_site_label_2
_ccdc_geom_bond_type
C16   O5    A    
C25   C31   S    
C21   N2    A    
C4    C26   S    
C24   H15   S    
C9    H6    S    
C6    C7    A    
C12   C32   S    
C17   Cl2   S    
C3    Cl1   S    
C21   H14   S    
C34   Cl3   S    
C9    C10   A    
C14   H12   S    
C18   N2    A    
C12   C25   S    
Cu1   O5    S    
Cu1   O3    S    
C2    C34   A    
C17   C18   A    
C22   O7    A    
C23   H4    S    
C7    C8    A    
C29   C31   S    
C1    O2    A    
C27   C33   T    
C26   C32   T    
Cu2   O8    S    
C5    H8    S    
C30   C31   S    
C4    O4    A    
C5    C6    A    
C16   O6    A    
C12   C28   S    
C20   N1    A    
C20   H10   S    
Cu2   O4    S    
C23   C29   S    
C4    O3    A    
C2    C3    A    
C1    O1    A    
C22   C27   S    
C25   H1    S    
C10   H9    S    
Cu1   Cu2   S    
C7    C34   A    
Cu2   N1    S    
C23   C28   S    
C10   C11   A    
C13   C19   A    
C22   O8    A    
C13   H11   S    
Cu1   O1    S    
C23   C30   S    
C29   C33   S    
C24   C29   S    
Cu1   N2    S    
C24   C25   S    
Cu1   O7    S    
C11   C16   S    
C19   N1    A    
C6    C11   A    
C15   C17   A    
Cu2   O6    S    
C14   C15   A    
C18   C19   A    
C31   H2    S    
C13   C14   A    
C12   C30   S    
C20   C21   A    
C15   H13   S    
Cu2   O2    S    
C30   H3    S    
C28   H5    S    
C2    H7    S    
C24   C28   S    
C1    C8    S    
C8    C9    A    
C3    C5    A    
