data_mof_unit_48545.cif
_audit_creation_date              2012-12-10T17:16:40-0500
_audit_creation_method            fapswitch 2.2
_symmetry_space_group_name_H-M    P1
_symmetry_Int_Tables_number       1
_space_group_crystal_system       triclinic
_cell_length_a                    10.30574
_cell_length_b                    10.686655
_cell_length_c                    10.912511
_cell_angle_alpha                 93.651464
_cell_angle_beta                  92.897255
_cell_angle_gamma                 81.262489
_cell_volume                      1184.45994899

loop_
_atom_site_label
_atom_site_type_symbol
_atom_type_description
_atom_site_fract_x
_atom_site_fract_y
_atom_site_fract_z
_atom_type_partial_charge
C1    C     C_R   0.448354 0.505605 0.268474 0.900427
C2    C     C_R   0.550746 0.493290 0.731432 0.899909
C3    C     C_2   0.427543 0.505113 0.137670 -0.437224
C4    C     C_2   0.566954 0.488462 0.862045 -0.433743
C5    C     C_2   0.514695 0.439138 0.060083 0.188408
C6    C     C_2   0.478080 0.446124 0.930789 0.188380
C7    C     C_2   0.072819 0.474002 0.513409 0.080401
C8    C     C_2   0.925192 0.516815 0.508573 0.101556
C9    C     C_R   0.501467 0.259459 0.494564 0.878404
C10   C     C_R   0.498783 0.738740 0.501330 0.878307
C11   C     C_R   0.650405 0.074295 0.313139 -0.252127
C12   C     C_R   0.442020 0.894053 0.718801 -0.225591
C13   C     C_R   0.707483 0.981946 0.225464 0.237866
C14   C     C_R   0.437127 0.966873 0.829897 0.237631
C15   C     C_R   0.658677 0.867206 0.208104 -0.196095
C16   C     C_R   0.464402 0.090747 0.831558 -0.184095
C17   C     C_R   0.569009 0.838075 0.287568 -0.213470
C18   C     C_R   0.488341 0.143441 0.722852 -0.213762
C19   C     C_R   0.537242 0.917892 0.393398 0.076202
C20   C     C_R   0.485398 0.073466 0.609327 0.079324
C21   C     C_R   0.563241 0.042423 0.399145 0.046045
C22   C     C_R   0.470050 0.945869 0.608149 0.021285
C23   C     C_R   0.493174 0.871166 0.498394 -0.169559
C24   C     C_R   0.513657 0.124089 0.499426 -0.189541
H1    H     H_    0.471365 0.144814 0.917867 0.160242
H2    H     H_    0.695957 0.796198 0.138292 0.147880
H3    H     H_    0.687884 0.163142 0.322508 0.156150
H4    H     H_    0.427799 0.796133 0.721236 0.147660
H5    H     H_    0.537000 0.746382 0.273028 0.157169
H6    H     H_    0.518835 0.235846 0.728792 0.144479
H7    H     H_    0.654544 0.520919 0.904122 0.141793
H8    H     H_    0.337484 0.560664 0.103212 0.155438
H9    H     H_    0.879830 0.371140 0.394010 0.147191
H10   H     H_    0.122312 0.645103 0.570303 0.167210
N1    N     N_2   0.157300 0.551390 0.551120 -0.224237
N2    N     N_2   0.842700 0.448610 0.448880 -0.223002
O1    O     O_R   0.568940 0.489660 0.307530 -0.630103
O2    O     O_R   0.431060 0.510340 0.692470 -0.629220
O3    O     O_R   0.348880 0.522640 0.340350 -0.614662
O4    O     O_R   0.651120 0.477360 0.659650 -0.620334
O5    O     O_R   0.610030 0.300280 0.483580 -0.623769
O6    O     O_R   0.389970 0.699720 0.516420 -0.619065
O7    O     O_R   0.389970 0.333270 0.516400 -0.624529
O8    O     O_R   0.610030 0.666730 0.483600 -0.627020
Zn1   Zn    Zn3+2 0.646940 0.477980 0.478080 0.900616
Zn2   Zn    Zn3+2 0.353060 0.522020 0.521920 0.908357
C25   C     C_3   0.831125 0.996953 0.163244 -0.419269
C26   C     C_3   0.820219 0.970837 0.023689 -0.892113
H11   H     H_    0.829375 0.867357 0.000199 0.246859
H12   H     H_    0.724399 0.016914 0.985314 0.269809
H13   H     H_    0.901083 0.006888 0.979857 0.256522
H14   H     H_    0.858074 0.092359 0.186525 0.194303
H15   H     H_    0.913300 0.928402 0.200717 0.205275
C27   C     C_3   0.410911 0.910392 0.947651 -0.439242
C28   C     C_3   0.272672 0.960433 0.989447 -0.863080
H16   H     H_    0.260341 0.064861 0.007470 0.257405
H17   H     H_    0.198381 0.936328 0.917998 0.260717
H18   H     H_    0.255809 0.916424 0.075624 0.251428
H19   H     H_    0.421989 0.805195 0.936050 0.202405
H20   H     H_    0.483708 0.934495 0.020221 0.221221
C29   C     C_3   0.340045 0.418576 0.884021 -0.336009
C30   C     C_3   0.264117 0.350458 0.970724 -0.941893
H21   H     H_    0.330491 0.283612 0.027548 0.265061
H22   H     H_    0.203415 0.419714 0.032399 0.255614
H23   H     H_    0.195466 0.296024 0.915907 0.255293
H24   H     H_    0.278063 0.509761 0.862812 0.212446
H25   H     H_    0.346440 0.358561 0.798003 0.230869
C31   C     C_3   0.647079 0.362638 0.100929 -0.354277
C32   C     C_3   0.729516 0.287124 0.000178 -0.925121
H26   H     H_    0.669945 0.229211 0.939277 0.272163
H27   H     H_    0.778468 0.348137 0.945098 0.256625
H28   H     H_    0.812203 0.225688 0.043364 0.261872
H29   H     H_    0.710892 0.427912 0.147037 0.224298
H30   H     H_    0.626700 0.293788 0.166426 0.210960
C33   C     C_3   0.876198 0.636607 0.585410 -0.339472
C34   C     C_3   0.871271 0.756319 0.512321 -0.348806
C35   C     C_3   0.837267 0.876628 0.594577 -0.864624
H31   H     H_    0.744287 0.875006 0.640954 0.269464
H32   H     H_    0.917118 0.884764 0.665577 0.252060
H33   H     H_    0.825690 0.960964 0.538381 0.259814
H34   H     H_    0.966331 0.759917 0.470518 0.197488
H35   H     H_    0.798620 0.755818 0.434288 0.261983
H36   H     H_    0.781333 0.632626 0.624795 0.250746
H37   H     H_    0.941494 0.643662 0.668985 0.150075
C36   C     C_3   0.115972 0.332077 0.494650 -0.326508
C37   C     C_3   0.152443 0.291347 0.361299 -0.310453
C38   C     C_3   0.176372 0.147146 0.341125 -0.913107
H38   H     H_    0.253435 0.104882 0.407296 0.278419
H39   H     H_    0.084319 0.107795 0.353036 0.254374
H40   H     H_    0.209198 0.120628 0.246379 0.254021
H41   H     H_    0.072352 0.329825 0.296010 0.190029
H42   H     H_    0.241359 0.329046 0.337421 0.262009
H43   H     H_    0.191620 0.297872 0.564733 0.225110
H44   H     H_    0.035183 0.281085 0.518304 0.160057

loop_
_geom_bond_atom_site_label_1
_geom_bond_atom_site_label_2
_ccdc_geom_bond_type
C38   H38   S    
C10   O6    A    
C17   H5    S    
C2    C4    S    
C28   H16   S    
C7    C8    S    
C27   H20   S    
C36   C37   S    
C12   H4    S    
C6    C29   S    
C19   C21   A    
C37   H41   S    
C8    N2    D    
C5    C6    S    
C33   H37   S    
C31   H30   S    
C12   C22   A    
H9    N2    S    
H10   N1    S    
O6    Zn2   S    
C32   H27   S    
C29   H25   S    
C30   H22   S    
C36   H43   S    
C29   H24   S    
C26   H13   S    
C20   C24   A    
C31   C32   S    
C18   H6    S    
C1    O1    A    
C25   H15   S    
C26   H12   S    
C3    H8    S    
C5    C31   S    
C27   H19   S    
C35   H32   S    
O4    Zn1   S    
C9    O7    A    
C10   O8    A    
C34   C35   S    
C4    C6    D    
C34   H35   S    
C13   C25   S    
C37   C38   S    
C15   H2    S    
C31   H29   S    
C35   H31   S    
C11   C21   A    
C8    C33   S    
C1    C3    S    
C32   H28   S    
C19   C23   A    
C33   C34   S    
C30   H21   S    
C36   H44   S    
C2    O2    A    
C25   C26   S    
C11   H3    S    
N2    Zn1   S    
O3    Zn2   S    
C26   H11   S    
C14   C27   S    
C20   C22   A    
C28   H17   S    
C14   C16   A    
C28   H18   S    
C21   C24   A    
O1    Zn1   S    
O8    Zn1   S    
C35   H33   S    
C16   H1    S    
C15   C17   A    
C27   C28   S    
C30   H23   S    
C7    N1    D    
C12   C14   A    
C3    C5    D    
C34   H34   S    
C9    C24   S    
C25   H14   S    
C10   C23   S    
C9    O5    A    
C13   C15   A    
C37   H42   S    
C11   C13   A    
C33   H36   S    
C7    C36   S    
C17   C19   A    
C18   C20   A    
C29   C30   S    
O7    Zn2   S    
C32   H26   S    
O2    Zn2   S    
C4    H7    S    
C1    O3    A    
C2    O4    A    
C16   C18   A    
C38   H40   S    
C38   H39   S    
O5    Zn1   S    
C22   C23   A    
N1    Zn2   S    
