data_mof_unit_21162.cif
_audit_creation_date              2013-03-05T16:00:03-0500
_audit_creation_method            fapswitch 2.2
_symmetry_space_group_name_H-M    P1
_symmetry_Int_Tables_number       1
_space_group_crystal_system       triclinic
_cell_length_a                    20.794391
_cell_length_b                    21.197912
_cell_length_c                    14.725237
_cell_angle_alpha                 89.911506
_cell_angle_beta                  127.735923
_cell_angle_gamma                 90.055024
_cell_volume                      5133.21759904

loop_
_atom_site_label
_atom_site_type_symbol
_atom_site_description
_atom_site_fract_x
_atom_site_fract_y
_atom_site_fract_z
_atom_type_partial_charge
O1    O     O_R   0.600040 0.935040 0.546740 -0.587798
O2    O     O_R   0.399960 0.064960 0.453260 -0.581431
O3    O     O_R   0.399960 0.935040 0.453260 -0.589819
O4    O     O_R   0.600040 0.064960 0.546740 -0.581647
O5    O     O_R   0.100040 0.435040 0.546740 -0.586934
O6    O     O_R   0.899960 0.564960 0.453260 -0.581504
O7    O     O_R   0.899960 0.435040 0.453260 -0.589198
O8    O     O_R   0.100040 0.564960 0.546740 -0.582255
O9    O     O_R   0.555010 0.935070 0.653220 -0.585969
O10   O     O_R   0.444990 0.064930 0.346780 -0.588570
O11   O     O_R   0.444990 0.935070 0.346780 -0.586987
O12   O     O_R   0.555010 0.064930 0.653220 -0.589047
O13   O     O_R   0.055010 0.435070 0.653220 -0.586104
O14   O     O_R   0.944990 0.564930 0.346780 -0.588843
O15   O     O_R   0.944990 0.435070 0.346780 -0.587916
O16   O     O_R   0.055010 0.564930 0.653220 -0.587805
C1    C     C_R   0.602327 0.913361 0.630911 0.808726
C2    C     C_R   0.396038 0.085301 0.367011 0.809238
C3    C     C_R   0.396633 0.914211 0.367895 0.808302
C4    C     C_R   0.603713 0.085504 0.632594 0.810854
C5    C     C_R   0.102166 0.413210 0.630742 0.808160
C6    C     C_R   0.896226 0.585434 0.367264 0.809567
C7    C     C_R   0.897514 0.413484 0.368948 0.807477
C8    C     C_R   0.102387 0.586549 0.630928 0.809590
Cu1   Cu    Cu3+1 0.526640 0.000000 0.436960 0.945761
Cu2   Cu    Cu3+1 0.473360 1.000000 0.563040 0.944776
Cu3   Cu    Cu3+1 0.026640 0.500000 0.436960 0.944644
Cu4   Cu    Cu3+1 0.973360 0.500000 0.563040 0.945364
C9    C     C_R   0.666588 0.131301 0.711817 -0.056404
C10   C     C_R   0.335797 0.866524 0.291678 -0.054349
C11   C     C_R   0.332338 0.130389 0.286717 -0.055675
C12   C     C_R   0.655931 0.860177 0.698687 -0.056834
C13   C     C_R   0.155575 0.639866 0.698369 -0.058635
C14   C     C_R   0.843105 0.360877 0.300241 -0.056122
C15   C     C_R   0.833089 0.630992 0.287715 -0.055681
C16   C     C_R   0.155197 0.359599 0.697927 -0.056865
C17   C     C_R   0.782699 0.196253 0.774528 -0.168601
C18   C     C_R   0.232264 0.791083 0.244737 -0.158137
C19   C     C_R   0.216406 0.195381 0.224580 -0.173050
C20   C     C_R   0.747054 0.776508 0.731559 -0.164638
C21   C     C_R   0.236224 0.729714 0.721937 -0.160919
C22   C     C_R   0.749067 0.278927 0.264148 -0.161473
C23   C     C_R   0.717949 0.696714 0.226478 -0.169637
C24   C     C_R   0.245782 0.275606 0.730107 -0.165860
C25   C     C_R   0.722622 0.153792 0.696300 -0.180308
C26   C     C_R   0.287964 0.837515 0.317113 -0.184849
C27   C     C_R   0.277195 0.153491 0.303438 -0.180184
C28   C     C_R   0.700514 0.829276 0.669507 -0.182424
C29   C     C_R   0.192674 0.675592 0.661941 -0.183868
C30   C     C_R   0.797011 0.330809 0.327734 -0.184079
C31   C     C_R   0.778163 0.654299 0.304691 -0.179964
C32   C     C_R   0.199784 0.328715 0.668736 -0.182522
C33   C     C_R   0.671763 0.151025 0.806529 -0.232689
C34   C     C_R   0.325792 0.850077 0.191961 -0.231372
C35   C     C_R   0.325266 0.148666 0.189777 -0.235126
C36   C     C_R   0.658508 0.838030 0.790140 -0.229839
C37   C     C_R   0.163818 0.657844 0.796108 -0.225220
C38   C     C_R   0.840753 0.338708 0.209040 -0.229002
C39   C     C_R   0.826496 0.649663 0.191355 -0.234458
C40   C     C_R   0.157085 0.336957 0.788606 -0.230523
C41   C     C_R   0.733511 0.191911 0.888864 0.097357
C42   C     C_R   0.268223 0.804913 0.115645 0.092857
C43   C     C_R   0.262943 0.189180 0.107126 0.096811
C44   C     C_R   0.701774 0.783308 0.850469 0.089940
C45   C     C_R   0.203710 0.713849 0.854584 0.091336
C46   C     C_R   0.795996 0.284810 0.147118 0.089301
C47   C     C_R   0.764648 0.690592 0.109206 0.096835
C48   C     C_R   0.199984 0.281982 0.848409 0.089607
C49   C     C_R   0.788112 0.215891 0.869917 0.164719
C50   C     C_R   0.222963 0.773891 0.145372 0.161681
C51   C     C_R   0.209493 0.213983 0.127505 0.164643
C52   C     C_R   0.748302 0.753468 0.821976 0.153660
C53   C     C_R   0.241697 0.749266 0.817448 0.148916
C54   C     C_R   0.747913 0.255911 0.173896 0.154727
C55   C     C_R   0.711350 0.715553 0.129747 0.162973
C56   C     C_R   0.246597 0.252236 0.819985 0.152685
C57   C     C_R   0.740626 0.211143 0.987144 0.062656
C58   C     C_R   0.256871 0.788103 0.013255 0.058400
C59   C     C_R   0.254525 0.207638 0.007476 0.061107
C60   C     C_R   0.701772 0.758667 0.940265 0.070835
C61   C     C_R   0.207561 0.735079 0.949389 0.069410
C62   C     C_R   0.796161 0.260023 0.057589 0.072028
C63   C     C_R   0.756463 0.709167 0.009795 0.061810
C64   C     C_R   0.199732 0.257082 0.937861 0.071479
C65   C     C_R   0.292132 0.823103 0.971748 -0.187206
C66   C     C_R   0.694960 0.182573 0.018199 -0.175942
C67   C     C_R   0.648051 0.781166 0.961655 -0.193176
C68   C     C_R   0.298345 0.177948 0.974486 -0.179196
C69   C     C_R   0.850944 0.281675 0.037486 -0.192434
C70   C     C_R   0.162443 0.705945 0.980946 -0.184771
C71   C     C_R   0.145771 0.279329 0.958953 -0.196219
C72   C     C_R   0.800340 0.679469 0.976878 -0.178869
C73   C     C_R   0.284173 0.804044 0.875280 -0.165192
C74   C     C_R   0.699140 0.204441 0.110381 -0.149969
C75   C     C_R   0.652416 0.759363 0.054106 -0.197109
C76   C     C_R   0.293670 0.199652 0.881667 -0.155993
C77   C     C_R   0.847271 0.259423 0.945912 -0.198256
C78   C     C_R   0.169497 0.725645 0.076406 -0.169938
C79   C     C_R   0.150161 0.257472 0.051423 -0.203513
C80   C     C_R   0.795634 0.701075 0.884013 -0.155496
H1    H     H_    0.312009 0.832244 0.846261 0.169262
H2    H     H_    0.663058 0.181311 0.131123 0.156722
H3    H     H_    0.610314 0.777900 0.067674 0.148257
H4    H     H_    0.328319 0.175708 0.859342 0.157866
H5    H     H_    0.890292 0.277255 0.933494 0.144227
H6    H     H_    0.133869 0.702066 0.097524 0.151326
H7    H     H_    0.107877 0.275818 0.064794 0.144276
H8    H     H_    0.830320 0.677118 0.861761 0.157007
H9    H     H_    0.365667 0.871765 0.177576 0.149964
H10   H     H_    0.625417 0.135040 0.812652 0.148558
H11   H     H_    0.627355 0.865151 0.814214 0.153494
H12   H     H_    0.370691 0.132056 0.182192 0.149156
H13   H     H_    0.873264 0.365197 0.186413 0.152849
H14   H     H_    0.138874 0.626804 0.825282 0.147810
H15   H     H_    0.125797 0.363913 0.812656 0.153522
H16   H     H_    0.871900 0.632956 0.183823 0.149163
H17   H     H_    0.294621 0.849820 0.393841 0.155550
H18   H     H_    0.719822 0.138869 0.623640 0.160037
H19   H     H_    0.699148 0.845634 0.598627 0.158017
H20   H     H_    0.281320 0.139569 0.377651 0.160588
H21   H     H_    0.798137 0.347212 0.398318 0.156911
H22   H     H_    0.186883 0.662379 0.586211 0.161673
H23   H     H_    0.198865 0.345368 0.598378 0.158061
H24   H     H_    0.782021 0.640133 0.378592 0.160747
H25   H     H_    0.264568 0.756866 0.692623 0.148602
H26   H     H_    0.713138 0.256593 0.285822 0.144141
H27   H     H_    0.676782 0.715074 0.241907 0.142690
H28   H     H_    0.280549 0.252660 0.707109 0.143115
H29   H     H_    0.824831 0.213901 0.760312 0.141447
H30   H     H_    0.197079 0.768090 0.267095 0.143423
H31   H     H_    0.175103 0.213593 0.239866 0.141050
H32   H     H_    0.781785 0.753506 0.708548 0.143431
H33   H     H_    0.324287 0.866818 0.009750 0.153652
H34   H     H_    0.656989 0.141809 0.975050 0.141111
H35   H     H_    0.600050 0.814435 0.906423 0.144786
H36   H     H_    0.335138 0.136489 0.016727 0.144443
H37   H     H_    0.899302 0.314574 0.093099 0.143174
H38   H     H_    0.119009 0.668797 0.931810 0.139015
H39   H     H_    0.097617 0.312449 0.903453 0.144384
H40   H     H_    0.837200 0.638056 0.019139 0.143440
N1    N     N_R   0.433280 1.000000 0.657760 -0.173577
N2    N     N_R   0.566720 0.000000 0.342240 -0.172905
N3    N     N_R   0.933280 0.500000 0.657760 -0.173375
N4    N     N_R   0.066720 0.500000 0.342240 -0.173975
C81   C     C_R   0.322101 0.987754 0.665120 -0.105082
C82   C     C_R   0.678379 0.993694 0.334967 -0.105212
C83   C     C_R   0.821741 0.489751 0.664860 -0.106056
C84   C     C_R   0.178515 0.497872 0.334778 -0.106556
C85   C     C_R   0.352831 0.991938 0.603338 -0.024094
C86   C     C_R   0.647546 0.995177 0.396781 -0.023679
C87   C     C_R   0.852692 0.492813 0.603236 -0.024024
C88   C     C_R   0.147690 0.497331 0.396688 -0.022307
C89   C     C_R   0.486925 0.003565 0.774680 0.029962
C90   C     C_R   0.512752 0.002091 0.225248 0.032913
C91   C     C_R   0.986838 0.503882 0.774718 0.031212
C92   C     C_R   0.012639 0.501791 0.225132 0.030848
C93   C     C_R   0.460122 0.003570 0.843838 -0.064227
C94   C     C_R   0.539307 0.003980 0.155857 -0.064472
C95   C     C_R   0.959831 0.505141 0.843619 -0.065580
C96   C     C_R   0.039046 0.505587 0.155641 -0.065025
C97   C     C_R   0.374846 0.999247 0.785919 0.017890
C98   C     C_R   0.624728 0.004084 0.213791 0.020982
C99   C     C_R   0.874532 0.501384 0.785646 0.020339
C100  C     C_R   0.124389 0.507679 0.213438 0.020072
C101  C     C_R   0.514963 0.006983 0.967668 0.026123
C102  C     C_R   0.484214 0.005427 0.031909 0.028570
C103  C     C_R   0.014551 0.509300 0.967345 0.021543
C104  C     C_R   0.983879 0.507262 0.031666 0.023632
C105  C     C_R   0.399312 0.007649 0.970197 -0.332501
C106  C     C_R   0.599398 0.014439 0.029136 -0.316963
C107  C     C_R   0.899022 0.509981 0.970004 -0.316260
C108  C     C_R   0.098621 0.518692 0.028506 -0.309107
C109  C     C_R   0.345344 0.007469 0.850214 0.350211
C110  C     C_R   0.653370 0.015757 0.149158 0.359453
C111  C     C_R   0.845099 0.510409 0.849917 0.359153
C112  C     C_R   0.152439 0.520968 0.148497 0.364607
H41   H     H_    0.449484 0.002319 0.188819 0.123278
H42   H     H_    0.550208 0.005829 0.811416 0.126945
H43   H     H_    0.949324 0.500323 0.188472 0.126640
H44   H     H_    0.050279 0.505287 0.811936 0.126499
H45   H     H_    0.687950 0.989506 0.489215 0.119375
H46   H     H_    0.312913 0.985158 0.511186 0.120230
H47   H     H_    0.188394 0.492230 0.489229 0.121046
H48   H     H_    0.812730 0.486040 0.511081 0.120315
H49   H     H_    0.372461 0.013196 0.013086 0.162389
H50   H     H_    0.625385 0.023153 0.985733 0.162417
H51   H     H_    0.872465 0.516172 0.013215 0.163249
H52   H     H_    0.123956 0.529022 0.984628 0.164141
N5    N     N_R   0.261755 0.022968 0.795950 0.150929
O17   O     O_R   0.225825 0.001029 0.837099 -0.332412
O18   O     O_R   0.226067 0.067106 0.718241 -0.368554
N6    N     N_R   0.735306 0.036371 0.202826 0.148468
O19   O     O_R   0.772630 0.019245 0.161173 -0.325245
O20   O     O_R   0.767455 0.080337 0.280701 -0.376069
N7    N     N_R   0.761918 0.527421 0.795638 0.149262
O21   O     O_R   0.725603 0.507266 0.837283 -0.323912
O22   O     O_R   0.727227 0.571319 0.717405 -0.372311
N8    N     N_R   0.233067 0.544577 0.201620 0.151041
O23   O     O_R   0.271807 0.528827 0.161464 -0.323221
O24   O     O_R   0.261773 0.590065 0.276306 -0.369726
C113  C     C_2   0.237813 0.963655 0.600860 0.451540
H53   H     H_    0.193030 0.975242 0.510594 0.063911
O25   O     O_2   0.219033 0.927294 0.645509 -0.508280
C114  C     C_2   0.764363 0.973721 0.399868 0.464069
H54   H     H_    0.808077 0.985842 0.490040 0.058232
O26   O     O_2   0.786059 0.940145 0.355826 -0.486594
C115  C     C_2   0.736946 0.466792 0.600369 0.461730
H55   H     H_    0.692584 0.478303 0.509976 0.059197
O27   O     O_2   0.717193 0.431436 0.645004 -0.487984
C116  C     C_2   0.265536 0.481003 0.400023 0.461038
H56   H     H_    0.308584 0.494051 0.489837 0.060645
O28   O     O_2   0.289044 0.448886 0.356779 -0.485573

loop_
_geom_bond_atom_site_label_1
_geom_bond_atom_site_label_2
_geom_bond_distance
_ccdc_geom_bond_type
C25   H18   1.083044 S    
O16   Cu4   1.944716 S    
C18   C50   1.402212 A    
C47   C63   1.421347 A    
C101  C102  1.430043 A    
O8    C8    1.294707 A    
C17   C49   1.402564 A    
C35   H12   1.076367 S    
O2    C2    1.295043 A    
C113  O25   1.221064 D    
C113  H53   1.085639 S    
C54   C74   1.390567 A    
Cu1   N2    2.015669 S    
C53   C73   1.390714 A    
C99   C111  1.420101 A    
C68   C76   1.387330 A    
O4    Cu1   1.954915 S    
C103  C108  1.406974 A    
C55   C75   1.390350 A    
C87   H48   1.082909 S    
C5    C16   1.466253 S    
C43   C59   1.421577 A    
C96   C104  1.444434 A    
C6    C15   1.464571 S    
C82   C98   1.428149 A    
O11   C3    1.297961 A    
C62   C69   1.416822 A    
C19   H31   1.083939 S    
C96   C100  1.423703 A    
C21   H25   1.083978 S    
C108  H52   1.076548 S    
C90   C94   1.428656 A    
C60   C67   1.416596 A    
C52   C80   1.391079 A    
C59   C64   1.420163 A    
C92   H43   1.075093 S    
C11   C35   1.396731 A    
O11   Cu1   1.944718 S    
C13   C29   1.400210 A    
O6    C6    1.294583 A    
C42   C58   1.421891 A    
C45   C53   1.418794 A    
C115  O27   1.220982 D    
C42   C50   1.418453 A    
C15   C39   1.396070 A    
C111  N7    1.438339 S    
N5    O18   1.301581 A    
C20   C28   1.392559 A    
C82   C114  1.482605 S    
C66   C74   1.386517 A    
C39   C47   1.401658 A    
O5    Cu3   1.953463 S    
C65   C73   1.386483 A    
C38   C46   1.401924 A    
C104  C107  1.407216 A    
O6    Cu4   1.953462 S    
C75   H3    1.084363 S    
C39   H16   1.076145 S    
C35   C43   1.402348 A    
C38   H13   1.075980 S    
C36   C44   1.401687 A    
O13   Cu4   1.944122 S    
O3    C3    1.294240 A    
N8    O23   1.301635 A    
C64   C71   1.416325 A    
O14   Cu3   1.944122 S    
C86   H45   1.082993 S    
Cu2   N1    2.015670 S    
C36   H11   1.076231 S    
C16   C32   1.401014 A    
C77   H5    1.084441 S    
C24   C32   1.392785 A    
O15   C7    1.297575 A    
C20   H32   1.083913 S    
C23   C31   1.391556 A    
O16   C8    1.297259 A    
C82   C86   1.398230 A    
O12   Cu2   1.944716 S    
O1    Cu1   1.953463 S    
C31   H24   1.083047 S    
C44   C60   1.420971 A    
O12   C4    1.297439 A    
C30   H21   1.083078 S    
C33   C41   1.401913 A    
C95   C103  1.443815 A    
C60   C63   1.419995 A    
C21   C29   1.392355 A    
C59   C68   1.416429 A    
C70   H38   1.076956 S    
C66   H34   1.077095 S    
O9    Cu2   1.944122 S    
C28   H19   1.083065 S    
C4    C9    1.465220 S    
C23   C55   1.402238 A    
C14   C30   1.400668 A    
C80   H8    1.084431 S    
C91   C95   1.429339 A    
C115  H55   1.085667 S    
C48   C64   1.421254 A    
C67   H35   1.077515 S    
C92   C96   1.429176 A    
C68   H36   1.077825 S    
C93   C101  1.444141 A    
C103  C104  1.430029 A    
C72   C80   1.386962 A    
C94   C98   1.424111 A    
C34   C42   1.402487 A    
Cu1   Cu2   2.681803 S    
C51   C79   1.390769 A    
C109  N5    1.438017 S    
O7    Cu4   1.954917 S    
C26   H17   1.083124 S    
C69   C77   1.386527 A    
C12   C36   1.395179 A    
C9    C33   1.396237 A    
C84   C100  1.428373 A    
N4    C92   1.365994 A    
C83   C87   1.398743 A    
C63   C72   1.416708 A    
C84   C116  1.482415 S    
C46   C62   1.421886 A    
C10   C34   1.395867 A    
O15   Cu3   1.944718 S    
C7    C14   1.465320 S    
C37   C45   1.402113 A    
C106  H50   1.075543 S    
C107  C111  1.399014 A    
Cu3   N4    2.015669 S    
O13   C5    1.297854 A    
O2    Cu2   1.953462 S    
Cu4   N3    2.015670 S    
C23   H27   1.083917 S    
N2    C90   1.364771 A    
C88   H47   1.083014 S    
C83   C115  1.482524 S    
O14   C6    1.297593 A    
C34   H9    1.075967 S    
C43   C51   1.418350 A    
C22   C54   1.402769 A    
C22   C30   1.392332 A    
C71   H39   1.077667 S    
C61   C70   1.417471 A    
C58   C65   1.416954 A    
O9    C1    1.297983 A    
C27   H20   1.083040 S    
C114  O26   1.221022 D    
C57   C66   1.416758 A    
C69   H37   1.077302 S    
C76   H4    1.084420 S    
C15   C31   1.400721 A    
C85   H46   1.082894 S    
C95   C99   1.423999 A    
C47   C55   1.418368 A    
C73   H1    1.084576 S    
C72   H40   1.077587 S    
C93   C97   1.424435 A    
C49   C77   1.390344 A    
C91   H44   1.075447 S    
O10   Cu1   1.944122 S    
C19   C27   1.391763 A    
C106  C110  1.398599 A    
C41   C49   1.418291 A    
C101  C106  1.407703 A    
C1    C12   1.465188 S    
C41   C57   1.421994 A    
C89   H42   1.074818 S    
C24   H28   1.083901 S    
C13   C37   1.394844 A    
C20   C52   1.402704 A    
O1    C1    1.294532 A    
C10   C26   1.400667 A    
O3    Cu2   1.954917 S    
C84   C88   1.399035 A    
C97   C109  1.419410 A    
C112  N8    1.437926 S    
C16   C40   1.395973 A    
C78   H6    1.084544 S    
C67   C75   1.386376 A    
N8    O24   1.301607 A    
C37   H14   1.076004 S    
C98   C110  1.419381 A    
C48   C56   1.418060 A    
C79   H7    1.084404 S    
N1    C85   1.352364 A    
C116  O28   1.221029 D    
C8    C13   1.464056 S    
C18   H30   1.083949 S    
C107  H51   1.075895 S    
N3    C91   1.365893 A    
C71   C79   1.386731 A    
N6    O19   1.301642 A    
N2    C86   1.352083 A    
C105  H49   1.075370 S    
N4    C88   1.352257 A    
C83   C99   1.428367 A    
C110  N6    1.438726 S    
C56   C76   1.391528 A    
C81   C113  1.482581 S    
C58   C61   1.421220 A    
N1    C89   1.365151 A    
C12   C28   1.400995 A    
C81   C97   1.427995 A    
C57   C62   1.420562 A    
O10   C2    1.297623 A    
O7    C7    1.295046 A    
C29   H22   1.083052 S    
N3    C87   1.352427 A    
C32   H23   1.083048 S    
N6    O20   1.301623 A    
C17   H29   1.083951 S    
C100  C112  1.419717 A    
C44   C52   1.418149 A    
C89   C93   1.429140 A    
N5    O17   1.301653 A    
C18   C26   1.391467 A    
C22   H26   1.083924 S    
C33   H10   1.075811 S    
C21   C53   1.403047 A    
N7    O21   1.301620 A    
O4    C4    1.295068 A    
C94   C102  1.443981 A    
C108  C112  1.398733 A    
O5    C5    1.295172 A    
C114  H54   1.085624 S    
C40   C48   1.402333 A    
C102  C105  1.407546 A    
C116  H56   1.085564 S    
C90   H41   1.074608 S    
C9    C25   1.400594 A    
Cu3   Cu4   2.681803 S    
C14   C38   1.395817 A    
O8    Cu3   1.954915 S    
C105  C109  1.397846 A    
C45   C61   1.422271 A    
C40   H15   1.076394 S    
C11   C27   1.400833 A    
C2    C11   1.465587 S    
C24   C56   1.402782 A    
C3    C10   1.464567 S    
C17   C25   1.391876 A    
C70   C78   1.386044 A    
C81   C85   1.398242 A    
C50   C78   1.390094 A    
C74   H2    1.084418 S    
C65   H33   1.077656 S    
N7    O22   1.301609 A    
C19   C51   1.402265 A    
C46   C54   1.418161 A    
