data_mof_unit_52450.cif
_audit_creation_date              2012-12-10T20:44:04-0500
_audit_creation_method            fapswitch 2.2
_symmetry_space_group_name_H-M    P1
_symmetry_Int_Tables_number       1
_space_group_crystal_system       triclinic
_cell_length_a                    17.44247
_cell_length_b                    10.674254
_cell_length_c                    9.898563
_cell_angle_alpha                 89.453327
_cell_angle_beta                  89.870128
_cell_angle_gamma                 91.258907
_cell_volume                      1842.43310022

loop_
_atom_site_label
_atom_site_type_symbol
_atom_type_description
_atom_site_fract_x
_atom_site_fract_y
_atom_site_fract_z
_atom_type_partial_charge
C1    C     C_R   0.497333 0.260081 0.500574 0.896176
C2    C     C_R   0.115795 0.555971 0.522035 0.137588
C3    C     C_R   0.487500 0.061458 0.621731 -0.012757
C4    C     C_R   0.353712 0.502069 0.500601 0.864214
C5    C     C_R   0.482843 0.128852 0.501941 -0.159566
C6    C     C_R   0.458623 0.067806 0.384259 -0.217724
C7    C     C_R   0.455485 0.937198 0.381034 0.187860
C8    C     C_R   0.477139 0.870336 0.499581 -0.129048
C9    C     C_R   0.481067 0.934219 0.622061 0.014191
C10   C     C_3   0.529058 0.919729 0.747198 -0.056991
C11   C     C_3   0.541461 0.063837 0.740281 0.412734
C12   C     C_R   0.886751 0.553863 0.503314 0.111043
C13   C     C_R   0.454871 0.416264 0.070857 0.136907
C14   C     C_R   0.551353 0.572940 0.068822 0.227768
C15   C     C_R   0.550994 0.571519 0.925392 -0.155832
C16   C     C_R   0.494379 0.739664 0.499322 0.880670
C17   C     C_R   0.456817 0.414092 0.929259 0.208765
C18   C     C_3   0.373393 0.389616 0.915454 -0.503300
C19   C     C_3   0.368786 0.395977 0.069141 -0.065709
C20   C     C_R   0.646504 0.500155 0.499713 0.868817
C21   C     C_R   0.841404 0.614349 0.596947 -0.165001
C22   C     C_R   0.762767 0.594229 0.595180 -0.254225
C23   C     C_1   0.967229 0.565601 0.511414 -0.056294
C24   C     C_R   0.729378 0.513674 0.499567 -0.043397
C25   C     C_R   0.775521 0.451618 0.404699 0.179934
C26   C     C_R   0.854683 0.472915 0.408003 -0.161317
C27   C     C_3   0.432312 0.875092 0.250501 -0.873952
C28   C     C_3   0.479415 0.867086 0.864241 -0.886166
C29   C     C_3   0.557495 0.140900 0.974680 -0.773046
C30   C     C_3   0.658545 0.059330 0.587110 -0.847780
C31   C     C_3   0.610234 0.658544 0.132209 -0.873327
C32   C     C_3   0.320644 0.506172 0.115890 -0.790984
C33   C     C_3   0.742460 0.359834 0.304273 -0.900685
C34   C     C_1   0.035221 0.566359 0.517370 -0.053619
C35   C     C_3   0.102196 0.392612 0.710166 -0.933108
C36   C     C_R   0.149375 0.467918 0.609269 0.233874
C37   C     C_R   0.228036 0.449603 0.599817 -0.209871
C38   C     C_R   0.271780 0.517143 0.504299 -0.071241
C39   C     C_R   0.238138 0.607136 0.421328 -0.231141
C40   C     C_R   0.159946 0.625803 0.429463 -0.203926
H1    H     H_    0.866851 0.675746 0.671886 0.143539
H2    H     H_    0.272425 0.663343 0.351251 0.150061
H3    H     H_    0.133724 0.693313 0.362459 0.147295
H4    H     H_    0.446857 0.120986 0.293058 0.161659
H5    H     H_    0.387992 0.800974 0.270483 0.239393
H6    H     H_    0.407483 0.943005 0.177904 0.220183
H7    H     H_    0.483039 0.834536 0.201140 0.259852
H8    H     H_    0.511990 0.870392 0.959902 0.237924
H9    H     H_    0.425102 0.918081 0.876136 0.237513
H10   H     H_    0.463226 0.768051 0.844864 0.272598
H11   H     H_    0.452447 0.123067 0.871629 0.210381
H12   H     H_    0.581364 0.864217 0.732091 0.161998
H13   H     H_    0.522058 0.170072 0.061736 0.223106
H14   H     H_    0.604046 0.212189 0.959286 0.243745
H15   H     H_    0.583238 0.049466 0.999620 0.246017
H16   H     H_    0.628512 0.201666 0.716025 0.252638
H17   H     H_    0.720395 0.085551 0.592502 0.251366
H18   H     H_    0.635154 0.102188 0.493897 0.237589
H19   H     H_    0.654088 0.956038 0.580173 0.236232
H20   H     H_    0.602638 0.671377 0.240548 0.295329
H21   H     H_    0.668289 0.621346 0.114393 0.224175
H22   H     H_    0.607695 0.753203 0.085219 0.201965
H23   H     H_    0.590520 0.631373 0.868447 0.159275
H24   H     H_    0.291176 0.478648 0.210785 0.250111
H25   H     H_    0.356044 0.592764 0.130434 0.247389
H26   H     H_    0.274267 0.526798 0.042793 0.224685
H27   H     H_    0.788168 0.309819 0.249781 0.230128
H28   H     H_    0.705873 0.288467 0.357364 0.236876
H29   H     H_    0.707925 0.409813 0.227693 0.262146
H30   H     H_    0.138226 0.329060 0.771333 0.237419
H31   H     H_    0.072866 0.456824 0.780059 0.245538
H32   H     H_    0.058520 0.334646 0.656484 0.247635
H33   H     H_    0.344628 0.466426 0.860101 0.227876
H34   H     H_    0.360542 0.294519 0.875660 0.164254
H35   H     H_    0.727781 0.642762 0.667708 0.153601
H36   H     H_    0.350833 0.304598 0.115615 0.157620
H37   H     H_    0.891651 0.425110 0.337912 0.136391
H38   H     H_    0.255229 0.381962 0.665437 0.139683
N1    N     N_R   0.499490 0.499140 0.142800 -0.109233
N2    N     N_R   0.499490 0.499180 0.857150 -0.122099
N3    N     N_2   0.510572 0.132607 0.854227 -0.295697
N4    N     N_2   0.619873 0.106285 0.705991 -0.299080
O1    O     O_R   0.500010 0.316790 0.614690 -0.605367
O2    O     O_R   0.500000 0.316760 0.385350 -0.622640
O3    O     O_R   0.389120 0.500020 0.614710 -0.620142
O4    O     O_R   0.389110 0.499990 0.385370 -0.613863
O5    O     O_R   0.500000 0.683240 0.614650 -0.621728
O6    O     O_R   0.499990 0.683210 0.385310 -0.625243
O7    O     O_R   0.610890 0.500010 0.614630 -0.622471
O8    O     O_R   0.610880 0.499980 0.385290 -0.612433
Zn1   Zn    Zn3+2 0.500010 0.500020 0.653130 0.935264
Zn2   Zn    Zn3+2 0.499990 0.499980 0.346870 0.929009

loop_
_geom_bond_atom_site_label_1
_geom_bond_atom_site_label_2
_ccdc_geom_bond_type
C13   N1    A    
O5    Zn1   S    
C31   H21   S    
C35   C36   S    
C14   C31   S    
C10   H12   S    
O3    Zn1   S    
C7    C8    A    
C11   N3    S    
C1    O2    A    
C12   C23   S    
C1    C5    S    
C36   C37   A    
C5    C6    A    
C4    O4    A    
C29   H14   S    
C10   C28   S    
C30   H17   S    
C7    C27   S    
C18   C19   S    
C28   H10   S    
C40   H3    S    
C28   H8    S    
O6    Zn2   S    
C35   H30   S    
C8    C9    A    
C16   O5    A    
O7    Zn1   S    
C9    C10   S    
H11   N3    S    
C33   H29   S    
C2    C34   S    
C35   H31   S    
C18   H34   S    
C6    H4    S    
C21   C22   A    
C31   H22   S    
C22   H35   S    
C19   C32   S    
C39   H2    S    
C11   N4    S    
C26   H37   S    
C13   C19   S    
C20   C24   S    
C24   C25   A    
C32   H24   S    
C39   C40   A    
C4    O3    A    
C29   H15   S    
C25   C26   A    
C20   O8    A    
C12   C21   A    
C17   N2    A    
C12   C26   A    
C31   H20   S    
C30   N4    S    
C29   N3    S    
C37   C38   A    
C3    C9    A    
C28   H9    S    
O8    Zn2   S    
C15   N2    A    
C23   C34   T    
C30   H19   S    
C17   C18   S    
C14   N1    A    
N1    Zn2   S    
C21   H1    S    
C27   H6    S    
C27   H7    S    
C4    C38   S    
C35   H32   S    
C18   H33   S    
C22   C24   A    
C33   H27   S    
C32   H26   S    
C37   H38   S    
C2    C36   A    
C19   H36   S    
C3    C5    A    
H16   N4    S    
C6    C7    A    
C1    O1    A    
O1    Zn1   S    
C20   O7    A    
C13   C17   A    
N2    Zn1   S    
O4    Zn2   S    
C27   H5    S    
C38   C39   A    
C29   H13   S    
C30   H18   S    
C3    C11   S    
C10   C11   S    
C2    C40   A    
C8    C16   S    
C16   O6    A    
C15   H23   S    
C14   C15   A    
O2    Zn2   S    
C33   H28   S    
C25   C33   S    
C32   H25   S    
