data_mof_unit_56957.cif
_audit_creation_date              2012-12-10T18:28:09-0500
_audit_creation_method            fapswitch 2.2
_symmetry_space_group_name_H-M    P1
_symmetry_Int_Tables_number       1
_space_group_crystal_system       triclinic
_cell_length_a                    23.169068
_cell_length_b                    20.237963
_cell_length_c                    14.985014
_cell_angle_alpha                 89.999876
_cell_angle_beta                  99.374848
_cell_angle_gamma                 89.999938
_cell_volume                      6932.54807898

loop_
_atom_site_label
_atom_site_type_symbol
_atom_type_description
_atom_site_fract_x
_atom_site_fract_y
_atom_site_fract_z
_atom_type_partial_charge
C1    C     C_R   0.575535 0.087487 0.553752 0.859494
C2    C     C_R   0.425158 0.911823 0.446586 0.866842
C3    C     C_R   0.424465 0.087487 0.446248 0.859496
C4    C     C_R   0.574841 0.911822 0.553414 0.866847
C5    C     C_R   0.075534 0.587488 0.553751 0.859497
C6    C     C_R   0.925159 0.411822 0.446586 0.866817
C7    C     C_R   0.924465 0.587488 0.446249 0.859495
C8    C     C_R   0.074841 0.411822 0.553415 0.866810
C9    C     C_R   0.230530 0.206159 0.671873 -0.279122
C10   C     C_R   0.702526 0.692271 0.331522 -0.281190
C11   C     C_R   0.769504 0.206123 0.328158 -0.279114
C12   C     C_R   0.297477 0.692262 0.668457 -0.281182
C13   C     C_R   0.730534 0.706165 0.671874 -0.279090
C14   C     C_R   0.202528 0.192280 0.331520 -0.281192
C15   C     C_R   0.269442 0.706189 0.328106 -0.279099
C16   C     C_R   0.797466 0.192294 0.668508 -0.281203
C17   C     C_R   0.628848 0.987614 0.204312 -0.334806
C18   C     C_R   0.371150 0.987633 0.795688 -0.334800
C19   C     C_R   0.128850 0.487633 0.204312 -0.334804
C20   C     C_R   0.871151 0.487624 0.795688 -0.334807
C21   C     C_R   0.607351 0.992455 0.284963 0.013621
C22   C     C_R   0.392648 0.992466 0.715037 0.013624
C23   C     C_R   0.107352 0.492468 0.284963 0.013613
C24   C     C_R   0.892648 0.492462 0.715037 0.013607
C25   C     C_R   0.509671 0.000265 0.207702 -0.077881
C26   C     C_R   0.490328 0.000258 0.792298 -0.077887
C27   C     C_R   0.009671 0.500257 0.207702 -0.077894
C28   C     C_R   0.990329 0.500260 0.792297 -0.077887
C29   C     C_R   0.528353 0.993017 0.123774 -0.002281
C30   C     C_R   0.471646 0.993018 0.876226 -0.002283
C31   C     C_R   0.028354 0.493016 0.123774 -0.002289
C32   C     C_R   0.971647 0.493016 0.876226 -0.002288
C33   C     C_R   0.589465 0.988587 0.123165 0.176937
C34   C     C_R   0.410533 0.988601 0.876835 0.176940
C35   C     C_R   0.089467 0.488600 0.123165 0.176945
C36   C     C_R   0.910534 0.488593 0.876835 0.176943
C37   C     C_R   0.488745 0.990572 0.041398 0.082461
C38   C     C_R   0.511253 0.990567 0.958602 0.082461
C39   C     C_R   0.988747 0.490567 0.041398 0.082459
C40   C     C_R   0.011255 0.490569 0.958602 0.082460
C41   C     C_R   0.572434 0.986554 0.960757 -0.245252
C42   C     C_R   0.427563 0.986573 0.039244 -0.245250
C43   C     C_R   0.072436 0.486568 0.960757 -0.245253
C44   C     C_R   0.927565 0.486559 0.039243 -0.245254
C45   C     C_R   0.610679 0.984837 0.041856 -0.217753
C46   C     C_R   0.389319 0.984860 0.958145 -0.217754
C47   C     C_R   0.110681 0.484856 0.041856 -0.217756
C48   C     C_R   0.889320 0.484844 0.958144 -0.217756
C49   C     C_R   0.613119 0.856408 0.584567 -0.066440
C50   C     C_R   0.374516 0.128733 0.409753 -0.060324
C51   C     C_R   0.386875 0.856414 0.415428 -0.066449
C52   C     C_R   0.625485 0.128731 0.590249 -0.060327
C53   C     C_R   0.113121 0.356409 0.584569 -0.066497
C54   C     C_R   0.874517 0.628734 0.409754 -0.060327
C55   C     C_R   0.886887 0.356402 0.415439 -0.066494
C56   C     C_R   0.125482 0.628736 0.590245 -0.060324
C57   C     C_R   0.657474 0.783261 0.703819 -0.203044
C58   C     C_R   0.291547 0.147249 0.292972 -0.198659
C59   C     C_R   0.342503 0.783286 0.296164 -0.203025
C60   C     C_R   0.708447 0.147254 0.707041 -0.198661
C61   C     C_R   0.157464 0.283250 0.703817 -0.202987
C62   C     C_R   0.791546 0.647245 0.292974 -0.198661
C63   C     C_R   0.842569 0.283214 0.296211 -0.203007
C64   C     C_R   0.208458 0.647240 0.707017 -0.198658
C65   C     C_R   0.620039 0.835362 0.674962 -0.202649
C66   C     C_R   0.347814 0.122722 0.319492 -0.193072
C67   C     C_R   0.379945 0.835380 0.325028 -0.202640
C68   C     C_R   0.652181 0.122725 0.680514 -0.193070
C69   C     C_R   0.120030 0.335351 0.674960 -0.202619
C70   C     C_R   0.847814 0.622721 0.319493 -0.193071
C71   C     C_R   0.879994 0.335326 0.325059 -0.202626
C72   C     C_R   0.152189 0.622718 0.680502 -0.193071
C73   C     C_R   0.640733 0.822093 0.522774 -0.252915
C74   C     C_R   0.346289 0.162973 0.470577 -0.270444
C75   C     C_R   0.359265 0.822094 0.477219 -0.252938
C76   C     C_R   0.653717 0.162967 0.529427 -0.270448
C77   C     C_R   0.140745 0.322105 0.522780 -0.252853
C78   C     C_R   0.846290 0.662975 0.470577 -0.270442
C79   C     C_R   0.859256 0.322107 0.477228 -0.252839
C80   C     C_R   0.153704 0.662981 0.529420 -0.270439
C81   C     C_R   0.672846 0.764969 0.548721 0.085172
C82   C     C_R   0.286463 0.176564 0.450321 0.091201
C83   C     C_R   0.327143 0.764977 0.451264 0.085185
C84   C     C_R   0.713543 0.176560 0.549693 0.091200
C85   C     C_R   0.172851 0.264976 0.548722 0.085212
C86   C     C_R   0.786462 0.676562 0.450322 0.091196
C87   C     C_R   0.827161 0.264968 0.451301 0.085186
C88   C     C_R   0.213532 0.676567 0.549669 0.091196
C89   C     C_R   0.686055 0.750174 0.641552 0.143452
C90   C     C_R   0.260227 0.172860 0.358008 0.151462
C91   C     C_R   0.313925 0.750194 0.358430 0.143449
C92   C     C_R   0.739771 0.172864 0.642010 0.151465
C93   C     C_R   0.186052 0.250170 0.641552 0.143440
C94   C     C_R   0.760226 0.672855 0.358010 0.151463
C95   C     C_R   0.813975 0.250143 0.358477 0.143444
C96   C     C_R   0.239774 0.672853 0.641977 0.151460
C97   C     C_R   0.697857 0.727175 0.485774 -0.001318
C98   C     C_R   0.252254 0.195236 0.517277 -0.010071
C99   C     C_R   0.302136 0.727177 0.514208 -0.001316
C100  C     C_R   0.747758 0.195227 0.482744 -0.010070
C101  C     C_R   0.197861 0.227182 0.485773 -0.001373
C102  C     C_R   0.752254 0.695233 0.517277 -0.010076
C103  C     C_R   0.802146 0.227183 0.514254 -0.001361
C104  C     C_R   0.247736 0.695242 0.482708 -0.010077
C105  C     C_R   0.267195 0.182388 0.613390 0.100973
C106  C     C_R   0.670242 0.719086 0.393651 0.093736
C107  C     C_R   0.732830 0.182364 0.386634 0.100978
C108  C     C_R   0.329759 0.719075 0.606324 0.093724
C109  C     C_R   0.767197 0.682390 0.613390 0.100964
C110  C     C_R   0.170244 0.219097 0.393649 0.093766
C111  C     C_R   0.232785 0.682407 0.386595 0.100963
C112  C     C_R   0.829752 0.219116 0.606386 0.093781
H1    H     H_    0.240350 0.195178 0.743676 0.142128
H2    H     H_    0.682322 0.685670 0.261540 0.138627
H3    H     H_    0.759695 0.195130 0.256358 0.142126
H4    H     H_    0.317687 0.685651 0.738436 0.138629
H5    H     H_    0.740357 0.695188 0.743678 0.142126
H6    H     H_    0.182323 0.185681 0.261537 0.138627
H7    H     H_    0.259615 0.695219 0.256302 0.142129
H8    H     H_    0.817664 0.185706 0.738497 0.138625
H9    H     H_    0.592322 0.982467 0.900866 0.134686
H10   H     H_    0.407674 0.982495 0.099134 0.134684
H11   H     H_    0.092326 0.482488 0.900867 0.134687
H12   H     H_    0.907676 0.482474 0.099133 0.134690
H13   H     H_    0.371938 0.176697 0.533923 0.167293
H14   H     H_    0.640142 0.842347 0.455971 0.155986
H15   H     H_    0.628073 0.176687 0.466075 0.167299
H16   H     H_    0.359868 0.842336 0.544031 0.155996
H17   H     H_    0.871938 0.676699 0.533923 0.167292
H18   H     H_    0.140164 0.342367 0.455983 0.155965
H19   H     H_    0.128052 0.676709 0.466078 0.167285
H20   H     H_    0.859820 0.342385 0.544011 0.155963
H21   H     H_    0.369190 0.096746 0.270727 0.148799
H22   H     H_    0.598557 0.860748 0.724095 0.160183
H23   H     H_    0.630801 0.096752 0.729277 0.148805
H24   H     H_    0.401424 0.860771 0.275895 0.160182
H25   H     H_    0.869191 0.596745 0.270728 0.148804
H26   H     H_    0.098538 0.360728 0.724090 0.160189
H27   H     H_    0.130816 0.596737 0.729268 0.148799
H28   H     H_    0.901490 0.360695 0.275928 0.160195
H29   H     H_    0.665688 0.770510 0.775009 0.133609
H30   H     H_    0.271317 0.142736 0.222744 0.131633
H31   H     H_    0.334282 0.770544 0.224972 0.133606
H32   H     H_    0.728671 0.142746 0.777273 0.131633
H33   H     H_    0.165671 0.270490 0.775006 0.133588
H34   H     H_    0.771315 0.642728 0.222746 0.131634
H35   H     H_    0.834375 0.270439 0.225028 0.133593
H36   H     H_    0.228693 0.642719 0.777242 0.131634
H37   H     H_    0.657250 0.980984 0.040850 0.140707
H38   H     H_    0.342746 0.981018 0.959151 0.140707
H39   H     H_    0.157254 0.481014 0.040850 0.140707
H40   H     H_    0.842748 0.480997 0.959150 0.140708
H41   H     H_    0.535365 0.006500 0.784630 0.125705
H42   H     H_    0.464636 0.006515 0.215370 0.125703
H43   H     H_    0.035365 0.506505 0.784629 0.125709
H44   H     H_    0.964635 0.506497 0.215371 0.125711
H45   H     H_    0.363073 0.990409 0.651332 0.133769
H46   H     H_    0.636926 0.990393 0.348668 0.133768
H47   H     H_    0.863073 0.490404 0.651332 0.133763
H48   H     H_    0.136927 0.490412 0.348668 0.133766
H49   H     H_    0.675555 0.983015 0.205339 0.141290
H50   H     H_    0.324442 0.983044 0.794662 0.141288
H51   H     H_    0.175558 0.483046 0.205339 0.141289
H52   H     H_    0.824443 0.483031 0.794662 0.141289
N1    N     N_R   0.549130 1.000000 0.284090 -0.103114
N2    N     N_R   0.450870 0.000000 0.715910 -0.103114
N3    N     N_R   0.049130 0.500000 0.284090 -0.103112
N4    N     N_R   0.950870 0.500000 0.715910 -0.103112
O1    O     O_R   0.541320 0.066090 0.608930 -0.618958
O2    O     O_R   0.458680 0.933910 0.391070 -0.614096
O3    O     O_R   0.458680 0.066090 0.391070 -0.618955
O4    O     O_R   0.541320 0.933910 0.608930 -0.614097
O5    O     O_R   0.041320 0.566090 0.608930 -0.618956
O6    O     O_R   0.958680 0.433910 0.391070 -0.614098
O7    O     O_R   0.958680 0.566090 0.391070 -0.618957
O8    O     O_R   0.041320 0.433910 0.608930 -0.614095
O9    O     O_R   0.572880 0.066110 0.470280 -0.620182
O10   O     O_R   0.427120 0.933890 0.529720 -0.617339
O11   O     O_R   0.427120 0.066110 0.529720 -0.620184
O12   O     O_R   0.572880 0.933890 0.470280 -0.617346
O13   O     O_R   0.072880 0.566110 0.470280 -0.620182
O14   O     O_R   0.927120 0.433890 0.529720 -0.617343
O15   O     O_R   0.927120 0.566110 0.529720 -0.620181
O16   O     O_R   0.072880 0.433890 0.470280 -0.617337
Zn1   Zn    Zn3+2 0.478910 0.000000 0.592580 0.918725
Zn2   Zn    Zn3+2 0.521090 0.000000 0.407420 0.918725
Zn3   Zn    Zn3+2 0.978910 0.500000 0.592580 0.918713
Zn4   Zn    Zn3+2 0.021090 0.500000 0.407420 0.918713
C113  C     C_3   0.319192 0.143467 0.661236 -0.414512
C114  C     C_3   0.365560 0.191805 0.709734 -0.355056
C115  C     C_3   0.423145 0.157830 0.746205 -0.846869
H53   H     H_    0.416464 0.121226 0.798552 0.271218
H54   H     H_    0.441253 0.133428 0.690515 0.287499
H55   H     H_    0.455260 0.195085 0.777906 0.238255
H56   H     H_    0.374231 0.232147 0.663402 0.218240
H57   H     H_    0.348698 0.215410 0.767345 0.219698
H58   H     H_    0.304657 0.110942 0.713208 0.189930
H59   H     H_    0.336576 0.107748 0.616712 0.213328
C116  C     C_3   0.604551 0.727102 0.361200 -0.405535
C117  C     C_3   0.569061 0.679173 0.410061 -0.333768
C118  C     C_3   0.503606 0.685766 0.375372 -0.880956
H60   H     H_    0.487849 0.735374 0.392223 0.273771
H61   H     H_    0.494202 0.678425 0.300963 0.259316
H62   H     H_    0.479536 0.647519 0.407591 0.247534
H63   H     H_    0.582858 0.627606 0.398964 0.222041
H64   H     H_    0.577155 0.689201 0.483787 0.231907
H65   H     H_    0.588909 0.778131 0.366809 0.202716
H66   H     H_    0.593787 0.716253 0.287580 0.193655
C119  C     C_3   0.680833 0.143446 0.338782 -0.414513
C120  C     C_3   0.634473 0.191787 0.290271 -0.355053
C121  C     C_3   0.576887 0.157820 0.253793 -0.846874
H67   H     H_    0.583567 0.121212 0.201450 0.271222
H68   H     H_    0.558771 0.133423 0.309480 0.287493
H69   H     H_    0.544778 0.195078 0.222084 0.238256
H70   H     H_    0.625802 0.232133 0.336597 0.218240
H71   H     H_    0.651343 0.215386 0.232663 0.219699
H72   H     H_    0.695370 0.110916 0.286817 0.189924
H73   H     H_    0.663442 0.107731 0.383304 0.213325
C122  C     C_3   0.395455 0.727065 0.638754 -0.405548
C123  C     C_3   0.430921 0.679123 0.589869 -0.333730
C124  C     C_3   0.496380 0.685659 0.624565 -0.880998
H74   H     H_    0.512166 0.735266 0.607772 0.273774
H75   H     H_    0.505778 0.678275 0.698967 0.259308
H76   H     H_    0.520430 0.647415 0.592310 0.247533
H77   H     H_    0.417091 0.627562 0.600932 0.222046
H78   H     H_    0.422831 0.689177 0.516150 0.231890
H79   H     H_    0.411113 0.778087 0.633142 0.202703
H80   H     H_    0.406226 0.716209 0.712371 0.193673
C125  C     C_3   0.819193 0.643468 0.661236 -0.414515
C126  C     C_3   0.865562 0.691804 0.709735 -0.355063
C127  C     C_3   0.923146 0.657828 0.746205 -0.846860
H81   H     H_    0.916465 0.621223 0.798551 0.271218
H82   H     H_    0.941254 0.633426 0.690515 0.287499
H83   H     H_    0.955261 0.695082 0.777908 0.238253
H84   H     H_    0.874234 0.732146 0.663404 0.218239
H85   H     H_    0.848700 0.715409 0.767347 0.219695
H86   H     H_    0.804657 0.610943 0.713208 0.189933
H87   H     H_    0.836577 0.607749 0.616713 0.213332
C128  C     C_3   0.104554 0.227125 0.361196 -0.405541
C129  C     C_3   0.069052 0.179181 0.410019 -0.333765
C130  C     C_3   0.003588 0.185919 0.375490 -0.880777
H88   H     H_    0.987919 0.235517 0.392558 0.273755
H89   H     H_    0.994101 0.178726 0.301056 0.259310
H90   H     H_    0.979502 0.147645 0.407634 0.247508
H91   H     H_    0.082767 0.127610 0.398746 0.221989
H92   H     H_    0.077233 0.189096 0.483774 0.231852
H93   H     H_    0.088918 0.278154 0.366837 0.202767
H94   H     H_    0.093787 0.216302 0.287569 0.193587
C131  C     C_3   0.180789 0.643483 0.338753 -0.414517
C132  C     C_3   0.134416 0.691816 0.290259 -0.355065
C133  C     C_3   0.076834 0.657834 0.253792 -0.846860
H95   H     H_    0.083517 0.621230 0.201445 0.271216
H96   H     H_    0.058730 0.633429 0.309484 0.287501
H97   H     H_    0.044715 0.695084 0.222091 0.238254
H98   H     H_    0.125742 0.732155 0.336593 0.218239
H99   H     H_    0.151274 0.715424 0.232647 0.219695
H100  H     H_    0.195325 0.610960 0.286779 0.189938
H101  H     H_    0.163410 0.607761 0.383278 0.213336
C134  C     C_3   0.895435 0.227181 0.638866 -0.405544
C135  C     C_3   0.930967 0.179264 0.590059 -0.333858
C136  C     C_3   0.996424 0.186033 0.624615 -0.880778
H102  H     H_    0.012081 0.235632 0.607527 0.273772
H103  H     H_    0.005891 0.178858 0.699051 0.259331
H104  H     H_    0.020532 0.147762 0.592506 0.247516
H105  H     H_    0.917272 0.127685 0.601328 0.222011
H106  H     H_    0.922802 0.189180 0.516307 0.231902
H107  H     H_    0.911048 0.278219 0.633239 0.202780
H108  H     H_    0.906193 0.216355 0.712493 0.193584

loop_
_geom_bond_atom_site_label_1
_geom_bond_atom_site_label_2
_ccdc_geom_bond_type
C113  H59   S    
C87   C103  A    
C54   C70   A    
C88   C96   A    
C117  H63   S    
C63   C95   A    
N2    Zn1   S    
C33   C45   A    
C21   H46   S    
C5    C56   S    
C41   H9    S    
C128  C129  S    
C6    C55   S    
C53   C69   A    
C76   C84   A    
C79   C87   A    
C118  H61   S    
C24   H47   S    
C133  H95   S    
C17   C33   A    
C99   C108  A    
C30   C38   A    
C131  C132  S    
C37   C38   A    
C98   C105  A    
C57   C89   A    
C6    O14   A    
C119  H73   S    
C32   C36   A    
C24   N4    A    
C78   H17   S    
C51   C75   A    
C130  H88   S    
C124  H76   S    
C123  H77   S    
C16   H8    S    
C112  C134  S    
C136  H102  S    
C61   C93   A    
C133  H96   S    
C74   H13   S    
C29   C37   A    
C135  H105  S    
C10   C94   A    
C11   C95   A    
C73   H14   S    
C20   H52   S    
C29   C33   A    
C27   H44   S    
C21   N1    A    
C62   C70   A    
C25   C29   A    
C128  H93   S    
C75   H16   S    
C42   C46   A    
C63   H35   S    
C37   C42   A    
C3    O11   A    
C14   C90   A    
C54   C78   A    
C13   C109  A    
C134  H108  S    
C86   C94   A    
C59   C67   A    
O7    Zn4   S    
C108  C122  S    
C1    O9    A    
O13   Zn4   S    
C72   H27   S    
C26   N2    A    
C8    O8    A    
C20   C24   A    
C15   H7    S    
C117  C118  S    
C56   C72   A    
C87   C95   A    
C125  H87   S    
C28   H43   S    
C126  H85   S    
C26   H41   S    
C34   C46   A    
C125  H86   S    
C122  H80   S    
C11   H3    S    
C131  H101  S    
C45   H37   S    
C97   C102  A    
C10   H2    S    
C114  H57   S    
C17   H49   S    
C81   C89   A    
C78   C86   A    
C64   C72   A    
C99   C104  A    
C77   C85   A    
C116  C117  S    
C80   H19   S    
C83   C99   A    
C64   H36   S    
C129  H92   S    
C82   C98   A    
C113  H58   S    
O2    Zn2   S    
C126  C127  S    
C85   C93   A    
C4    O12   A    
C73   C81   A    
C123  C124  S    
C88   C104  A    
C3    C50   S    
C58   C66   A    
C36   C48   A    
C60   C92   A    
C132  H99   S    
C30   C34   A    
C27   C31   A    
C115  H53   S    
C84   C100  A    
C75   C83   A    
C15   C111  A    
C28   C32   A    
C52   C68   A    
C64   C96   A    
C38   C41   A    
C128  H94   S    
C57   C65   A    
C122  C123  S    
C12   C108  A    
C110  C128  S    
C133  H97   S    
C51   C67   A    
C77   H18   S    
C6    O6    A    
C25   N1    A    
C132  C133  S    
C9    C93   A    
C15   C91   A    
C44   H12   S    
C100  C103  A    
C17   C21   A    
O9    Zn2   S    
O16   Zn4   S    
C7    O7    A    
C103  C112  A    
C130  H89   S    
C22   N2    A    
C53   C77   A    
C115  H54   S    
C114  C115  S    
C124  H74   S    
O15   Zn3   S    
C104  C111  A    
C66   H21   S    
C55   C79   A    
C58   H30   S    
C121  H67   S    
C5    O13   A    
C16   C112  A    
O4    Zn1   S    
C121  H68   S    
C23   H48   S    
C40   C43   A    
C116  H65   S    
C119  C120  S    
C109  C125  S    
C126  H84   S    
C127  H82   S    
C19   H51   S    
C84   C92   A    
C3    O3    A    
C58   C90   A    
C63   C71   A    
C49   C65   A    
C114  H56   S    
C2    O2    A    
C23   N3    A    
C97   C106  A    
O6    Zn4   S    
C46   H38   S    
C47   H39   S    
C26   C30   A    
C43   C47   A    
C62   C94   A    
C48   H40   S    
C11   C107  A    
C129  H91   S    
C118  H62   S    
C49   C73   A    
C10   C106  A    
N3    Zn4   S    
C135  H106  S    
C134  C135  S    
C86   C102  A    
C43   H11   S    
C39   C40   A    
C85   C101  A    
C42   H10   S    
O8    Zn3   S    
C136  H103  S    
C59   C91   A    
C61   C69   A    
C132  H98   S    
C14   C110  A    
O5    Zn3   S    
C100  C107  A    
C117  H64   S    
C4    O4    A    
O3    Zn2   S    
C13   C89   A    
C25   H42   S    
C18   C22   A    
C5    O5    A    
C68   H23   S    
C12   C96   A    
C65   H22   S    
C131  H100  S    
C135  C136  S    
C52   C76   A    
C82   C90   A    
C8    C53   S    
C136  H104  S    
C13   H5    S    
C50   C66   A    
C16   C92   A    
C39   C44   A    
C107  C119  S    
C22   H45   S    
C7    O15   A    
C111  C131  S    
C98   C101  A    
C83   C91   A    
N1    Zn2   S    
O10   Zn1   S    
C118  H60   S    
C57   H29   S    
C4    C49   S    
O12   Zn2   S    
C130  H90   S    
C119  H72   S    
C50   C74   A    
C56   C80   A    
C101  C110  A    
C14   H6    S    
O1    Zn1   S    
C124  H75   S    
C19   C35   A    
C60   H32   S    
C129  C130  S    
C18   H50   S    
C8    O16   A    
C71   H28   S    
C81   C97   A    
C18   C34   A    
C120  H71   S    
C79   H20   S    
C123  H78   S    
C61   H33   S    
C116  H66   S    
C105  C113  S    
C31   C39   A    
O11   Zn1   S    
C67   H24   S    
C127  H83   S    
C31   C35   A    
O14   Zn3   S    
C32   C40   A    
C113  C114  S    
C1    C52   S    
C55   C71   A    
C9    H1    S    
C115  H55   S    
C134  H107  S    
C2    C51   S    
C28   N4    A    
C59   H31   S    
C20   C36   A    
C44   C48   A    
C19   C23   A    
C121  H69   S    
C60   C68   A    
C70   H25   S    
C80   C88   A    
C120  C121  S    
C62   H34   S    
C1    O1    A    
C127  H81   S    
N4    Zn3   S    
C76   H15   S    
C41   C45   A    
C125  C126  S    
C69   H26   S    
C102  C109  A    
C2    O10   A    
C7    C54   S    
C122  H79   S    
C35   C47   A    
C9    C105  A    
C74   C82   A    
C120  H70   S    
C27   N3    A    
C106  C116  S    
C12   H4    S    
