data_mof_unit_52651.cif
_audit_creation_date              2012-12-10T17:50:32-0500
_audit_creation_method            fapswitch 2.2
_symmetry_space_group_name_H-M    P1
_symmetry_Int_Tables_number       1
_space_group_crystal_system       triclinic
_cell_length_a                    15.707305
_cell_length_b                    10.630269
_cell_length_c                    9.926693
_cell_angle_alpha                 89.921076
_cell_angle_beta                  89.795821
_cell_angle_gamma                 91.635024
_cell_volume                      1656.80132985

loop_
_atom_site_label
_atom_site_type_symbol
_atom_type_description
_atom_site_fract_x
_atom_site_fract_y
_atom_site_fract_z
_atom_type_partial_charge
C1    C     C_R   0.502022 0.260737 0.500120 0.864380
C2    C     C_3   0.082705 0.493120 0.500971 0.179397
C3    C     C_3   0.973935 0.607527 0.537520 -0.185312
C4    C     C_3   0.917155 0.493477 0.499328 0.166801
C5    C     C_3   0.030607 0.581304 0.413292 -0.187817
C6    C     C_3   0.972686 0.467167 0.376562 0.144235
C7    C     C_1   0.173625 0.494485 0.501292 -0.063029
C8    C     C_1   0.826215 0.495333 0.499254 -0.088282
C9    C     C_R   0.645112 0.137102 0.622423 -0.173691
C10   C     C_R   0.712191 0.074205 0.681504 -0.133709
C11   C     C_R   0.712307 0.943312 0.681236 -0.141912
C12   C     C_R   0.338030 0.499222 0.500230 0.908042
C13   C     C_R   0.645367 0.874865 0.621827 -0.188078
C14   C     C_R   0.576320 0.937214 0.562748 0.096824
C15   C     C_R   0.576171 0.069099 0.563059 0.091999
C16   C     C_R   0.507722 0.128670 0.500036 -0.082121
C17   C     C_R   0.443010 0.061937 0.433839 -0.179424
C18   C     C_R   0.443184 0.933396 0.433508 -0.194802
C19   C     C_R   0.508033 0.871996 0.499446 -0.099154
C20   C     C_R   0.388467 0.335157 0.140443 -0.177051
C21   C     C_R   0.333213 0.254107 0.071050 -0.262528
C22   C     C_R   0.332467 0.253318 0.930661 -0.016476
C23   C     C_R   0.502354 0.739424 0.499874 0.866271
C24   C     C_R   0.388354 0.335274 0.860988 -0.206704
C25   C     C_R   0.445024 0.418707 0.928279 0.142100
C26   C     C_R   0.445064 0.418731 0.072585 0.182009
C27   C     C_R   0.552600 0.577771 0.071025 -0.107826
C28   C     C_R   0.552584 0.577739 0.927993 -0.101019
C29   C     C_R   0.661973 0.500045 0.499804 0.875319
C30   C     C_3   0.969484 0.405583 0.586991 -0.187640
C31   C     C_3   0.026268 0.378604 0.462856 -0.180225
C32   C     C_1   0.249013 0.496616 0.500894 -0.159065
C33   C     C_1   0.750910 0.497612 0.499377 -0.188584
C34   C     C_3   0.027917 0.519708 0.625178 -0.146427
H1    H     H_    0.049741 0.285360 0.432089 0.135478
H2    H     H_    0.764840 0.894647 0.725961 0.133708
H3    H     H_    0.649088 0.773471 0.620927 0.140615
H4    H     H_    0.391701 0.881388 0.384239 0.155578
H5    H     H_    0.595587 0.641392 0.124279 0.147028
H6    H     H_    0.384764 0.329464 0.247274 0.208346
H7    H     H_    0.290836 0.191728 0.128035 0.183617
H8    H     H_    0.385958 0.331768 0.754252 0.240755
H9    H     H_    0.595542 0.641364 0.873979 0.143766
H10   H     H_    0.942426 0.334271 0.658191 0.143708
H11   H     H_    0.057569 0.652758 0.342177 0.136612
H12   H     H_    0.950488 0.700784 0.568299 0.140669
H13   H     H_    0.052947 0.541407 0.727234 0.144069
H14   H     H_    0.391415 0.109646 0.384757 0.144377
H15   H     H_    0.648641 0.238750 0.622082 0.151005
H16   H     H_    0.764641 0.127236 0.726422 0.134380
N1    N     N_R   0.499210 0.498800 0.142780 -0.119077
N2    N     N_R   0.499180 0.498720 0.857170 -0.116772
O1    O     O_R   0.500000 0.316780 0.614690 -0.634538
O2    O     O_R   0.499990 0.316750 0.385360 -0.635669
O3    O     O_R   0.376780 0.500000 0.614650 -0.621360
O4    O     O_R   0.376770 0.499980 0.385310 -0.636444
O5    O     O_R   0.500010 0.683250 0.614640 -0.613115
O6    O     O_R   0.500000 0.683220 0.385310 -0.612946
O7    O     O_R   0.623230 0.500020 0.614690 -0.628048
O8    O     O_R   0.623220 0.500000 0.385350 -0.607953
Zn1   Zn    Zn3+2 0.500010 0.500020 0.653130 0.943802
Zn2   Zn    Zn3+2 0.499990 0.499980 0.346870 0.942611
C35   C     C_2   0.273382 0.167163 0.855969 0.916397
O9    O     O_2   0.224108 0.096412 0.917232 -0.638773
O10   O     O_R   0.273806 0.166623 0.714995 -0.833418
H17   H     H_    0.230749 0.103994 0.675928 0.342136
C36   C     C_3   0.938609 0.437700 0.235710 -0.438126
C37   C     C_3   0.011404 0.416022 0.135886 -0.329384
C38   C     C_3   0.977400 0.387587 0.995000 -0.870264
H18   H     H_    0.935266 0.301874 0.996743 0.262327
H19   H     H_    0.941119 0.468220 0.956472 0.257395
H20   H     H_    0.031465 0.371130 0.925434 0.254296
H21   H     H_    0.053997 0.501239 0.130855 0.223238
H22   H     H_    0.049478 0.335538 0.170247 0.228001
H23   H     H_    0.896395 0.352154 0.241474 0.208174
H24   H     H_    0.900313 0.517842 0.201163 0.207297

loop_
_geom_bond_atom_site_label_1
_geom_bond_atom_site_label_2
_ccdc_geom_bond_type
O6    Zn2   S    
C23   O6    A    
C35   O10   S    
C24   H8    S    
C2    C7    S    
C17   H14   S    
C4    C8    S    
C22   C24   A    
C11   H2    S    
N2    Zn1   S    
C5    C6    S    
C20   H6    S    
C37   H22   S    
C15   C16   A    
C29   C33   S    
C11   C13   A    
O8    Zn2   S    
C18   C19   A    
C38   H19   S    
C1    O1    A    
C22   C35   S    
O1    Zn1   S    
C29   O7    A    
C27   H5    S    
C16   C17   A    
C9    C10   A    
C13   H3    S    
C2    C34   S    
C6    C31   S    
C13   C14   A    
C12   C32   S    
C30   H10   S    
N1    Zn2   S    
C27   N1    A    
O7    Zn1   S    
C30   C34   S    
C36   C37   S    
C37   H21   S    
C9    H15   S    
C24   C25   A    
C4    C6    S    
C37   C38   S    
O2    Zn2   S    
C3    C34   S    
C25   C26   A    
C5    H11   S    
C2    C31   S    
C38   H20   S    
C19   C23   S    
C1    O2    A    
C29   O8    A    
C17   C18   A    
C1    C16   S    
C12   O4    A    
C21   H7    S    
C6    C36   S    
C31   H1    S    
C2    C5    S    
C36   H23   S    
C3    C4    S    
C10   H16   S    
C23   O5    A    
C7    C32   T    
C3    H12   S    
C14   C19   A    
C3    C5    S    
O5    Zn1   S    
C34   H13   S    
C28   H9    S    
C18   H4    S    
C25   N2    A    
C26   N1    A    
C28   N2    A    
C30   C31   S    
C20   C26   A    
O3    Zn1   S    
O4    Zn2   S    
C8    C33   T    
C9    C15   A    
C38   H18   S    
C12   O3    A    
C10   C11   A    
C35   O9    D    
C20   C21   A    
O10   H17   S    
C27   C28   A    
C14   C15   A    
C36   H24   S    
C21   C22   A    
C4    C30   S    
