data_mof_unit_7188.cif
_audit_creation_date              2012-12-10T20:27:12-0500
_audit_creation_method            fapswitch 2.2
_symmetry_space_group_name_H-M    P1
_symmetry_Int_Tables_number       1
_space_group_crystal_system       triclinic
_cell_length_a                    10.792914
_cell_length_b                    10.620338
_cell_length_c                    9.926322
_cell_angle_alpha                 89.61915
_cell_angle_beta                  102.763881
_cell_angle_gamma                 90.202372
_cell_volume                      1109.65530896

loop_
_atom_site_label
_atom_site_type_symbol
_atom_type_description
_atom_site_fract_x
_atom_site_fract_y
_atom_site_fract_z
_atom_type_partial_charge
C1    C     C_R   0.501022 0.260700 0.500801 0.965527
C2    C     C_R   0.592794 0.559593 0.091885 0.434379
C3    C     C_R   0.593507 0.557701 0.949173 -0.071765
C4    C     C_R   0.259302 0.497557 0.442591 0.851253
C5    C     C_R   0.408656 0.436427 0.908126 0.072603
C6    C     C_3   0.270004 0.465056 0.874678 0.235145
C7    C     C_3   0.271397 0.456403 0.027158 -0.363756
C8    C     C_R   0.501734 0.739428 0.500372 0.968105
C9    C     C_R   0.740388 0.493972 0.556843 0.911797
C10   C     C_2   0.122598 0.488186 0.408459 0.256844
C11   C     C_2   0.065479 0.435616 0.501013 -0.140176
C12   C     C_R   0.509089 0.128981 0.505855 -0.183801
C13   C     C_2   0.875409 0.470882 0.587972 0.248515
C14   C     C_2   0.929730 0.441988 0.483395 -0.090133
C15   C     C_R   0.417137 0.063251 0.555662 -0.027582
C16   C     C_R   0.615357 0.066830 0.477848 0.314588
C17   C     C_R   0.616490 0.935395 0.479843 0.348021
C18   C     C_R   0.509510 0.871425 0.505088 -0.221210
C19   C     C_R   0.417662 0.935204 0.555638 0.001442
C20   C     C_3   0.276102 0.925976 0.517207 -0.375722
C21   C     C_3   0.274950 0.069306 0.517484 0.226616
C22   C     C_R   0.410239 0.433818 0.050894 0.061501
Cl1   Cl    Cl    0.709943 0.649836 0.198404 -0.429372
Cl2   Cl    Cl    0.237063 0.622202 0.809109 -0.493954
Cl3   Cl    Cl    0.958369 0.477530 0.761842 -0.508132
Cl4   Cl    Cl    0.038697 0.551011 0.248851 -0.476913
Cl5   Cl    Cl    0.744427 0.151946 0.439239 -0.511425
Cl6   Cl    Cl    0.751476 0.853007 0.455565 -0.413889
Cl7   Cl    Cl    0.213583 0.135751 0.349966 -0.540914
H1    H     H_    0.873529 0.434410 0.378492 0.231448
H2    H     H_    0.233874 0.109996 0.600830 0.135342
H3    H     H_    0.667279 0.607018 0.911790 0.202889
H4    H     H_    0.213892 0.388712 0.814570 0.132513
H5    H     H_    0.248244 0.546143 0.073067 0.269713
H6    H     H_    0.219964 0.372618 0.054818 0.225186
H7    H     H_    0.120459 0.395513 0.595675 0.168236
H8    H     H_    0.240966 0.882813 0.413951 0.243212
H9    H     H_    0.236718 0.883647 0.601607 0.228428
N1    N     N_R   0.499160 0.499140 0.142600 -0.137653
N2    N     N_R   0.499160 0.499180 0.856960 -0.113396
O1    O     O_R   0.500020 0.316790 0.614700 -0.630286
O2    O     O_R   0.500000 0.316760 0.385350 -0.571136
O3    O     O_R   0.317820 0.500020 0.571850 -0.611254
O4    O     O_R   0.317800 0.499980 0.342510 -0.596731
O5    O     O_R   0.500000 0.683240 0.614650 -0.589920
O6    O     O_R   0.499980 0.683210 0.385300 -0.566241
O7    O     O_R   0.682200 0.500020 0.657490 -0.583961
O8    O     O_R   0.682180 0.499980 0.428150 -0.590873
Zn1   Zn    Zn3+2 0.500010 0.500020 0.653140 1.035446
Zn2   Zn    Zn3+2 0.499990 0.499980 0.346860 1.071446

loop_
_geom_bond_atom_site_label_1
_geom_bond_atom_site_label_2
_ccdc_geom_bond_type
C6    H4    S    
C6    C7    S    
C4    O3    A    
C7    C22   S    
C20   H9    S    
O6    Zn2   S    
C19   C20   S    
C12   C15   A    
O5    Zn1   S    
C6    Cl2   S    
C10   Cl4   S    
C16   Cl5   S    
O8    Zn2   S    
C2    C3    A    
O7    Zn1   S    
C13   C14   D    
C15   C19   A    
C20   H8    S    
C21   H2    S    
C13   Cl3   S    
C5    C6    S    
C1    C12   S    
C7    H6    S    
O2    Zn2   S    
C22   N1    A    
C1    O1    A    
C11   H7    S    
C11   C14   S    
C14   H1    S    
C3    N2    A    
C9    O7    A    
C3    H3    S    
C7    H5    S    
C8    O6    A    
C10   C11   D    
C4    C10   S    
N2    Zn1   S    
C1    O2    A    
C15   C21   S    
N1    Zn2   S    
C20   C21   S    
C9    O8    A    
C17   C18   A    
C18   C19   A    
C5    N2    A    
O1    Zn1   S    
C2    Cl1   S    
C9    C13   S    
C8    O5    A    
O3    Zn1   S    
O4    Zn2   S    
C4    O4    A    
C17   Cl6   S    
C21   Cl7   S    
C2    N1    A    
C8    C18   S    
C5    C22   A    
C12   C16   A    
C16   C17   A    
