data_mof_unit_28139.cif
_audit_creation_date              2012-12-10T18:50:48-0500
_audit_creation_method            fapswitch 2.2
_symmetry_space_group_name_H-M    P1
_symmetry_Int_Tables_number       1
_space_group_crystal_system       triclinic
_cell_length_a                    10.638053
_cell_length_b                    9.899013
_cell_length_c                    15.765438
_cell_angle_alpha                 89.172652
_cell_angle_beta                  89.78371
_cell_angle_gamma                 89.987775
_cell_volume                      1660.01382864

loop_
_atom_site_label
_atom_site_type_symbol
_atom_type_description
_atom_site_fract_x
_atom_site_fract_y
_atom_site_fract_z
_atom_type_partial_charge
C1    C     C_R   0.260618 0.499798 0.499838 0.807251
C2    C     C_R   0.934314 0.545372 0.427524 0.154491
C3    C     C_R   0.871865 0.500051 0.500992 -0.186866
C4    C     C_R   0.127756 0.498592 0.499732 -0.221088
C5    C     C_R   0.565308 0.070322 0.559666 -0.037224
C6    C     C_R   0.565459 0.926982 0.559585 -0.031515
C7    C     C_R   0.499344 0.500929 0.338306 0.885028
C8    C     C_R   0.435286 0.929123 0.439474 -0.007420
C9    C     C_R   0.435309 0.073447 0.439152 0.006751
C10   C     C_R   0.739483 0.499990 0.501178 0.933527
C11   C     C_R   0.497416 0.499056 0.661495 0.889731
C12   C     C_3   0.607328 0.458014 0.948239 -0.437565
C13   C     C_3   0.446004 0.647276 0.047022 -0.128437
C14   C     C_3   0.386181 0.394699 0.053046 -0.134729
C15   C     C_3   0.374688 0.395193 0.953693 0.026178
C16   C     C_3   0.444693 0.648866 0.947116 0.017431
C17   C     C_1   0.487269 0.496792 0.749900 -0.064124
C18   C     C_3   0.483268 0.503740 0.082451 0.006026
C19   C     C_3   0.473996 0.500102 0.916422 -0.012184
C20   C     C_2   0.322845 0.703757 0.909154 0.487176
C21   C     C_2   0.242175 0.426477 0.923556 0.479609
C22   C     C_2   0.359034 0.855903 0.377832 0.542625
C23   C     C_3   0.616131 0.464823 0.045887 0.234188
C24   C     C_2   0.361414 0.148756 0.374976 0.487995
C25   C     C_2   0.136997 0.399281 0.647349 0.574530
C26   C     C_2   0.137432 0.582564 0.348546 0.491233
C27   C     C_1   0.478807 0.496599 0.824850 0.117125
C28   C     C_1   0.490338 0.504647 0.174094 0.092422
C29   C     C_1   0.495293 0.503315 0.249375 -0.040459
C30   C     C_R   0.064869 0.449869 0.572681 -0.095928
C31   C     C_R   0.064959 0.544341 0.426389 -0.091142
C32   C     C_R   0.934369 0.452841 0.573623 0.131484
H1    H     H_    0.425490 0.295465 0.072167 0.218199
H2    H     H_    0.289048 0.218597 0.394104 0.076300
H3    H     H_    0.222471 0.450176 0.666231 0.054276
H4    H     H_    0.224045 0.530051 0.333599 0.037297
H5    H     H_    0.520000 0.718270 0.067376 0.215463
H6    H     H_    0.680975 0.522000 0.917990 0.226815
H7    H     H_    0.630694 0.354838 0.926709 0.225378
H8    H     H_    0.617646 0.123131 0.607652 0.167636
H9    H     H_    0.617937 0.872014 0.607528 0.162292
H10   H     H_    0.235513 0.702797 0.944247 0.086261
H11   H     H_    0.175792 0.479108 0.963357 0.090354
H12   H     H_    0.275076 0.803616 0.398785 0.068112
I1    I     I_    0.289747 0.742988 0.112710 -0.121384
I2    I     I_    0.213683 0.376074 0.127712 -0.206029
I3    I     I_    0.410917 0.189796 0.910025 -0.150573
I4    I     I_    0.586811 0.793632 0.901960 -0.193254
I5    I     I_    0.764799 0.603897 0.079372 -0.171909
I6    I     I_    0.687265 0.273858 0.095921 -0.166449
I7    I     I_    0.830518 0.401212 0.686820 -0.242702
I8    I     I_    0.828297 0.603470 0.317548 -0.141193
N1    N     N_R   0.499970 0.857200 0.499980 -0.128996
N2    N     N_R   0.499970 0.142800 0.499980 -0.127964
O1    O     O_R   0.316750 0.614620 0.499990 -0.638854
O2    O     O_2   0.209806 0.400233 0.851436 -0.507970
O3    O     O_2   0.389509 0.854364 0.303171 -0.471489
O4    O     O_2   0.381510 0.133712 0.299422 -0.489245
O5    O     O_2   0.105378 0.296707 0.685614 -0.471745
O6    O     O_2   0.104850 0.676166 0.302490 -0.488109
O7    O     O_R   0.316750 0.385380 0.499990 -0.647654
O8    O     O_R   0.499990 0.614720 0.377140 -0.596854
O9    O     O_R   0.499990 0.385280 0.377140 -0.611066
O10   O     O_R   0.683220 0.614710 0.500000 -0.600661
O11   O     O_R   0.683220 0.385290 0.500000 -0.595981
O12   O     O_R   0.499980 0.614620 0.622860 -0.600425
O13   O     O_R   0.499980 0.385380 0.622860 -0.608999
O14   O     O_2   0.318887 0.743077 0.835393 -0.514749
Zn1   Zn    Zn3+2 0.499980 0.653120 0.500000 0.999337
Zn2   Zn    Zn3+2 0.499980 0.346880 0.500000 0.990414

loop_
_geom_bond_atom_site_label_1
_geom_bond_atom_site_label_2
_ccdc_geom_bond_type
C8    N1    A    
O7    Zn2   S    
C21   O2    D    
C20   H10   S    
O13   Zn2   S    
C11   O12   A    
C32   I7    S    
C7    C29   S    
C19   C27   S    
C14   C18   S    
C8    C22   S    
N2    Zn2   S    
O9    Zn2   S    
C15   I3    S    
C9    C24   S    
C16   C20   S    
C1    C4    S    
N1    Zn1   S    
C10   O10   A    
C16   I4    S    
C22   O3    D    
C13   H5    S    
C2    C3    A    
C1    O1    A    
C26   C31   S    
C7    O8    A    
C3    C10   S    
C21   H11   S    
O10   Zn1   S    
C30   C32   A    
C12   C23   S    
C7    O9    A    
O1    Zn1   S    
C2    I8    S    
C13   C18   S    
C14   H1    S    
C16   C19   S    
C12   C19   S    
C26   H4    S    
C28   C29   T    
C10   O11   A    
C11   O13   A    
C12   H6    S    
C5    C6    A    
C4    C30   A    
C23   I5    S    
O12   Zn1   S    
C6    N1    A    
C18   C23   S    
C4    C31   A    
C24   O4    D    
C5    N2    A    
C15   C21   S    
C18   C28   S    
C13   I1    S    
C8    C9    A    
C14   I2    S    
C13   C16   S    
C25   C30   S    
C25   H3    S    
C14   C15   S    
C11   C17   S    
C23   I6    S    
C22   H12   S    
C9    N2    A    
C25   O5    D    
C3    C32   A    
C5    H8    S    
C15   C19   S    
C26   O6    D    
C20   O14   D    
C12   H7    S    
C24   H2    S    
O11   Zn2   S    
O8    Zn1   S    
C1    O7    A    
C2    C31   A    
C6    H9    S    
C17   C27   T    
