data_mof_unit_57066.cif
_audit_creation_date              2013-03-05T16:10:14-0500
_audit_creation_method            fapswitch 2.2
_symmetry_space_group_name_H-M    P1
_symmetry_Int_Tables_number       1
_space_group_crystal_system       triclinic
_cell_length_a                    9.884126
_cell_length_b                    10.65898
_cell_length_c                    12.988171
_cell_angle_alpha                 90.324223
_cell_angle_beta                  71.602566
_cell_angle_gamma                 89.760807
_cell_volume                      1298.3815421

loop_
_atom_site_label
_atom_site_type_symbol
_atom_site_description
_atom_site_fract_x
_atom_site_fract_y
_atom_site_fract_z
_atom_type_partial_charge
O1    O     O_R   0.385370 0.683250 0.500010 -0.624968
O2    O     O_R   0.614700 0.683220 0.500010 -0.633218
C1    C     C_R   0.499873 0.739771 0.500055 0.872273
O3    O     O_R   0.328400 0.499990 0.653620 -0.613923
O4    O     O_R   0.557730 0.499960 0.653620 -0.602961
C2    C     C_R   0.423815 0.521276 0.701803 0.934895
Zn1   Zn    Zn3+2 0.346870 0.500020 0.500000 0.990023
Zn2   Zn    Zn3+2 0.653130 0.499980 0.500000 1.055187
O5    O     O_R   0.385300 0.316780 0.499990 -0.635433
O6    O     O_R   0.614630 0.316750 0.499990 -0.543237
O7    O     O_R   0.442270 0.500040 0.346380 -0.609601
O8    O     O_R   0.671600 0.500010 0.346380 -0.563680
C3    C     C_R   0.498700 0.260236 0.503430 0.955540
C4    C     C_R   0.577861 0.500183 0.295516 0.907958
C5    C     C_R   0.804769 0.548432 0.006364 -0.100223
H1    H     H_    0.849477 0.496175 0.151392 0.209126
H2    H     H_    0.848733 0.624662 0.802907 0.149997
H3    H     H_    0.915685 0.543296 0.957215 0.151711
C6    C     C_R   0.622917 0.517960 0.178576 -0.108348
C7    C     C_R   0.240876 0.604920 0.869285 -0.319079
C8    C     C_R   0.202818 0.653649 0.975430 0.261147
C9    C     C_R   0.303496 0.647672 0.032800 0.211881
C10   C     C_R   0.446980 0.611692 0.975386 -0.063163
C11   C     C_R   0.488037 0.604343 0.861923 0.059242
C12   C     C_R   0.553501 0.584107 0.024043 0.120478
C13   C     C_R   0.699672 0.583164 0.960485 0.164687
C14   C     C_R   0.737831 0.614946 0.851472 -0.174146
C15   C     C_R   0.632308 0.626619 0.802760 -0.123216
C16   C     C_R   0.517878 0.543961 0.130744 -0.178837
C17   C     C_R   0.766895 0.518803 0.115971 -0.092171
C18   C     C_R   0.383284 0.575793 0.812508 -0.163270
H4    H     H_    0.407803 0.528795 0.176672 0.205319
H5    H     H_    0.160827 0.597742 0.828679 0.191989
H6    H     H_    0.664154 0.654899 0.719192 0.152036
C19   C     C_R   0.570971 0.933356 0.564707 -0.219034
H7    H     H_    0.624690 0.880339 0.611538 0.168701
C20   C     C_R   0.567568 0.062695 0.570683 0.350295
C21   C     C_R   0.495889 0.127643 0.508847 -0.148499
C22   C     C_R   0.422925 0.064925 0.447843 -0.186556
H8    H     H_    0.367982 0.115355 0.400407 0.183145
C23   C     C_R   0.423281 0.936505 0.445609 -0.118036
H9    H     H_    0.367735 0.887654 0.397623 0.201151
C24   C     C_R   0.498677 0.871982 0.502873 -0.077135
C25   C     C_R   0.946735 0.399305 0.459437 0.397774
C26   C     C_R   0.089434 0.399512 0.461113 -0.087420
H10   H     H_    0.158612 0.320192 0.428412 0.164327
N1    N     N_R   0.142790 0.500030 0.500030 -0.104146
C27   C     C_R   0.055516 0.601170 0.538030 -0.037666
H11   H     H_    0.096326 0.682430 0.568518 0.154512
C28   C     C_R   0.912492 0.601494 0.537242 -0.117045
H12   H     H_    0.847417 0.684160 0.564997 0.150414
N2    N     N_R   0.857180 0.499940 0.500010 -0.133046
N3    N     N_R   0.630405 0.125429 0.642748 0.222574
O9    O     O_R   0.563132 0.217579 0.704127 -0.382463
O10   O     O_R   0.742493 0.077798 0.660344 -0.339788
N4    N     N_R   0.900521 0.294956 0.409880 0.214097
O11   O     O_R   0.929028 0.181432 0.433416 -0.355891
O12   O     O_R   0.863109 0.312606 0.323672 -0.370271
N5    N     N_R   0.267893 0.699407 0.140463 0.225927
O13   O     O_R   0.176052 0.643217 0.221290 -0.361736
O14   O     O_R   0.341182 0.792503 0.160034 -0.356361
N6    N     N_R   0.068273 0.718680 0.018230 0.210191
O15   O     O_R   0.013620 0.776256 0.952372 -0.382124
O16   O     O_R   0.001321 0.725248 0.121812 -0.309911

loop_
_geom_bond_atom_site_label_1
_geom_bond_atom_site_label_2
_geom_bond_distance
_ccdc_geom_bond_type
O4    Zn2   1.919004 S    
C28   N2    1.367608 A    
C10   C11   1.401248 A    
N6    O15   1.301908 A    
C5    H3    1.081543 S    
C19   C24   1.394176 A    
C23   H9    1.084298 S    
C25   N4    1.428912 S    
N6    O16   1.299749 A    
N1    C27   1.366524 A    
O8    C4    1.296630 A    
Zn2   O8    1.945356 S    
C20   N3    1.439542 S    
C25   N2    1.379516 A    
C27   C28   1.416920 A    
C2    C18   1.480073 S    
C13   C14   1.389655 A    
C11   C18   1.412947 A    
C15   H6    1.075578 S    
N5    O13   1.301905 A    
C22   C23   1.368933 A    
O1    Zn1   1.991337 S    
N3    O9    1.301361 A    
C7    C8    1.405286 A    
Zn1   O7    1.919005 S    
C23   C24   1.390290 A    
C1    C24   1.409404 S    
C3    C21   1.415404 S    
C20   C21   1.409817 A    
O3    Zn1   1.945355 S    
C7    H5    1.083270 S    
Zn2   O6    1.991339 S    
C27   H11   1.081466 S    
C19   C20   1.380047 A    
N4    O12   1.299608 A    
O2    C1    1.282711 A    
C16   H4    1.076377 S    
O1    C1    1.284507 A    
N3    O10   1.301482 A    
C12   C16   1.388392 A    
O4    C2    1.291617 A    
O7    C4    1.293729 A    
Zn1   N1    2.017029 S    
N5    O14   1.301317 A    
C8    N6    1.441989 S    
H1    C17   1.082940 S    
C6    C16   1.395473 A    
C26   H10   1.081922 S    
C9    N5    1.436092 S    
C10   C12   1.419110 A    
C21   C22   1.397675 A    
N4    O11   1.301059 A    
C5    C17   1.391466 A    
O3    C2    1.305855 A    
C26   N1    1.359559 A    
C22   H8    1.084415 S    
Zn1   O5    1.988179 S    
Zn2   N2    2.016895 S    
C9    C10   1.427992 A    
C5    C13   1.400437 A    
O5    C3    1.283689 A    
C28   H12   1.079527 S    
C12   C13   1.419817 A    
C8    C9    1.420407 A    
C6    C17   1.398655 A    
C4    C6    1.455367 S    
O6    C3    1.285154 A    
O2    Zn2   1.988179 S    
C25   C26   1.417485 A    
C19   H7    1.084657 S    
C11   C15   1.411928 A    
C14   C15   1.385630 A    
C7    C18   1.400011 A    
H2    C14   1.084167 S    
