data_mof_unit_22711.cif
_audit_creation_date              2012-10-26T18:29:01-0400
_audit_creation_method            fapswitch 2.2
_symmetry_space_group_name_H-M    P1
_symmetry_Int_Tables_number       1
_space_group_crystal_system       triclinic
_cell_length_a                    11.661936
_cell_length_b                    12.966543
_cell_length_c                    15.84673
_cell_angle_alpha                 92.347144
_cell_angle_beta                  74.129407
_cell_angle_gamma                 100.1293
_cell_volume                      2268.93145609

loop_
_atom_site_label
_atom_site_type_symbol
_atom_type_description
_atom_site_fract_x
_atom_site_fract_y
_atom_site_fract_z
_atom_type_partial_charge
Br1   Br    Br    0.288352 0.357094 0.184258 -0.575149
Br2   Br    Br    0.711574 0.643072 0.815781 -0.575103
Br3   Br    Br    0.223150 0.196084 0.627862 -0.497961
Br4   Br    Br    0.776852 0.803946 0.372149 -0.497923
C1    C     C_R   0.523191 0.700771 0.497023 0.575906
C2    C     C_R   0.342506 0.016228 0.565418 0.025490
C3    C     C_R   0.647790 0.874074 0.439892 0.165603
C4    C     C_R   0.352223 0.125939 0.560166 0.165599
C5    C     C_R   0.440669 0.861610 0.531297 -0.152407
C6    C     C_R   0.559328 0.138390 0.468736 -0.152400
C7    C     C_R   0.445202 0.969222 0.524304 0.018504
C8    C     C_R   0.554808 0.030786 0.475761 0.018506
C9    C     C_R   0.943663 0.601799 0.577646 -0.141867
C10   C     C_R   0.056336 0.398200 0.422354 -0.141843
C11   C     C_R   0.824648 0.591428 0.570612 0.095421
C12   C     C_R   0.476808 0.299229 0.502981 0.575908
C13   C     C_R   0.175352 0.408571 0.429388 0.095458
C14   C     C_R   0.857775 0.455165 0.467114 0.058625
C15   C     C_R   0.142225 0.544835 0.532885 0.058625
C16   C     C_R   0.426959 0.495158 0.668204 0.559563
C17   C     C_R   0.573041 0.504848 0.331796 0.559561
C18   C     C_R   0.978325 0.462811 0.471954 0.006233
C19   C     C_R   0.021675 0.537189 0.528045 0.006234
C20   C     C_R   0.383958 0.493646 0.764432 0.006565
C21   C     C_R   0.616038 0.506383 0.235569 0.006572
C22   C     C_R   0.223663 0.480747 0.899621 -0.115243
C23   C     C_R   0.353652 0.447670 0.082560 0.142839
C24   C     C_R   0.776314 0.519301 0.100376 -0.115235
C25   C     C_R   0.261331 0.488608 0.808350 -0.109707
C26   C     C_R   0.738656 0.511401 0.191644 -0.109705
C27   C     C_R   0.468239 0.496618 0.813015 -0.079754
C28   C     C_R   0.531755 0.503463 0.186996 -0.079743
C29   C     C_R   0.434272 0.501780 0.904715 0.041788
C30   C     C_R   0.565705 0.498322 0.095297 0.041777
C31   C     C_R   0.309066 0.483531 0.947712 0.018439
C32   C     C_R   0.690907 0.516563 0.052295 0.018435
C33   C     C_R   0.520589 0.513808 0.954496 0.021861
C34   C     C_R   0.646306 0.552469 0.917462 0.142823
C35   C     C_R   0.479377 0.486317 0.045523 0.021858
C36   C     C_3   0.775798 0.050955 0.385947 -0.358191
C37   C     C_3   0.224285 0.949074 0.614254 -0.358193
C38   C     C_R   0.270310 0.457002 0.036285 -0.082430
C39   C     C_R   0.729655 0.543125 0.963728 -0.082445
C40   C     C_R   0.460714 0.185659 0.510194 0.009954
C41   C     C_R   0.539282 0.814344 0.489831 0.009952
C42   C     C_R   0.657523 0.983789 0.434681 0.025488
Cu1   Cu    Cu3+1 0.386820 0.492450 0.493500 1.000564
Cu2   Cu    Cu3+1 0.613180 0.507550 0.506500 1.000555
H1    H     H_    0.174655 0.431976 0.067123 0.146808
H2    H     H_    0.194323 0.485969 0.772237 0.145838
H3    H     H_    0.127678 0.469297 0.932415 0.113916
H4    H     H_    0.872295 0.530740 0.067578 0.113920
H5    H     H_    0.640094 0.187782 0.430641 0.119935
H6    H     H_    0.359890 0.812206 0.569359 0.119934
H7    H     H_    0.176526 0.601387 0.576099 0.110861
H8    H     H_    0.823474 0.398613 0.423901 0.110864
H9    H     H_    0.851828 0.007624 0.361931 0.199701
H10   H     H_    0.763275 0.088866 0.328285 0.137394
H11   H     H_    0.805273 0.111997 0.430464 0.125787
H12   H     H_    0.825306 0.568160 0.932891 0.146805
H13   H     H_    0.148310 0.992424 0.638449 0.199732
H14   H     H_    0.194651 0.888091 0.569755 0.125846
H15   H     H_    0.236970 0.911085 0.671821 0.137295
H16   H     H_    0.234752 0.358101 0.391434 0.174620
H17   H     H_    0.765247 0.641898 0.608566 0.174610
H18   H     H_    0.974361 0.659971 0.621308 0.120853
H19   H     H_    0.025639 0.340028 0.378692 0.120869
H20   H     H_    0.440550 0.512149 0.221250 0.179617
H21   H     H_    0.559458 0.487958 0.778770 0.179596
H22   H     H_    0.805665 0.513999 0.227750 0.145826
N1    N     N_R   0.216750 0.481110 0.483710 -0.230708
N2    N     N_R   0.783250 0.518890 0.516290 -0.230711
O1    O     O_R   0.419950 0.645670 0.495380 -0.520880
O2    O     O_R   0.580050 0.354330 0.504620 -0.520882
O3    O     O_R   0.611110 0.658410 0.506370 -0.461680
O4    O     O_R   0.388890 0.341590 0.493630 -0.461673
O5    O     O_R   0.350820 0.490050 0.621260 -0.491906
O6    O     O_R   0.649180 0.509950 0.378740 -0.491903
O7    O     O_R   0.541970 0.502800 0.632250 -0.504852
O8    O     O_R   0.458030 0.497200 0.367750 -0.504841

loop_
_geom_bond_atom_site_label_1
_geom_bond_atom_site_label_2
_ccdc_geom_bond_type
C5    C41   A    
C15   N1    A    
C10   C13   A    
C37   H13   S    
C36   C42   S    
C11   N2    A    
C16   O5    A    
C12   O2    A    
Cu1   O8    S    
Cu2   O7    S    
Cu1   O4    S    
C13   H16   S    
C11   H17   S    
C9    C19   A    
Cu2   O6    S    
C31   C38   A    
C6    H5    S    
C20   C25   A    
C16   C20   S    
C23   C35   A    
C2    C37   S    
C17   O6    A    
C10   H19   S    
C27   C29   A    
C12   C40   S    
C14   H8    S    
C28   H20   S    
C21   C28   A    
C36   H11   S    
C14   C18   A    
Cu2   O3    S    
C37   H14   S    
Cu2   N2    S    
Br4   C3    S    
C26   H22   S    
C9    H18   S    
C14   N2    A    
C36   H10   S    
C6    C40   A    
C30   C35   A    
C3    C42   A    
Cu2   O2    S    
Cu1   O1    S    
C8    C42   A    
Br3   C4    S    
C2    C7    A    
C2    C4    A    
C1    C41   S    
C29   C33   A    
C28   C30   A    
C1    O3    A    
C15   C19   A    
C33   C34   A    
Br2   C34   S    
Cu1   Cu2   S    
C5    C7    A    
Cu1   N1    S    
C6    C8    A    
C39   H12   S    
C13   N1    A    
C9    C11   A    
Cu1   O5    S    
C3    C41   A    
C15   H7    S    
C21   C26   A    
C17   C21   S    
C36   H9    S    
C16   O7    A    
C12   O4    A    
C4    C40   A    
C7    C8    A    
C10   C18   A    
C24   C26   A    
C20   C27   A    
C34   C39   A    
C33   C35   A    
C22   H3    S    
C24   H4    S    
C23   C38   A    
C25   H2    S    
C17   O8    A    
C29   C31   A    
C30   C32   A    
C1    O1    A    
C38   H1    S    
C22   C31   A    
C27   H21   S    
C24   C32   A    
C22   C25   A    
Br1   C23   S    
C37   H15   S    
C18   C19   A    
C32   C39   A    
C5    H6    S    
