data_mof_unit_47233.cif
_audit_creation_date              2012-12-11T15:12:50-0500
_audit_creation_method            fapswitch 2.2
_symmetry_space_group_name_H-M    P1
_symmetry_Int_Tables_number       1
_space_group_crystal_system       triclinic
_cell_length_a                    22.360003
_cell_length_b                    6.933107
_cell_length_c                    19.542831
_cell_angle_alpha                 90.000777
_cell_angle_beta                  98.552247
_cell_angle_gamma                 89.999383
_cell_volume                      2995.92628401

loop_
_atom_site_label
_atom_site_type_symbol
_atom_type_description
_atom_site_fract_x
_atom_site_fract_y
_atom_site_fract_z
_atom_type_partial_charge
O1    O     O_R   0.448420 0.506120 0.415750 -0.528141
O2    O     O_R   0.551580 0.006120 0.584250 -0.528138
O3    O     O_R   0.436490 0.174470 0.555610 -0.541675
O4    O     O_R   0.563510 0.674470 0.444390 -0.541679
C1    C     C_R   0.422752 0.344065 0.577884 0.775388
C2    C     C_R   0.577249 0.844063 0.422118 0.775382
O5    O     O_R   0.441310 0.176330 0.414520 -0.545715
O6    O     O_R   0.558690 0.676330 0.585480 -0.545718
O7    O     O_R   0.556430 0.007110 0.442150 -0.519011
O8    O     O_R   0.443570 0.507110 0.557850 -0.519014
C3    C     C_R   0.424076 0.346107 0.390930 0.767549
C4    C     C_R   0.575924 0.846108 0.609069 0.767543
O9    O     O_3   0.537770 0.339560 0.509230 -0.357340
O10   O     O_3   0.462230 0.839560 0.490770 -0.357347
V1    V     V_3+5 0.492990 0.064280 0.498290 1.545367
V2    V     V_3+5 0.507010 0.564280 0.501710 1.545364
C5    C     C_R   0.870604 0.052246 0.702303 -0.066888
C6    C     C_R   0.129398 0.552293 0.297694 -0.066911
C7    C     C_R   0.887194 0.946991 0.821179 -0.181380
C8    C     C_R   0.112805 0.446999 0.178822 -0.181375
C9    C     C_R   0.595503 0.815988 0.734360 -0.184358
C10   C     C_R   0.404496 0.315982 0.265640 -0.184360
C11   C     C_R   0.630509 0.830085 0.798822 -0.128446
C12   C     C_R   0.369489 0.330075 0.201178 -0.128446
C13   C     C_R   0.691762 0.871570 0.804565 -0.036033
C14   C     C_R   0.308235 0.371559 0.195436 -0.036035
C15   C     C_R   0.720917 0.891760 0.745670 0.069164
C16   C     C_R   0.279082 0.391754 0.254331 0.069165
C17   C     C_R   0.683550 0.903633 0.679116 -0.075064
C18   C     C_R   0.316448 0.403627 0.320885 -0.075063
C19   C     C_R   0.785318 0.919520 0.752313 -0.035828
C20   C     C_R   0.214680 0.419522 0.247688 -0.035829
C21   C     C_R   0.809549 0.995493 0.694725 -0.136883
C22   C     C_R   0.190451 0.495514 0.305275 -0.136876
C23   C     C_R   0.772829 0.016012 0.630278 0.403793
C24   C     C_R   0.227170 0.516026 0.369722 0.403796
C25   C     C_R   0.711190 0.968179 0.622103 0.277456
C26   C     C_R   0.288808 0.468171 0.377898 0.277458
C27   C     C_R   0.827195 0.876031 0.813735 0.288226
C28   C     C_R   0.172804 0.376026 0.186268 0.288220
C29   C     C_R   0.908121 0.036195 0.765065 0.315957
C30   C     C_R   0.091881 0.536235 0.234933 0.315963
C31   C     C_R   0.619936 0.856353 0.674073 -0.044585
C32   C     C_R   0.380063 0.356348 0.325927 -0.044589
H1    H     H_    0.714896 0.898498 0.856040 0.163991
H2    H     H_    0.285100 0.398482 0.143961 0.163985
C33   C     C_3   0.787797 0.698682 0.235193 0.272290
C34   C     C_3   0.212080 0.198832 0.764640 0.272393
C35   C     C_3   0.805455 0.048555 0.270283 -0.272312
C36   C     C_3   0.194647 0.548988 0.729833 -0.272307
C37   C     C_3   0.757184 0.029781 0.319685 -0.277715
C38   C     C_3   0.242904 0.530178 0.680415 -0.277782
H3    H     H_    0.806184 0.199852 0.251410 0.178762
H4    H     H_    0.194023 0.700183 0.748831 0.178257
H5    H     H_    0.851102 0.018172 0.299348 0.232094
H6    H     H_    0.148980 0.519050 0.700744 0.232102
C39   C     C_1   0.622984 0.853852 0.376580 -0.109217
C40   C     C_1   0.377018 0.353864 0.623422 -0.109216
C41   C     C_3   0.791283 0.909242 0.207676 0.160102
C42   C     C_3   0.208718 0.409253 0.792325 0.160066
C43   C     C_3   0.739482 0.683244 0.284985 -0.350920
C44   C     C_3   0.260411 0.183383 0.714867 -0.350817
C45   C     C_3   0.707912 0.880284 0.291589 0.189299
C46   C     C_3   0.292090 0.380303 0.708413 0.189326
C47   C     C_3   0.678964 0.945409 0.218120 -0.353890
C48   C     C_3   0.321063 0.444927 0.781933 -0.353907
C49   C     C_3   0.727630 0.962680 0.169147 -0.416243
C50   C     C_3   0.272397 0.462124 0.830910 -0.416229
C51   C     C_1   0.661186 0.864857 0.338450 -0.034842
C52   C     C_1   0.338816 0.364876 0.661552 -0.034832
C53   C     C_1   0.837460 0.927139 0.160075 0.016644
C54   C     C_1   0.162541 0.427136 0.839927 0.016478
C55   C     C_1   0.875313 0.939332 0.121522 -0.079317
C56   C     C_1   0.124687 0.439326 0.878479 -0.079406
H7    H     H_    0.715446 0.865931 0.123770 0.154201
H8    H     H_    0.284515 0.365016 0.876196 0.154211
H9    H     H_    0.727991 0.112764 0.148974 0.165903
H10   H     H_    0.272122 0.612071 0.851224 0.165854
H11   H     H_    0.705230 0.572731 0.264815 0.109042
H12   H     H_    0.294597 0.072617 0.734982 0.109011
O11   O     O_R   0.056480 0.288780 0.942210 -0.522230
O12   O     O_R   0.943520 0.788780 0.057790 -0.522207
O13   O     O_R   0.058700 0.616820 0.085490 -0.536242
O14   O     O_R   0.941300 0.116820 0.914510 -0.536245
C57   C     C_R   0.073052 0.448603 0.111278 0.822080
C58   C     C_R   0.926947 0.948602 0.888722 0.822064
O15   O     O_R   0.063520 0.618570 0.944410 -0.548397
O16   O     O_R   0.936480 0.118570 0.055590 -0.548382
O17   O     O_R   0.948420 0.787670 0.915740 -0.520231
O18   O     O_R   0.051580 0.287670 0.084260 -0.520227
C59   C     C_R   0.078974 0.449766 0.924008 0.749317
C60   C     C_R   0.921026 0.949769 0.075992 0.749328
O19   O     O_3   0.962260 0.453430 0.990800 -0.366990
O20   O     O_3   0.037740 0.953430 0.009200 -0.367005
V3    V     V_3+5 0.007000 0.728750 0.001710 1.620716
V4    V     V_3+5 0.993000 0.228750 0.998290 1.620734
Cl1   Cl    Cl    0.983012 0.122037 0.770384 -0.542265
Cl2   Cl    Cl    0.016991 0.622105 0.229612 -0.542304
Cl3   Cl    Cl    0.859817 0.613982 0.277358 -0.557873
Cl4   Cl    Cl    0.140022 0.114766 0.722370 -0.557272
H13   H     H_    0.779618 0.985365 0.371988 0.219866
H14   H     H_    0.220442 0.486100 0.628084 0.219913
H15   H     H_    0.735963 0.173024 0.325342 0.160520
H16   H     H_    0.264204 0.673340 0.674848 0.160307
H17   H     H_    0.643733 0.839955 0.196180 0.147309
H18   H     H_    0.356245 0.339225 0.803800 0.147304
H19   H     H_    0.774390 0.600641 0.190429 0.079008
H20   H     H_    0.225404 0.100472 0.809329 0.078937
Cl5   Cl    Cl    0.804252 0.100935 0.557247 -0.520688
Cl6   Cl    Cl    0.195748 0.600958 0.442753 -0.520630
H21   H     H_    0.656164 0.087203 0.221158 0.151233
H22   H     H_    0.343926 0.586653 0.779005 0.151228
H23   H     H_    0.889977 0.115660 0.660096 0.229172
H24   H     H_    0.110026 0.615732 0.339900 0.229154
Cl7   Cl    Cl    0.811128 0.705610 0.876158 -0.690856
Cl8   Cl    Cl    0.188869 0.205582 0.123849 -0.690864
H25   H     H_    0.547913 0.781397 0.731649 0.095072
H26   H     H_    0.452086 0.281392 0.268350 0.095073
H27   H     H_    0.609757 0.811209 0.845024 0.119198
H28   H     H_    0.390240 0.311198 0.154976 0.119198
Cl9   Cl    Cl    0.670681 0.014865 0.539914 -0.609552
Cl10  Cl    Cl    0.329315 0.514818 0.460091 -0.609552
H29   H     H_    0.760562 0.633696 0.337195 0.212535
H30   H     H_    0.239324 0.134163 0.662616 0.212628

loop_
_geom_bond_atom_site_label_1
_geom_bond_atom_site_label_2
_ccdc_geom_bond_type
C48   C50   S    
C45   C47   S    
O4    V2    S    
O15   C59   A    
C15   C17   A    
O1    C3    A    
C7    C58   S    
O2    C4    A    
C6    H24   S    
C2    O7    A    
C44   H30   S    
C5    H23   S    
C34   H20   S    
O5    C3    A    
C38   H14   S    
C36   H4    S    
C1    C40   S    
C44   H12   S    
C23   C25   A    
C12   C14   A    
C4    C31   S    
C6    C30   A    
C11   H27   S    
C8    C28   A    
C42   C54   S    
C37   H15   S    
O12   C60   A    
C41   C53   S    
C18   C26   A    
O14   V4    S    
C43   C45   S    
C47   H21   S    
C44   C46   S    
C41   C49   S    
C9    C31   A    
C10   C32   A    
O16   C60   A    
C47   C49   S    
O15   V3    S    
C33   Cl3   S    
C36   C38   S    
C19   C21   A    
O10   V2    S    
C46   C52   S    
C22   C24   A    
C23   Cl5   S    
O5    V1    S    
O6    V2    S    
C17   C31   A    
C2    C39   S    
C18   C32   A    
C5    C21   A    
C48   H18   S    
C47   H17   S    
C34   C42   S    
C9    C11   A    
C50   H10   S    
C34   Cl4   S    
C12   H28   S    
C15   C19   A    
C45   C51   S    
C16   C20   A    
C37   C45   S    
C54   C56   T    
C38   C46   S    
C53   C55   T    
O11   V4    S    
C40   C52   T    
C35   C37   S    
C35   H5    S    
C36   H6    S    
O16   V4    S    
C46   C48   S    
C56   C59   S    
O17   V3    S    
C49   H9    S    
C34   C44   S    
O6    C4    A    
O13   V3    S    
C8    C57   S    
C3    C32   S    
O1    V2    S    
O20   V4    S    
O2    V1    S    
C6    C22   A    
C26   Cl10  S    
C48   H22   S    
C7    C27   A    
C25   Cl9   S    
O4    C2    A    
O13   C57   A    
O19   V4    S    
C33   H19   S    
O9    V1    S    
C24   Cl6   S    
C13   C15   A    
C29   Cl1   S    
C49   H7    S    
C24   C26   A    
C13   H1    S    
O3    V1    S    
C10   H26   S    
C38   H16   S    
O12   V3    S    
C14   C16   A    
C55   C60   S    
O14   C58   A    
O3    C1    A    
C58   O17   A    
C33   C43   S    
C8    C30   A    
C57   O18   A    
O18   V4    S    
C50   H8    S    
C27   Cl7   S    
C35   C41   S    
C43   H29   S    
C36   C42   S    
C30   Cl2   S    
O7    V1    S    
C1    O8    A    
O8    V2    S    
C28   Cl8   S    
C43   H11   S    
C35   H3    S    
C16   C18   A    
C21   C23   A    
C19   C27   A    
C10   C12   A    
C20   C28   A    
O20   V3    S    
C5    C29   A    
C9    H25   S    
C14   H2    S    
C33   C41   S    
O11   C59   A    
C11   C13   A    
C42   C50   S    
O19   V3    S    
O9    V2    S    
C17   C25   A    
O10   V1    S    
C39   C51   T    
C37   H13   S    
C7    C29   A    
C20   C22   A    
