data_mof_unit_30246.cif
_audit_creation_date              2012-12-10T20:25:42-0500
_audit_creation_method            fapswitch 2.2
_symmetry_space_group_name_H-M    P1
_symmetry_Int_Tables_number       1
_space_group_crystal_system       triclinic
_cell_length_a                    8.586235
_cell_length_b                    10.69319
_cell_length_c                    9.884965
_cell_angle_alpha                 89.651494
_cell_angle_beta                  98.324847
_cell_angle_gamma                 90.278263
_cell_volume                      897.993617767

loop_
_atom_site_label
_atom_site_type_symbol
_atom_type_description
_atom_site_fract_x
_atom_site_fract_y
_atom_site_fract_z
_atom_type_partial_charge
C1    C     C_R   0.504442 0.259937 0.500840 0.919394
C2    C     C_R   0.557673 0.936159 0.385408 -0.211901
C3    C     C_R   0.531702 0.871166 0.503750 -0.050559
C4    C     C_R   0.534627 0.934853 0.626427 -0.018247
C5    C     C_3   0.429186 0.922489 0.733791 -0.566992
C6    C     C_3   0.425706 0.064737 0.733805 0.815285
C7    C     C_R   0.362349 0.489780 0.054306 0.215892
C8    C     C_R   0.634653 0.520942 0.088505 -0.131181
C9    C     C_R   0.634713 0.520760 0.944858 -0.117828
C10   C     C_R   0.361988 0.490224 0.911835 0.203532
C11   C     C_3   0.248170 0.383548 0.894599 -0.471909
C12   C     C_R   0.201339 0.500364 0.464293 0.981336
C13   C     C_3   0.249134 0.383601 0.048072 -0.501706
C14   C     C_R   0.505653 0.739902 0.500361 0.877694
C15   C     C_R   0.798598 0.502059 0.535493 0.958462
C16   C     C_2   0.036298 0.498425 0.444887 -0.372413
C17   C     C_2   0.963374 0.508991 0.553858 -0.372626
C18   C     C_R   0.533312 0.062752 0.626764 0.044776
C19   C     C_R   0.528884 0.128450 0.504209 -0.088868
C20   C     C_R   0.556269 0.065546 0.385636 -0.213723
H1    H     H_    0.975351 0.485695 0.341490 0.165833
H2    H     H_    0.744048 0.535734 0.904862 0.145233
H3    H     H_    0.300078 0.298428 0.857004 0.285562
H4    H     H_    0.134710 0.411945 0.078370 0.195333
H5    H     H_    0.565726 0.115066 0.291209 0.181582
H6    H     H_    0.567636 0.888091 0.290900 0.171601
H7    H     H_    0.314070 0.878279 0.694453 0.201325
H8    H     H_    0.491091 0.880428 0.829783 0.188968
H9    H     H_    0.743959 0.536305 0.155562 0.144871
N1    N     N_R   0.498950 0.499140 0.142680 -0.105228
N2    N     N_R   0.498950 0.499180 0.857030 -0.098231
O1    O     O_R   0.500020 0.316790 0.614690 -0.575024
O2    O     O_R   0.500000 0.316760 0.385350 -0.633211
O3    O     O_R   0.271760 0.500010 0.587850 -0.609515
O4    O     O_R   0.271740 0.499970 0.358500 -0.628496
O5    O     O_R   0.500000 0.683240 0.614650 -0.618119
O6    O     O_R   0.499980 0.683210 0.385310 -0.629691
O7    O     O_R   0.728260 0.500030 0.641500 -0.639497
O8    O     O_R   0.728240 0.499990 0.412150 -0.624149
Zn1   Zn    Zn3+2 0.500010 0.500020 0.653130 0.968654
Zn2   Zn    Zn3+2 0.499990 0.499980 0.346870 0.943200
H10   H     H_    0.132117 0.409888 0.837771 0.190374
H11   H     H_    0.302045 0.298011 0.099871 0.232211
H12   H     H_    0.024242 0.524315 0.656440 0.164845
O9    O     O_3   0.277022 0.113988 0.684492 -0.770376
H13   H     H_    0.208684 0.093799 0.754533 0.332076
O10   O     O_3   0.493479 0.119507 0.857899 -0.789077
H14   H     H_    0.601930 0.086524 0.882282 0.310528

loop_
_geom_bond_atom_site_label_1
_geom_bond_atom_site_label_2
_ccdc_geom_bond_type
C7    C10   A    
N1    Zn2   S    
C16   H1    S    
C6    O9    S    
C5    H8    S    
C19   C20   A    
O5    Zn1   S    
C8    N1    A    
C7    C13   S    
C2    C3    A    
C17   H12   S    
C4    C18   A    
O8    Zn2   S    
C7    N1    A    
O9    H13   S    
N2    Zn1   S    
C14   O6    A    
O7    Zn1   S    
C11   C13   S    
C15   O8    A    
C16   C17   D    
C3    C14   S    
C15   O7    A    
O3    Zn1   S    
C8    H9    S    
C11   H3    S    
C10   C11   S    
O1    Zn1   S    
O6    Zn2   S    
C5    C6    S    
O4    Zn2   S    
C6    C18   S    
C9    H2    S    
C1    C19   S    
C6    O10   S    
C9    N2    A    
C1    O2    A    
C3    C4    A    
C12   C16   S    
C13   H11   S    
O2    Zn2   S    
C11   H10   S    
C2    H6    S    
C18   C19   A    
C20   H5    S    
C15   C17   S    
C2    C20   A    
C8    C9    A    
C14   O5    A    
C5    H7    S    
C12   O3    A    
C10   N2    A    
C1    O1    A    
O10   H14   S    
C13   H4    S    
C4    C5    S    
C12   O4    A    
