data_mof_unit_42594.cif
_audit_creation_date              2012-12-10T17:07:12-0500
_audit_creation_method            fapswitch 2.2
_symmetry_space_group_name_H-M    P1
_symmetry_Int_Tables_number       1
_space_group_crystal_system       triclinic
_cell_length_a                    17.319369
_cell_length_b                    10.728559
_cell_length_c                    9.865906
_cell_angle_alpha                 108.502959
_cell_angle_beta                  95.470801
_cell_angle_gamma                 92.356847
_cell_volume                      1725.56621643

loop_
_atom_site_label
_atom_site_type_symbol
_atom_type_description
_atom_site_fract_x
_atom_site_fract_y
_atom_site_fract_z
_atom_type_partial_charge
C1    C     C_R   0.499962 0.253712 0.444646 0.753138
C2    C     C_R   0.506546 0.746727 0.555268 0.722060
C3    C     C_2   0.511869 0.113875 0.424940 0.200934
C4    C     C_2   0.513178 0.888575 0.576638 0.214383
C5    C     C_2   0.564937 0.079533 0.516001 -0.060265
C6    C     C_2   0.567070 0.941282 0.515117 -0.045672
C7    C     C_2   0.506854 0.510718 0.078479 0.402454
C8    C     C_2   0.494304 0.485967 0.919861 0.396788
C9    C     C_R   0.352263 0.506575 0.518980 0.850860
C10   C     C_R   0.647708 0.493767 0.481119 0.752307
C11   C     C_R   0.268850 0.518044 0.527148 -0.216796
C12   C     C_R   0.731060 0.482791 0.473284 -0.208563
C13   C     C_R   0.218770 0.438381 0.408988 -0.152937
C14   C     C_R   0.780886 0.565174 0.589974 -0.173822
C15   C     C_R   0.139510 0.450502 0.401205 0.376298
C16   C     C_R   0.860157 0.553321 0.598901 0.379521
C17   C     C_R   0.108377 0.542058 0.514895 -0.090480
C18   C     C_R   0.891578 0.459550 0.487397 -0.087433
C19   C     C_R   0.157736 0.623940 0.634902 0.405950
C20   C     C_R   0.842362 0.374899 0.368865 0.401186
C21   C     C_R   0.238876 0.612273 0.642174 -0.148365
C22   C     C_R   0.761164 0.386027 0.360840 -0.146262
C23   C     C_2   0.024250 0.553277 0.508379 -0.022960
C24   C     C_2   0.975791 0.448725 0.494605 -0.024049
Cu1   Cu    Cu3+1 0.513640 0.521550 0.643210 1.053546
Cu2   Cu    Cu3+1 0.486360 0.478450 0.356790 1.075089
H1    H     H_    0.241727 0.367495 0.319925 0.212217
H2    H     H_    0.757656 0.637798 0.677232 0.205283
H3    H     H_    0.997997 0.352781 0.481452 0.212225
H4    H     H_    0.002198 0.649271 0.521223 0.212591
H5    H     H_    0.574366 0.628367 0.919711 0.244922
H6    H     H_    0.423286 0.375444 0.081131 0.244390
N1    N     N_2   0.465840 0.446060 0.141630 -0.288294
N2    N     N_2   0.534160 0.553940 0.858370 -0.297604
O1    O     O_R   0.507280 0.332200 0.576490 -0.546761
O2    O     O_R   0.492720 0.667800 0.423510 -0.525938
O3    O     O_R   0.484240 0.295800 0.334620 -0.537954
O4    O     O_R   0.515760 0.704200 0.665380 -0.558373
O5    O     O_R   0.399260 0.520290 0.634950 -0.541356
O6    O     O_R   0.600740 0.479710 0.365050 -0.545277
O7    O     O_R   0.376220 0.483890 0.393080 -0.558420
O8    O     O_R   0.623780 0.516110 0.606920 -0.585478
C25   C     C_2   0.707671 0.291989 0.242253 0.571841
H7    H     H_    0.652123 0.256509 0.263939 0.032599
O9    O     O_2   0.724038 0.255527 0.118774 -0.408420
C26   C     C_2   0.292361 0.703331 0.763165 0.574686
H8    H     H_    0.347850 0.740622 0.743240 0.085115
O10   O     O_2   0.276014 0.735282 0.886622 -0.414512
Cl1   Cl    Cl    0.117357 0.745065 0.771644 -0.377067
Cl2   Cl    Cl    0.882983 0.251153 0.235157 -0.379281
Cl3   Cl    Cl    0.916978 0.651524 0.757882 -0.429910
Cl4   Cl    Cl    0.082153 0.355301 0.241441 -0.426236
C27   C     C_2   0.635532 0.869413 0.461871 0.525828
H9    H     H_    0.646953 0.777012 0.480134 0.053824
O11   O     O_2   0.680666 0.914033 0.397999 -0.466796
C28   C     C_2   0.626839 0.175658 0.613634 0.474521
H10   H     H_    0.642508 0.267370 0.595520 0.043221
O12   O     O_2   0.662281 0.151341 0.714277 -0.447489
Cl5   Cl    Cl    0.443031 0.984094 0.671660 -0.472694
Cl6   Cl    Cl    0.451385 0.993196 0.287488 -0.445889
Cl7   Cl    Cl    0.423686 0.360112 0.815796 -0.490335
Cl8   Cl    Cl    0.580228 0.631136 0.179802 -0.556088

loop_
_geom_bond_atom_site_label_1
_geom_bond_atom_site_label_2
_ccdc_geom_bond_type
Cu1   O8    S    
C2    C4    S    
C25   H7    S    
C23   H4    S    
Cu2   O3    S    
Cu1   O4    S    
C10   O8    A    
C11   C13   A    
C2    O4    A    
C5    C28   S    
C9    O7    A    
C22   C25   S    
C16   Cl3   S    
C1    O3    A    
C8    Cl7   S    
C23   C24   D    
H6    N1    S    
C13   C15   A    
H5    N2    S    
C7    C8    S    
C7    Cl8   S    
C16   C18   A    
C8    N2    D    
C27   H9    S    
Cu1   O5    S    
C24   H3    S    
C25   O9    D    
Cu2   O6    S    
C17   C23   S    
C10   C12   S    
Cu1   O1    S    
C18   C24   S    
C9    C11   S    
C4    Cl5   S    
C4    C6    D    
C28   O12   D    
C19   C21   A    
C12   C14   A    
C18   C20   A    
C27   O11   D    
C5    C6    S    
C14   C16   A    
C7    N1    D    
C6    C27   S    
C26   O10   D    
C12   C22   A    
C9    O5    A    
Cu1   N2    S    
C28   H10   S    
C1    O1    A    
C10   O6    A    
C21   C26   S    
C2    O2    A    
C1    C3    S    
C15   C17   A    
C19   Cl1   S    
C26   H8    S    
C17   C19   A    
C20   Cl2   S    
Cu2   N1    S    
C14   H2    S    
Cu1   Cu2   S    
C15   Cl4   S    
C3    Cl6   S    
C11   C21   A    
C13   H1    S    
Cu2   O2    S    
Cu2   O7    S    
C20   C22   A    
C3    C5    D    
