data_mof_unit_60945.cif
_audit_creation_date              2013-03-05T16:18:14-0500
_audit_creation_method            fapswitch 2.2
_symmetry_space_group_name_H-M    P1
_symmetry_Int_Tables_number       1
_space_group_crystal_system       triclinic
_cell_length_a                    19.316665
_cell_length_b                    18.027472
_cell_length_c                    27.706839
_cell_angle_alpha                 89.774605
_cell_angle_beta                  90.058339
_cell_angle_gamma                 90.048161
_cell_volume                      9648.28717196

loop_
_atom_site_label
_atom_site_type_symbol
_atom_site_description
_atom_site_fract_x
_atom_site_fract_y
_atom_site_fract_z
_atom_type_partial_charge
O1    O     O_R   0.400150 0.561970 0.500010 -0.589702
O2    O     O_R   0.599850 0.438030 0.499990 -0.587506
O3    O     O_R   0.599850 0.561970 0.499990 -0.589395
O4    O     O_R   0.400150 0.438030 0.500010 -0.587899
C1    C     C_R   0.367077 0.499981 0.499852 0.834080
C2    C     C_R   0.632919 0.500021 0.500219 0.838902
O5    O     O_R   0.500010 0.561950 0.430260 -0.552526
O6    O     O_R   0.499990 0.438050 0.569740 -0.555233
O7    O     O_R   0.499990 0.561950 0.569740 -0.577560
O8    O     O_R   0.500010 0.438050 0.430260 -0.582628
C3    C     C_R   0.499062 0.500086 0.407197 0.835207
C4    C     C_R   0.501590 0.499854 0.592648 0.835941
Cu1   Cu    Cu3+1 0.500000 0.573360 0.500000 0.980650
Cu2   Cu    Cu3+1 0.500000 0.426640 0.500000 0.978203
C5    C     C_R   0.450515 0.467655 0.177023 0.577927
C6    C     C_R   0.556705 0.528150 0.823133 0.577026
O9    O     O_2   0.393011 0.452493 0.202643 -0.479772
O10   O     O_2   0.604460 0.566724 0.798111 -0.478901
N1    N     N_R   0.509425 0.486769 0.201156 -0.469129
N2    N     N_R   0.504285 0.494609 0.798458 -0.471134
C7    C     C_R   0.570451 0.499818 0.177751 0.599869
C8    C     C_R   0.453680 0.454929 0.821262 0.602678
C9    C     C_R   0.542913 0.439795 0.281185 -0.072412
C10   C     C_R   0.456838 0.541527 0.721715 -0.076330
C11   C     C_R   0.539714 0.443445 0.331325 -0.225099
C12   C     C_R   0.456885 0.542866 0.671350 -0.223199
C13   C     C_R   0.464752 0.551474 0.325563 0.127168
C14   C     C_R   0.553258 0.456074 0.670652 0.117448
C15   C     C_R   0.468544 0.547468 0.275250 -0.098585
C16   C     C_R   0.552958 0.455266 0.721011 -0.089724
C17   C     C_R   0.507420 0.491789 0.252928 0.291768
C18   C     C_R   0.504681 0.497410 0.746649 0.294496
C19   C     C_R   0.513934 0.473168 0.101426 -0.109398
C20   C     C_R   0.509603 0.479259 0.898089 -0.109148
C21   C     C_R   0.450373 0.462405 0.126344 -0.064144
C22   C     C_R   0.561101 0.521598 0.873724 -0.064568
C23   C     C_R   0.389247 0.448018 0.099417 0.209628
C24   C     C_R   0.614296 0.556043 0.901109 0.210615
C25   C     C_R   0.575209 0.492237 0.126989 -0.138672
C26   C     C_R   0.453766 0.447157 0.872110 -0.139813
C27   C     C_R   0.501076 0.499255 0.354112 -0.095804
C28   C     C_R   0.504218 0.499420 0.645483 -0.087124
H1    H     H_    0.440353 0.587048 0.253282 0.172992
H2    H     H_    0.590455 0.421944 0.740441 0.174748
C29   C     C_R   0.459406 0.434744 0.974046 -0.084208
C30   C     C_R   0.576462 0.484072 0.024976 -0.083391
C31   C     C_R   0.570732 0.498168 0.974693 0.078537
C32   C     C_R   0.455838 0.445009 0.024793 0.077525
C33   C     C_R   0.513216 0.470618 0.948843 0.041529
C34   C     C_R   0.515548 0.467086 0.050511 0.041258
C35   C     C_R   0.410341 0.392819 0.947636 0.305796
C36   C     C_R   0.639733 0.488363 0.050637 0.305778
C37   C     C_R   0.402720 0.405360 0.897621 0.167816
C38   C     C_R   0.638720 0.500080 0.101019 0.163967
O11   O     O_2   0.405493 0.421055 0.794033 -0.482439
O12   O     O_2   0.625763 0.519675 0.204235 -0.487472
C39   C     C_R   0.392874 0.440432 0.049577 -0.144648
C40   C     C_R   0.617848 0.544319 0.950674 -0.145395
H3    H     H_    0.419189 0.576771 0.652504 0.167390
H4    H     H_    0.567844 0.402665 0.352422 0.175453
H5    H     H_    0.419567 0.574477 0.741387 0.159444
H6    H     H_    0.572653 0.396218 0.264207 0.166471
H7    H     H_    0.345054 0.433707 0.029872 0.196262
H8    H     H_    0.656985 0.573789 0.970834 0.194938
C41   C     C_R   0.254398 0.567125 0.498055 -0.183379
C42   C     C_R   0.745583 0.432914 0.502748 -0.176518
C43   C     C_R   0.745698 0.567199 0.499511 -0.186976
C44   C     C_R   0.254275 0.432815 0.500851 -0.187869
H9    H     H_    0.281810 0.619545 0.497118 0.179429
H10   H     H_    0.718166 0.380499 0.503776 0.181142
H11   H     H_    0.718376 0.619617 0.498401 0.179472
H12   H     H_    0.281592 0.380383 0.501683 0.180382
C45   C     C_R   0.182211 0.567554 0.498043 0.163269
C46   C     C_R   0.817767 0.432502 0.503084 0.164634
C47   C     C_R   0.817881 0.567613 0.499772 0.164415
C48   C     C_R   0.182087 0.432424 0.500908 0.163658
C49   C     C_R   0.145561 0.499999 0.499609 -0.057158
C50   C     C_R   0.854419 0.500056 0.501417 -0.057613
C51   C     C_R   0.290943 0.499966 0.499580 -0.113970
C52   C     C_R   0.709042 0.500048 0.500798 -0.110841
N3    N     N_R   0.034951 0.471782 0.538406 -0.174776
N4    N     N_R   0.965040 0.528298 0.462675 -0.174445
N5    N     N_R   0.966092 0.471811 0.538864 -0.169906
N6    N     N_R   0.033895 0.528274 0.462219 -0.170434
C53   C     C_R   0.930085 0.500075 0.501002 0.445645
C54   C     C_R   0.069901 0.500010 0.500077 0.445600
C55   C     C_R   0.550395 0.278315 0.524026 0.056317
C56   C     C_R   0.448246 0.721747 0.477472 0.059609
C57   C     C_R   0.449771 0.278584 0.475726 0.046200
C58   C     C_R   0.551458 0.721414 0.522999 0.048189
H13   H     H_    0.589994 0.308687 0.543117 0.168002
H14   H     H_    0.407452 0.691433 0.459588 0.166094
H15   H     H_    0.410544 0.309237 0.456206 0.153505
H16   H     H_    0.591647 0.690785 0.541543 0.153723
C59   C     C_R   0.551720 0.200191 0.524564 0.059249
C60   C     C_R   0.446973 0.799877 0.476924 0.061677
C61   C     C_R   0.448374 0.200418 0.475260 0.056615
C62   C     C_R   0.552862 0.799579 0.523529 0.056988
C63   C     C_R   0.500005 0.159517 0.499963 -0.055803
C64   C     C_R   0.499998 0.840569 0.500164 -0.057394
N7    N     N_R   0.500000 0.316380 0.500000 -0.204238
N8    N     N_R   0.500000 0.683620 0.500000 -0.203712
N9    N     N_R   0.443348 0.037071 0.514562 -0.171534
N10   N     N_R   0.556674 0.963097 0.485591 -0.171963
N11   N     N_R   0.556673 0.037299 0.485540 -0.175748
N12   N     N_R   0.443376 0.962870 0.514646 -0.175432
C65   C     C_R   0.500029 0.924042 0.500152 0.468265
C66   C     C_R   0.500000 0.076101 0.500009 0.468391
I1    I     I_    0.397925 0.633341 0.354478 -0.270935
I2    I     I_    0.632608 0.395246 0.635656 -0.281668
I3    I     I_    0.132218 0.672479 0.498020 -0.175514
I4    I     I_    0.867742 0.327571 0.503685 -0.170449
I5    I     I_    0.868086 0.672515 0.499883 -0.173240
I6    I     I_    0.131819 0.327558 0.500711 -0.173554
I7    I     I_    0.631128 0.148467 0.565569 -0.172973
I8    I     I_    0.365464 0.851402 0.437839 -0.172157
I9    I     I_    0.369122 0.148898 0.434193 -0.195231
I10   I     I_    0.634109 0.850754 0.562879 -0.191891
I11   I     I_    0.286350 0.440160 0.127130 -0.091330
I12   I     I_    0.693021 0.628635 0.874462 -0.091278
I13   I     I_    0.307355 0.367449 0.865465 -0.030517
I14   I     I_    0.734920 0.535039 0.133572 -0.024383
S1    S     S_3+6 0.373012 0.310928 0.973295 0.053419
O13   O     O_2   0.410355 0.288233 0.018641 -0.245521
O14   O     O_2   0.297869 0.324096 0.984430 -0.260699
O15   O     O_3   0.379282 0.241166 0.933390 -0.470747
H17   H     H_    0.353629 0.199363 0.948290 0.395391
S2    S     S_3+6 0.718438 0.458795 0.022745 0.053736
O16   O     O_2   0.704355 0.419306 0.976049 -0.245183
O17   O     O_2   0.764278 0.524717 0.013347 -0.259512
O18   O     O_3   0.759817 0.399557 0.059899 -0.472209
H18   H     H_    0.804526 0.389224 0.043801 0.397133

loop_
_geom_bond_atom_site_label_1
_geom_bond_atom_site_label_2
_geom_bond_distance
_ccdc_geom_bond_type
C56   C60   1.408740 A    
O15   H17   0.990566 S    
C41   C51   1.402463 A    
C55   H13   1.079561 S    
C13   C15   1.398162 A    
C35   S1    1.787670 S    
O3    C2    1.287021 A    
N1    C17   1.438189 S    
S2    O16   1.503644 D    
C36   S2    1.788764 S    
C32   C39   1.399529 A    
C31   C33   1.412190 A    
C5    N1    1.363937 A    
C63   C66   1.503782 S    
C10   H5    1.082733 S    
O1    C1    1.286775 A    
N1    C7    1.365794 A    
C10   C12   1.395578 A    
C46   I4    2.124435 S    
C59   C63   1.414737 A    
S1    O14   1.503506 D    
C25   C38   1.429527 A    
N12   C65   1.361344 A    
C29   C35   1.416578 A    
C42   C46   1.394407 A    
C30   C36   1.415531 A    
C41   C45   1.394422 A    
O7    Cu1   1.942385 S    
C58   N8    1.363564 A    
C4    C28   1.464718 S    
C61   C63   1.415156 A    
C24   C40   1.390253 A    
C9    H6    1.082888 S    
C56   H14   1.079708 S    
C59   I7    2.122164 S    
C64   C65   1.504804 S    
C55   C59   1.408651 A    
C48   I6    2.124552 S    
C58   H16   1.081302 S    
N9    C66   1.361103 A    
C47   I5    2.124584 S    
C11   H4    1.083529 S    
O6    C4    1.284784 A    
C1    C51   1.470674 S    
C12   H3    1.083475 S    
C57   N7    1.363511 A    
N3    C54   1.356157 A    
O3    Cu1   1.939840 S    
C44   H12   1.083067 S    
C24   I12   2.135777 S    
C44   C51   1.402380 A    
C32   C34   1.412884 A    
C38   I14   2.159375 S    
C55   N7    1.363030 A    
Cu1   Cu2   2.644989 S    
C15   H1    1.082900 S    
C57   H15   1.081433 S    
C16   H2    1.082911 S    
O2    C2    1.286782 A    
C5    C21   1.407721 A    
N10   N11   1.337670 A    
N3    N5    1.330210 A    
C36   C38   1.412785 A    
C45   I3    2.124500 S    
C40   H8    1.080090 S    
N11   C66   1.361190 A    
S1    O13   1.503621 D    
C48   C49   1.408626 A    
O8    Cu2   1.942388 S    
C11   C27   1.405406 A    
Cu2   N7    1.987709 S    
C14   I2    2.122804 S    
C19   C34   1.415738 A    
C57   C61   1.409486 A    
C35   C37   1.410778 A    
C9    C17   1.398508 A    
O5    C3    1.287620 A    
C10   C18   1.399810 A    
C13   C27   1.413613 A    
C2    C52   1.470513 S    
C23   I11   2.135900 S    
C29   C33   1.408225 A    
C6    N2    1.363498 A    
C8    C26   1.415250 A    
C19   C25   1.421391 A    
C50   C53   1.461669 S    
N5    C53   1.355999 A    
N2    C8    1.364915 A    
C49   C54   1.461566 S    
N4    N6    1.330126 A    
O8    C3    1.285988 A    
C20   C26   1.420226 A    
O1    Cu1   1.939496 S    
O18   H18   0.990558 S    
S2    O18   1.682296 S    
C22   C24   1.420631 A    
C12   C28   1.403570 A    
N2    C18   1.436186 S    
C29   C32   1.420636 A    
C5    O9    1.346115 S    
C30   C31   1.419408 A    
C20   C33   1.415857 A    
O6    Cu2   1.943994 S    
C21   C23   1.420296 A    
C7    C25   1.416695 A    
C43   C52   1.402283 A    
C39   H7    1.079503 S    
N6    C54   1.355928 A    
O4    C1    1.287096 A    
S1    O15   1.682301 S    
S2    O17   1.503482 D    
C7    O12   1.344617 S    
C56   N8    1.363072 A    
C8    O11   1.345252 S    
C44   C48   1.394450 A    
N4    C53   1.356129 A    
C42   C52   1.402389 A    
C30   C34   1.406500 A    
C62   C64   1.415643 A    
C14   C16   1.395325 A    
C15   C17   1.400386 A    
O4    Cu2   1.939840 S    
C37   I13   2.157231 S    
C6    C22   1.408709 A    
C31   C40   1.399647 A    
C16   C18   1.399381 A    
C42   H10   1.083100 S    
C41   H9    1.083093 S    
C60   C64   1.415268 A    
C62   I10   2.122461 S    
C14   C28   1.410628 A    
C19   C21   1.421992 A    
C20   C22   1.422644 A    
C3    C27   1.471521 S    
N9    N12   1.337641 A    
C43   H11   1.083066 S    
C9    C11   1.392471 A    
C61   I9    2.122100 S    
O2    Cu2   1.939496 S    
C47   C50   1.408681 A    
O7    C4    1.285056 A    
O5    Cu1   1.943997 S    
C43   C47   1.394350 A    
C13   I1    2.121544 S    
C6    O10   1.345944 S    
C26   C37   1.426747 A    
C46   C50   1.408790 A    
C45   C49   1.408704 A    
C60   I8    2.122635 S    
Cu1   N8    1.987709 S    
C58   C62   1.409495 A    
N10   C65   1.361290 A    
C23   C39   1.390045 A    
