data_mof_unit_40392.cif
_audit_creation_date              2012-12-10T20:34:07-0500
_audit_creation_method            fapswitch 2.2
_symmetry_space_group_name_H-M    P1
_symmetry_Int_Tables_number       1
_space_group_crystal_system       triclinic
_cell_length_a                    9.913525
_cell_length_b                    10.651392
_cell_length_c                    13.663941
_cell_angle_alpha                 90.565282
_cell_angle_beta                  83.798432
_cell_angle_gamma                 91.954193
_cell_volume                      1433.50904292

loop_
_atom_site_label
_atom_site_type_symbol
_atom_type_description
_atom_site_fract_x
_atom_site_fract_y
_atom_site_fract_z
_atom_type_partial_charge
C1    C     C_R   0.503057 0.739845 0.497694 0.963525
C2    C     C_1   0.461557 0.514608 0.788004 -0.002049
C3    C     C_R   0.406620 0.932718 0.551633 0.004175
C4    C     C_R   0.508186 0.872587 0.492713 -0.196256
C5    C     C_R   0.593058 0.939544 0.418917 0.209498
C6    C     C_R   0.569060 0.067820 0.407997 0.300797
C7    C     C_R   0.491316 0.128539 0.485553 -0.202664
C8    C     C_R   0.401174 0.059848 0.550159 0.018004
C9    C     C_3   0.365151 0.071267 0.658640 -0.393832
C10   C     C_3   0.369807 0.928813 0.661093 0.208368
C11   C     C_R   0.922713 0.579337 0.560796 0.138838
C12   C     C_R   0.476763 0.502206 0.685262 0.905430
C13   C     C_R   0.934789 0.430448 0.433946 -0.114367
C14   C     C_R   0.078085 0.430231 0.433596 0.433704
C15   C     C_R   0.063553 0.573341 0.564789 -0.024713
C16   C     C_3   0.044553 0.567878 0.675655 0.120699
C17   C     C_3   0.893892 0.587153 0.669489 0.140568
C18   C     C_R   0.497937 0.260455 0.496720 0.980781
C19   C     C_R   0.523557 0.502245 0.314880 0.988085
C20   C     C_1   0.540182 0.502363 0.211987 0.007727
C21   C     C_2   0.556960 0.499043 0.021286 0.237973
C22   C     C_2   0.448620 0.534909 0.978473 0.244879
C23   C     C_1   0.451882 0.525636 0.874974 0.077424
C24   C     C_1   0.551370 0.501075 0.124819 0.032728
H1    H     H_    0.097628 0.647612 0.710199 0.154880
H2    H     H_    0.822932 0.511625 0.700189 0.208939
H3    H     H_    0.445701 0.121669 0.695851 0.236702
H4    H     H_    0.261115 0.105738 0.677661 0.238184
H5    H     H_    0.269149 0.881635 0.681885 0.138259
H6    H     H_    0.885787 0.371810 0.382414 0.222062
N1    N     N_R   0.857130 0.500860 0.500650 -0.137622
N2    N     N_R   0.142770 0.500820 0.500650 -0.116641
O1    O     O_R   0.385310 0.683210 0.499990 -0.637100
O2    O     O_R   0.614650 0.683240 0.500000 -0.534945
O3    O     O_R   0.368820 0.499950 0.640340 -0.570594
O4    O     O_R   0.598170 0.499990 0.640350 -0.622736
O5    O     O_R   0.385350 0.316760 0.500000 -0.536243
O6    O     O_R   0.614690 0.316790 0.500010 -0.626431
O7    O     O_R   0.401830 0.500010 0.359650 -0.560484
O8    O     O_R   0.631180 0.500050 0.359660 -0.583890
Zn1   Zn    Zn3+2 0.346870 0.499980 0.499990 1.092648
Zn2   Zn    Zn3+2 0.653130 0.500020 0.500010 1.075580
S1    S     S_3+6 0.298441 0.589548 0.045404 0.112702
O9    O     O_2   0.232847 0.485450 0.109074 -0.191563
O10   O     O_2   0.332568 0.698493 0.110075 -0.246639
O11   O     O_3   0.188746 0.634859 0.968008 -0.438962
H7    H     H_    0.233098 0.709844 0.934248 0.370746
Cl1   Cl    Cl    0.168347 0.328796 0.350902 -0.432890
S2    S     S_3+6 0.074297 0.416618 0.727881 0.090832
O12   O     O_2   0.164441 0.436802 0.808415 -0.202453
O13   O     O_2   0.944406 0.353547 0.772316 -0.204770
O14   O     O_3   0.150104 0.319043 0.643281 -0.540582
H8    H     H_    0.075081 0.274921 0.613233 0.353241
Cl2   Cl    Cl    0.842419 0.740931 0.706619 -0.450332
S3    S     S_3+6 0.707616 0.445054 0.955203 0.118004
O15   O     O_2   0.673387 0.340331 0.886661 -0.223948
O16   O     O_2   0.777196 0.551393 0.896114 -0.237218
O17   O     O_3   0.812720 0.391897 0.033104 -0.407692
H9    H     H_    0.848237 0.468188 0.065105 0.390509
S4    S     S_3+6 0.736380 0.869666 0.351228 0.131745
O18   O     O_2   0.687270 0.770309 0.283537 -0.252130
O19   O     O_2   0.825419 0.964127 0.291531 -0.150981
O20   O     O_3   0.833620 0.803311 0.428566 -0.494631
H10   H     H_    0.852680 0.870629 0.476189 0.366104
S5    S     S_3+6 0.599923 0.143055 0.291868 0.107396
O21   O     O_2   0.726777 0.224824 0.287886 -0.258067
O22   O     O_2   0.613326 0.047898 0.209619 -0.169945
O23   O     O_3   0.466987 0.231791 0.276689 -0.552889
H11   H     H_    0.462635 0.234523 0.204665 0.400125
Cl3   Cl    Cl    0.502313 0.874586 0.727438 -0.505598

loop_
_geom_bond_atom_site_label_1
_geom_bond_atom_site_label_2
_ccdc_geom_bond_type
N2    Zn1   S    
C6    C7    A    
C16   H1    S    
N1    Zn2   S    
C12   O4    A    
C9    C10   S    
O4    Zn2   S    
C22   S1    S    
O2    Zn2   S    
S1    O9    D    
C1    C4    S    
C2    C12   S    
S5    O23   S    
S3    O15   D    
O8    Zn2   S    
C18   O6    A    
O1    Zn1   S    
C7    C8    A    
O7    Zn1   S    
C3    C10   S    
C13   C14   A    
C16   S2    S    
C12   O3    A    
C11   N1    A    
S1    O10   D    
C10   H5    S    
S3    O17   S    
C19   O7    A    
S4    O18   D    
S4    O20   S    
S2    O14   S    
C17   H2    S    
C10   Cl3   S    
C21   C22   D    
C18   O5    A    
C1    O2    A    
O6    Zn2   S    
S3    O16   D    
O5    Zn1   S    
C5    C6    A    
O3    Zn1   S    
S1    O11   S    
C3    C8    A    
C16   C17   S    
C19   O8    A    
C1    O1    A    
C15   C16   S    
C20   C24   T    
C13   H6    S    
C4    C5    A    
C7    C18   S    
O14   H8    S    
C9    H3    S    
S4    O19   D    
S5    O21   D    
O11   H7    S    
C21   C24   S    
C2    C23   T    
S2    O12   D    
C22   C23   S    
C8    C9    S    
C21   S3    S    
C14   Cl1   S    
C5    S4    S    
S2    O13   D    
O17   H9    S    
O20   H10   S    
C11   C15   A    
C17   Cl2   S    
C13   N1    A    
C6    S5    S    
C11   C17   S    
C3    C4    A    
C19   C20   S    
C9    H4    S    
C14   N2    A    
O23   H11   S    
S5    O22   D    
C15   N2    A    
