data_mof_unit_12173.cif
_audit_creation_date              2012-10-26T20:25:34-0400
_audit_creation_method            fapswitch 2.2
_symmetry_space_group_name_H-M    P1
_symmetry_Int_Tables_number       1
_space_group_crystal_system       triclinic
_cell_length_a                    23.441356
_cell_length_b                    10.667594
_cell_length_c                    9.399471
_cell_angle_alpha                 90.383552
_cell_angle_beta                  89.617126
_cell_angle_gamma                 90.620277
_cell_volume                      2350.21693322

loop_
_atom_site_label
_atom_site_type_symbol
_atom_type_description
_atom_site_fract_x
_atom_site_fract_y
_atom_site_fract_z
_atom_type_partial_charge
C1    C     C_R   0.500354 0.259365 0.499520 0.572188
C2    C     C_R   0.700079 0.550376 0.621738 -0.165799
C3    C     C_R   0.240040 0.495310 0.640627 -0.113744
C4    C     C_R   0.759220 0.554735 0.624614 -0.134777
C5    C     C_R   0.208798 0.475595 0.516301 0.258913
C6    C     C_R   0.790961 0.516020 0.506046 0.255589
C7    C     C_3   0.538932 0.043318 0.594361 -0.158523
C8    C     C_3   0.461565 0.955991 0.405943 -0.154553
C9    C     C_3   0.551672 0.959255 0.464219 0.066658
C10   C     C_3   0.448695 0.040155 0.535780 0.059739
C11   C     C_3   0.499988 0.877187 0.501494 0.005283
C12   C     C_R   0.499866 0.740515 0.500507 0.574541
C13   C     C_3   0.500454 0.122450 0.498696 -0.003502
C14   C     C_3   0.486417 0.959545 0.632104 -0.140878
C15   C     C_3   0.513939 0.039826 0.368006 -0.134853
C16   C     C_R   0.390906 0.497544 0.500710 0.571657
C17   C     C_R   0.609027 0.501939 0.499572 0.569786
C18   C     C_3   0.533318 0.584887 0.049253 0.366072
C19   C     C_3   0.466613 0.415266 0.950644 0.368930
C20   C     C_3   0.483035 0.607583 0.950256 -0.044973
C21   C     C_3   0.516921 0.392419 0.049667 -0.039191
C22   C     C_3   0.551006 0.479024 0.948446 -0.043200
C23   C     C_R   0.236899 0.462775 0.384642 0.318708
C24   C     C_3   0.449013 0.521304 0.051488 -0.044567
C25   C     C_R   0.882923 0.618051 0.527932 0.406129
C26   C     C_R   0.117146 0.372173 0.540813 0.425312
C27   C     C_R   0.876924 0.394795 0.524664 0.437361
C28   C     C_R   0.122396 0.594676 0.519854 0.395258
C29   C     C_R   0.936745 0.385038 0.541323 -0.047088
C30   C     C_R   0.062676 0.604754 0.537578 -0.050549
C31   C     C_R   0.969623 0.497174 0.544805 -0.111966
C32   C     C_R   0.029913 0.492613 0.545889 -0.115589
C33   C     C_R   0.942329 0.614176 0.545983 0.017855
C34   C     C_R   0.763571 0.477660 0.379839 0.331968
C35   C     C_R   0.057317 0.375896 0.554044 0.011247
C36   C     C_R   0.964872 0.268721 0.557407 0.035292
C37   C     C_R   0.034516 0.721586 0.550233 0.035216
C38   C     C_R   0.024320 0.266651 0.577285 0.251306
C39   C     C_R   0.974948 0.724085 0.567558 0.256272
C40   C     C_2   0.934317 0.147074 0.550966 0.675782
C41   C     C_2   0.065290 0.843097 0.547364 0.672895
C42   C     C_3   0.597811 0.748714 0.009147 0.004086
C43   C     C_3   0.661524 0.720291 0.014993 -0.260150
C44   C     C_3   0.696135 0.806864 0.917885 -0.463306
C45   C     C_R   0.296804 0.468608 0.379430 -0.116464
C46   C     C_3   0.401083 0.253034 0.987968 0.003425
C47   C     C_3   0.428641 0.124081 0.998190 -0.249765
C48   C     C_3   0.389142 0.029916 0.071673 -0.455975
C49   C     C_3   0.042954 0.143620 0.770094 0.038303
C50   C     C_3   0.091439 0.208488 0.852156 -0.266913
C51   C     C_3   0.086330 0.183778 0.011573 -0.468833
C52   C     C_3   0.951829 0.843648 0.762338 0.040197
C53   C     C_3   0.898882 0.785384 0.833701 -0.263764
C54   C     C_3   0.898627 0.809477 0.993944 -0.468080
C55   C     C_3   0.207895 0.540810 0.171681 0.010842
C56   C     C_R   0.703227 0.473027 0.378577 -0.141859
C57   C     C_3   0.162029 0.526407 0.057540 -0.249085
C58   C     C_3   0.101945 0.527411 0.121712 -0.387671
C59   C     C_3   0.775346 0.451894 0.131426 0.003133
C60   C     C_3   0.754116 0.326186 0.070771 -0.255919
C61   C     C_3   0.734046 0.339019 0.917622 -0.469448
C62   C     C_2   0.609483 0.910437 0.426108 0.598174
C63   C     C_2   0.390309 0.087683 0.570665 0.595883
C64   C     C_R   0.328177 0.490557 0.504287 -0.010424
C65   C     C_R   0.671637 0.508594 0.499507 -0.021338
C66   C     C_R   0.299213 0.502680 0.634942 -0.142218
Cu1   Cu    Cu3+1 0.500010 0.499990 0.643150 1.000729
Cu2   Cu    Cu3+1 0.499990 0.500010 0.356850 0.999774
H1    H     H_    0.469489 0.697751 0.903592 0.097747
H2    H     H_    0.780651 0.584869 0.720915 0.111434
H3    H     H_    0.570867 0.081247 0.670493 0.126761
H4    H     H_    0.429600 0.915323 0.332054 0.121553
H5    H     H_    0.475090 0.923177 0.739101 0.126937
H6    H     H_    0.525946 0.074383 0.260742 0.130111
H7    H     H_    0.914811 0.994419 0.432546 0.388454
H8    H     H_    0.084020 0.998978 0.435433 0.387772
H9    H     H_    0.591387 0.849285 0.035502 0.176254
H10   H     H_    0.582218 0.734421 0.898141 0.120158
H11   H     H_    0.676901 0.731837 0.126011 0.210691
H12   H     H_    0.531627 0.303568 0.096992 0.094871
H13   H     H_    0.668335 0.621618 0.981571 0.125454
H14   H     H_    0.680945 0.798806 0.806540 0.186312
H15   H     H_    0.741810 0.780407 0.920750 0.142283
H16   H     H_    0.692238 0.905719 0.954231 0.173816
H17   H     H_    0.356452 0.241194 0.950688 0.168275
H18   H     H_    0.398448 0.297075 0.095797 0.120851
H19   H     H_    0.439111 0.088839 0.890049 0.215528
H20   H     H_    0.469004 0.131989 0.058428 0.129709
H21   H     H_    0.378259 0.063295 0.180595 0.180497
H22   H     H_    0.410729 0.938038 0.078535 0.137787
H23   H     H_    0.593588 0.462368 0.900232 0.093513
H24   H     H_    0.349263 0.016826 0.009913 0.180176
H25   H     H_    0.044270 0.042094 0.793885 0.179423
H26   H     H_    0.000826 0.177105 0.810187 0.111308
H27   H     H_    0.133129 0.172924 0.813156 0.224318
H28   H     H_    0.090183 0.311295 0.834820 0.145407
H29   H     H_    0.045884 0.222861 0.054156 0.162445
H30   H     H_    0.122589 0.229305 0.067902 0.182875
H31   H     H_    0.087337 0.081488 0.032672 0.175924
H32   H     H_    0.953161 0.944638 0.790269 0.179454
H33   H     H_    0.991399 0.802857 0.807658 0.102300
H34   H     H_    0.406325 0.538069 0.099280 0.091457
H35   H     H_    0.859773 0.826069 0.787335 0.222180
H36   H     H_    0.898102 0.682500 0.815180 0.144917
H37   H     H_    0.937023 0.768268 0.043180 0.164737
H38   H     H_    0.860033 0.765452 0.042303 0.158460
H39   H     H_    0.897929 0.911790 0.016616 0.176211
H40   H     H_    0.250194 0.545031 0.117414 0.100290
H41   H     H_    0.200874 0.631087 0.229590 0.169671
H42   H     H_    0.166300 0.604920 0.980911 0.128995
H43   H     H_    0.168510 0.437290 0.997996 0.161014
H44   H     H_    0.095873 0.448065 0.196430 0.197100
H45   H     H_    0.318573 0.455077 0.278592 0.116152
H46   H     H_    0.070049 0.517877 0.035379 0.122039
H47   H     H_    0.094439 0.616940 0.179574 0.168924
H48   H     H_    0.810771 0.486418 0.062446 0.153053
H49   H     H_    0.742079 0.525293 0.126506 0.100444
H50   H     H_    0.789357 0.257348 0.073508 0.202422
H51   H     H_    0.718443 0.288771 0.136689 0.168796
H52   H     H_    0.699021 0.407854 0.911543 0.128726
H53   H     H_    0.717978 0.246967 0.878139 0.169635
H54   H     H_    0.770047 0.369728 0.848377 0.172544
H55   H     H_    0.676754 0.807256 0.484838 0.344513
H56   H     H_    0.680531 0.438185 0.286532 0.118130
H57   H     H_    0.323721 0.088261 0.707343 0.347685
H58   H     H_    0.322203 0.518852 0.733065 0.146731
H59   H     H_    0.676519 0.578807 0.715705 0.137326
H60   H     H_    0.218190 0.506935 0.741656 0.108239
N1    N     N_R   0.851890 0.509632 0.517483 -0.386231
N2    N     N_R   0.147816 0.480286 0.523422 -0.389129
N3    N     N_3   0.500040 0.499970 0.858290 -0.243241
N4    N     N_3   0.499960 0.500030 0.141710 -0.242837
O1    O     O_R   0.500030 0.316850 0.620870 -0.459998
O2    O     O_2   0.144602 0.261690 0.541540 -0.430945
O3    O     O_2   0.843525 0.291436 0.515478 -0.428522
O4    O     O_2   0.155278 0.697236 0.497513 -0.469969
O5    O     O_2   0.902925 0.114922 0.648800 -0.499455
O6    O     O_R   0.940930 0.070681 0.430827 -0.623935
O7    O     O_2   0.097410 0.872451 0.644269 -0.489565
O8    O     O_R   0.057744 0.923013 0.432024 -0.629944
O9    O     O_3   0.568592 0.676934 0.113165 -0.529876
O10   O     O_3   0.430291 0.326105 0.885387 -0.535364
O11   O     O_3   0.050139 0.157291 0.620838 -0.507476
O12   O     O_R   0.499970 0.683150 0.379130 -0.459233
O13   O     O_3   0.948841 0.833671 0.611740 -0.506223
O14   O     O_3   0.205339 0.436830 0.263957 -0.546222
O15   O     O_3   0.798023 0.434017 0.268862 -0.533241
O16   O     O_2   0.631187 0.936748 0.311437 -0.533737
O17   O     O_R   0.638202 0.834882 0.522333 -0.716908
O18   O     O_2   0.366797 0.158660 0.488655 -0.520015
O19   O     O_R   0.362734 0.049331 0.695330 -0.715898
O20   O     O_R   0.500000 0.316860 0.379090 -0.517220
O21   O     O_R   0.500000 0.683140 0.620910 -0.518605
O22   O     O_R   0.417890 0.499960 0.620920 -0.468419
O23   O     O_R   0.582110 0.500040 0.379080 -0.471941
O24   O     O_R   0.417870 0.499970 0.379140 -0.522252
O25   O     O_R   0.582130 0.500030 0.620860 -0.517117
O26   O     O_2   0.856317 0.729071 0.516613 -0.456813

loop_
_geom_bond_atom_site_label_1
_geom_bond_atom_site_label_2
_ccdc_geom_bond_type
C51   H29   S    
H55   O17   S    
C34   C56   A    
C52   O13   S    
C23   C45   A    
C62   O17   S    
C22   N3    S    
C27   C29   A    
C38   O11   S    
C18   N4    S    
C10   C63   S    
C12   O21   A    
C2    C65   A    
C25   N1    A    
C4    H2    S    
C46   O10   S    
C53   C54   S    
C29   C36   A    
C33   C39   A    
C54   H39   S    
C1    O20   A    
Cu1   O22   S    
C58   H44   S    
C56   H56   S    
Cu1   O1    S    
C21   N4    S    
C44   H14   S    
C7    H3    S    
C11   C14   S    
C50   H27   S    
C53   H36   S    
C43   H11   S    
C56   C65   A    
C60   H51   S    
C61   H53   S    
Cu2   N4    S    
C41   O8    S    
H57   O19   S    
C7    C14   S    
C20   C24   S    
C59   H48   S    
C40   O6    S    
C16   O24   A    
C22   H23   S    
C31   C33   A    
C60   H50   S    
C49   H26   S    
C18   C22   S    
C17   O25   A    
C28   N2    A    
C26   N2    A    
Cu2   O20   S    
C46   H17   S    
C2    H59   S    
C44   H15   S    
C51   H30   S    
C59   C60   S    
C59   H49   S    
C48   H22   S    
C21   C22   S    
C55   H41   S    
C61   H52   S    
C19   N3    S    
C6    N1    S    
C1    O1    A    
H8    O8    S    
C51   H31   S    
C23   O14   S    
C52   H33   S    
C8    H4    S    
C54   H38   S    
Cu1   Cu2   S    
C14   H5    S    
C36   C40   S    
C35   C38   A    
C4    C6    A    
C10   C14   S    
C3    H60   S    
C55   O14   S    
C44   H16   S    
C10   C13   S    
C66   H58   S    
C30   C37   A    
C61   H54   S    
C64   C66   A    
C2    C4    A    
C43   C44   S    
C32   C35   A    
C63   O18   D    
C26   O2    S    
C45   H45   S    
C24   H34   S    
C34   O15   S    
C24   N4    S    
C47   C48   S    
C5    C23   A    
C40   O5    D    
C39   O13   S    
C42   O9    S    
C50   C51   S    
Cu1   O25   S    
C9    C11   S    
C63   O19   S    
Cu2   O23   S    
C59   O15   S    
C8    C10   S    
C5    N2    S    
C42   H10   S    
C8    C15   S    
C48   H21   S    
C13   C15   S    
C16   O22   A    
C58   H47   S    
C27   N1    A    
C20   H1    S    
C3    C66   A    
C1    C13   S    
C42   C43   S    
C20   N3    S    
C17   O23   A    
C52   C53   S    
C6    C34   A    
C7    C9    S    
C46   C47   S    
C54   H37   S    
C19   C21   S    
C28   O4    S    
C31   C32   A    
Cu1   N3    S    
C3    C5    A    
H7    O6    S    
C11   C12   S    
C57   H42   S    
C19   O10   S    
C45   C64   A    
C17   C65   S    
C9    C62   S    
C55   H40   S    
Cu1   O21   S    
C27   O3    S    
C47   H20   S    
C55   C57   S    
C19   C24   S    
C9    C15   S    
C28   C30   A    
C29   C31   A    
C30   C32   A    
C50   H28   S    
C57   C58   S    
C57   H43   S    
C53   H35   S    
C8    C11   S    
C43   H13   S    
C49   O11   S    
C21   H12   S    
C36   C38   A    
C52   H32   S    
Cu2   O12   S    
C18   C20   S    
C37   C41   S    
C41   O7    D    
C12   O12   A    
C26   C35   A    
C7    C13   S    
C15   H6    S    
C42   H9    S    
C37   C39   A    
C49   C50   S    
C48   H24   S    
C25   O26   S    
C58   H46   S    
C60   C61   S    
C62   O16   D    
C16   C64   S    
C49   H25   S    
Cu2   O24   S    
C18   O9    S    
C25   C33   A    
C46   H18   S    
C47   H19   S    
