data_mof_unit_68213.cif
_audit_creation_date              2012-12-11T17:05:35-0500
_audit_creation_method            fapswitch 2.2
_symmetry_space_group_name_H-M    P1
_symmetry_Int_Tables_number       1
_space_group_crystal_system       triclinic
_cell_length_a                    7.020187
_cell_length_b                    15.010276
_cell_length_c                    15.878745
_cell_angle_alpha                 89.793883
_cell_angle_beta                  90.072271
_cell_angle_gamma                 89.222366
_cell_volume                      1673.05550307

loop_
_atom_site_label
_atom_site_type_symbol
_atom_type_description
_atom_site_fract_x
_atom_site_fract_y
_atom_site_fract_z
_atom_type_partial_charge
O1    O     O_R   0.494380 0.415640 0.412830 -0.539274
O2    O     O_R   0.823960 0.405540 0.586560 -0.505043
O3    O     O_R   0.994270 0.584360 0.587170 -0.549599
C1    C     C_R   0.656955 0.382512 0.614686 0.905776
O4    O     O_R   0.824090 0.404620 0.413450 -0.550860
O5    O     O_R   0.994400 0.583430 0.412820 -0.533454
C2    C     C_R   0.655247 0.380644 0.386205 0.760202
O6    O     O_R   0.494250 0.416570 0.587180 -0.511301
O7    O     O_3   0.660800 0.558670 0.500000 -0.400188
V1    V     V_3+5 0.935650 0.489120 0.500000 1.616312
O8    O     O_R   0.324110 0.594460 0.413440 -0.559336
C3    C     C_R   0.155871 0.612213 0.381369 0.796500
O9    O     O_R   0.323980 0.595380 0.586550 -0.529288
C4    C     C_R   0.154916 0.616838 0.616132 0.900581
V2    V     V_3+5 0.435660 0.510880 0.500000 1.574234
O10   O     O_3   0.160640 0.441330 0.500000 -0.340365
C5    C     C_3   0.950407 0.687830 0.731423 -0.340219
H1    H     H_    0.832014 0.696107 0.686357 0.202181
H2    H     H_    0.931763 0.622637 0.760513 0.215988
C6    C     C_3   0.934734 0.760929 0.799111 -0.354867
H3    H     H_    0.881098 0.730944 0.856858 0.211600
H4    H     H_    0.822117 0.808966 0.782737 0.284197
C7    C     C_3   0.173537 0.783397 0.650015 0.231673
C8    C     C_3   0.307518 0.673450 0.756876 0.197393
C9    C     C_3   0.145555 0.687674 0.686984 -0.328543
H5    H     H_    0.438211 0.699211 0.726827 0.080230
C10   C     C_3   0.127656 0.809384 0.812003 -0.303406
C11   C     C_3   0.163349 0.856822 0.721948 0.634270
C12   C     C_3   0.277856 0.733044 0.838476 0.668600
H6    H     H_    0.317585 0.781291 0.621077 0.100001
C13   C     C_R   0.238413 0.823017 0.250951 -0.047183
C14   C     C_R   0.117407 0.813413 0.181756 -0.122078
C15   C     C_R   0.001630 0.736950 0.180533 -0.168979
H7    H     H_    0.908210 0.726145 0.127444 0.169451
C16   C     C_R   0.021067 0.668593 0.242556 0.423874
C17   C     C_R   0.144381 0.679952 0.312062 -0.191223
C18   C     C_R   0.249648 0.758813 0.315283 0.091066
C19   C     C_3   0.462002 0.769029 0.318662 0.337414
C20   C     C_3   0.446450 0.841286 0.251130 -0.490992
H8    H     H_    0.534419 0.708761 0.294656 0.061958
H9    H     H_    0.517048 0.821962 0.191108 0.156393
H10   H     H_    0.474500 0.910346 0.271348 0.197459
C21   C     C_R   0.509510 0.249790 0.683325 -0.113256
C22   C     C_R   0.653971 0.312132 0.682074 -0.212650
C23   C     C_R   0.787024 0.308469 0.749715 0.420424
C24   C     C_R   0.771387 0.244065 0.816054 0.317439
C25   C     C_R   0.624340 0.181442 0.814765 -0.278044
C26   C     C_R   0.492531 0.187764 0.749286 -0.011961
C27   C     C_3   0.285381 0.209904 0.756141 0.293237
C28   C     C_3   0.302479 0.270511 0.679933 0.235438
H11   H     H_    0.196532 0.151434 0.744769 0.128348
H12   H     H_    0.262012 0.341323 0.689856 0.161029
C29   C     C_R   0.578629 0.333822 0.237647 -0.163068
C30   C     C_R   0.646084 0.311474 0.317780 -0.169485
C31   C     C_R   0.704334 0.221378 0.329741 0.358551
C32   C     C_R   0.679225 0.156002 0.265008 0.348464
C33   C     C_R   0.619096 0.181995 0.182477 -0.234338
C34   C     C_R   0.576255 0.273476 0.170161 -0.104923
C35   C     C_3   0.401765 0.321380 0.134347 0.951223
C36   C     C_3   0.401127 0.383018 0.212706 -0.444387
H13   H     H_    0.287274 0.373423 0.259968 0.159826
H14   H     H_    0.423902 0.454695 0.201732 0.143196
O11   O     O_R   0.771490 0.080820 0.910070 -0.536667
O12   O     O_R   0.441590 0.092730 0.083780 -0.524727
O13   O     O_R   0.271350 0.913900 0.084390 -0.549131
C37   C     C_R   0.609488 0.115550 0.111996 0.729245
O14   O     O_R   0.441780 0.091820 0.910670 -0.506165
O15   O     O_R   0.271540 0.912980 0.910040 -0.493177
C38   C     C_R   0.610245 0.112498 0.881503 0.854811
O16   O     O_R   0.771300 0.081740 0.084420 -0.569294
O17   O     O_3   0.604960 0.938700 0.997240 -0.398421
V3    V     V_3+5 0.330090 0.008230 0.997220 1.577566
O18   O     O_R   0.941820 0.901930 0.910640 -0.550751
C39   C     C_R   0.111858 0.879752 0.882132 0.841576
O19   O     O_R   0.941630 0.902840 0.083750 -0.561738
C40   C     C_R   0.110656 0.881093 0.112558 0.758871
V4    V     V_3+5 0.830090 0.986410 0.997190 1.449128
O20   O     O_3   0.105080 0.055990 0.997200 -0.369607
O21   O     O_3   0.455336 0.776302 0.854057 -0.570568
C41   C     C_3   0.549709 0.755320 0.930012 -0.017714
H15   H     H_    0.604584 0.685756 0.929717 0.170093
H16   H     H_    0.462600 0.772672 0.986019 0.169766
H17   H     H_    0.675458 0.797545 0.935343 0.146886
S1    S     S_3+6 0.386175 0.918099 0.711700 -0.035160
O22   O     O_2   0.409934 0.987981 0.777298 -0.374808
O23   O     O_2   0.552576 0.855263 0.715140 -0.350029
O24   O     O_3   0.392327 0.967054 0.617188 -0.483631
H18   H     H_    0.525426 0.987220 0.610817 0.379951
O25   O     O_3   0.962370 0.583310 0.224137 -0.551858
C42   C     C_3   0.764387 0.577700 0.233574 -0.260444
H19   H     H_    0.722325 0.588631 0.300164 0.145640
H20   H     H_    0.723991 0.508967 0.217830 0.156082
H21   H     H_    0.686816 0.623274 0.189628 0.123064
O26   O     O_3   0.536968 0.792231 0.398797 -0.548396
C43   C     C_3   0.470480 0.874653 0.430513 -0.006815
H22   H     H_    0.321733 0.891832 0.412266 0.163036
H23   H     H_    0.568025 0.928594 0.411272 0.160890
H24   H     H_    0.474333 0.870074 0.499803 0.218453
O27   O     O_3   0.915089 0.376167 0.758053 -0.536752
C44   C     C_3   0.850112 0.433524 0.822545 0.003834
H25   H     H_    0.714348 0.415119 0.853740 0.069242
H26   H     H_    0.825707 0.499659 0.795829 0.185340
H27   H     H_    0.960590 0.437708 0.871580 0.184811
O28   O     O_3   0.909500 0.239946 0.878400 -0.509177
C45   C     C_3   0.842943 0.265890 0.958724 -0.077295
H28   H     H_    0.691944 0.251048 0.971275 0.061107
H29   H     H_    0.870719 0.337097 0.969384 0.105832
H30   H     H_    0.927641 0.229100 0.006810 0.195888
O29   O     O_3   0.232320 0.251881 0.832940 -0.527336
C46   C     C_3   0.339345 0.325837 0.859443 0.024398
H31   H     H_    0.243838 0.373344 0.892170 0.223543
H32   H     H_    0.412749 0.362222 0.808965 0.118665
H33   H     H_    0.443622 0.303759 0.906799 0.116557
S2    S     S_3+6 0.206045 0.226874 0.585343 -0.042409
O30   O     O_2   0.277531 0.279688 0.511893 -0.355990
O31   O     O_2   0.992754 0.232453 0.588680 -0.347465
O32   O     O_3   0.274078 0.120911 0.571095 -0.498069
H34   H     H_    0.392710 0.123883 0.537504 0.370355
O33   O     O_3   0.763894 0.193694 0.408440 -0.540316
C47   C     C_3   0.960785 0.174435 0.404320 0.007067
H35   H     H_    0.041618 0.237355 0.404624 0.165657
H36   H     H_    0.004827 0.135387 0.348406 0.048815
H37   H     H_    0.000217 0.132630 0.459216 0.248320
O34   O     O_3   0.668912 0.067666 0.290840 -0.553883
C48   C     C_3   0.818284 0.014568 0.257798 -0.226729
H38   H     H_    0.937702 0.052179 0.229917 0.095715
H39   H     H_    0.759669 0.968959 0.209984 0.152186
H40   H     H_    0.878162 0.972616 0.309341 0.181107
O35   O     O_3   0.243545 0.264018 0.122393 -0.541694
C49   C     C_3   0.153504 0.234126 0.196413 -0.311435
H41   H     H_    0.255488 0.213768 0.246653 0.140167
H42   H     H_    0.070246 0.174905 0.179715 0.165400
H43   H     H_    0.050187 0.285163 0.219316 0.140990
O36   O     O_3   0.437625 0.364679 0.055705 -0.561636
C50   C     C_3   0.579083 0.431064 0.056382 -0.275999
H44   H     H_    0.708944 0.411090 0.092028 0.131021
H45   H     H_    0.519701 0.495486 0.078806 0.201554
H46   H     H_    0.623427 0.443540 0.990725 0.184061
S3    S     S_3+6 0.024416 0.812234 0.559321 0.039099
O37   O     O_2   0.061817 0.906557 0.532752 -0.276850
O38   O     O_2   0.075436 0.753108 0.487195 -0.395438
O39   O     O_3   0.790290 0.804071 0.579489 -0.458817
H47   H     H_    0.747331 0.751155 0.547972 0.355841
O40   O     O_3   0.997358 0.910555 0.703360 -0.523998
C51   C     C_3   0.000674 0.001161 0.725268 0.067569
H48   H     H_    0.070494 0.038912 0.674472 0.225655
H49   H     H_    0.065487 0.014025 0.787335 0.078805
H50   H     H_    0.851436 0.026082 0.728522 0.138958
S4    S     S_3+6 0.380003 0.559360 0.775596 -0.029890
O41   O     O_2   0.468106 0.544168 0.860358 -0.334695
O42   O     O_2   0.213100 0.499539 0.764894 -0.341704
O43   O     O_3   0.545498 0.531551 0.704707 -0.532241
H51   H     H_    0.631068 0.582814 0.700708 0.287614
S5    S     S_3+6 0.180561 0.669902 0.932616 -0.023615
O44   O     O_2   0.325403 0.621846 0.986419 -0.319105
O45   O     O_2   0.078347 0.734484 0.988986 -0.427933
O46   O     O_3   0.023349 0.593082 0.903385 -0.514116
H52   H     H_    0.943214 0.582693 0.953711 0.347241

loop_
_geom_bond_atom_site_label_1
_geom_bond_atom_site_label_2
_ccdc_geom_bond_type
C50   H46   S    
C31   C32   A    
O19   C40   A    
O46   H52   S    
C11   S1    S    
O18   C39   A    
C30   C31   A    
O2    C1    A    
C43   H22   S    
S1    O24   S    
C33   C37   S    
C1    O6    A    
S2    O30   D    
C33   C34   A    
C43   H24   S    
C50   H44   S    
C20   H9    S    
C31   O33   S    
V4    O20   S    
C47   H35   S    
C45   H29   S    
O13   C40   A    
C32   O34   S    
C7    S3    S    
C17   C18   A    
S1    O23   D    
S4    O42   D    
O11   V4    S    
C19   C20   S    
S3    O39   S    
C10   C12   S    
O15   C39   A    
V2    O10   S    
C5    C6    S    
C32   C33   A    
C36   H14   S    
O14   V3    S    
C8    C12   S    
C25   C38   S    
V3    O20   S    
C15   C16   A    
C46   H31   S    
O8    V2    S    
O11   C38   A    
C27   H11   S    
C5    H1    S    
C48   H40   S    
C28   H12   S    
C11   O40   S    
C3    C17   S    
C10   C39   S    
O7    V1    S    
S5    O45   D    
C47   H37   S    
O12   V3    S    
C35   C36   S    
O9    C4    A    
O16   V4    S    
C41   H17   S    
O5    C3    A    
O28   C45   S    
C51   H49   S    
C29   C36   S    
C47   H36   S    
C51   H48   S    
C20   H10   S    
C45   H30   S    
C7    H6    S    
C8    C9    S    
S5    O46   S    
C41   H16   S    
C23   O27   S    
S4    O43   S    
O4    C2    A    
C41   H15   S    
C1    C22   S    
C34   C35   S    
C23   C24   A    
C24   O28   S    
C44   H27   S    
C13   C18   A    
C36   H13   S    
O14   C38   A    
C16   C17   A    
O12   C37   A    
C49   H42   S    
C21   C22   A    
C14   C40   S    
C18   C19   S    
C42   H20   S    
O27   C44   S    
C12   O21   S    
O15   V3    S    
C19   O26   S    
C44   H26   S    
C15   H7    S    
C7    C11   S    
S1    O22   D    
O33   C47   S    
O19   V4    S    
C46   H33   S    
S5    O44   D    
O3    C4    A    
O1    V2    S    
C16   O25   S    
C26   C27   S    
C6    H4    S    
O6    V2    S    
O9    V2    S    
C48   H38   S    
C49   H43   S    
O2    V1    S    
O17   V4    S    
C51   H50   S    
C22   C23   A    
S3    O37   D    
C42   H21   S    
C27   O29   S    
O35   C49   S    
C21   C26   A    
C50   H45   S    
C24   C25   A    
C35   O35   S    
O1    C2    A    
C13   C14   A    
C8    H5    S    
O40   C51   S    
C25   C26   A    
O5    V1    S    
S2    O31   D    
C29   C34   A    
C43   H23   S    
C21   C28   S    
C29   C30   A    
O36   C50   S    
C6    C10   S    
O13   V3    S    
C45   H28   S    
C35   O36   S    
C5    C9    S    
C14   C15   A    
C49   H41   S    
O7    V2    S    
O17   V3    S    
O3    V1    S    
V1    O10   S    
S4    O41   D    
C19   H8    S    
S3    O38   D    
C42   H19   S    
C37   O16   A    
C44   H25   S    
C5    H2    S    
C13   C20   S    
C7    C9    S    
C4    C9    S    
O26   C43   S    
C46   H32   S    
S2    O32   S    
C8    S4    S    
O21   C41   S    
O4    V1    S    
C6    H3    S    
O24   H18   S    
C27   C28   S    
O29   C46   S    
C10   C11   S    
C48   H39   S    
O18   V4    S    
O39   H47   S    
C12   S5    S    
O43   H51   S    
C2    C30   S    
C28   S2    S    
O25   C42   S    
O32   H34   S    
O8    C3    A    
O34   C48   S    
