data_mof_unit_47162.cif
_audit_creation_date              2012-12-10T18:47:49-0500
_audit_creation_method            fapswitch 2.2
_symmetry_space_group_name_H-M    P1
_symmetry_Int_Tables_number       1
_space_group_crystal_system       triclinic
_cell_length_a                    9.941192
_cell_length_b                    10.790747
_cell_length_c                    15.03523
_cell_angle_alpha                 92.501326
_cell_angle_beta                  71.590807
_cell_angle_gamma                 90.823941
_cell_volume                      1528.8759707

loop_
_atom_site_label
_atom_site_type_symbol
_atom_type_description
_atom_site_fract_x
_atom_site_fract_y
_atom_site_fract_z
_atom_type_partial_charge
C1    C     C_R   0.500588 0.739623 0.500159 0.944543
C2    C     C_R   0.404746 0.934005 0.467850 -0.205780
C3    C     C_R   0.488337 0.127725 0.514769 -0.192038
C4    C     C_R   0.497963 0.872451 0.504494 -0.187733
C5    C     C_R   0.952623 0.414106 0.446510 -0.175404
C6    C     C_R   0.047146 0.585842 0.553720 -0.186752
C7    C     C_R   0.096780 0.412657 0.447870 0.483957
C8    C     C_R   0.901733 0.584832 0.554715 0.494369
C9    C     C_R   0.413982 0.497990 0.677032 0.910691
C10   C     C_R   0.586190 0.496578 0.323629 0.844962
C11   C     C_R   0.370082 0.476583 0.779653 -0.252995
C12   C     C_R   0.496408 0.260418 0.505073 0.913599
C13   C     C_R   0.629186 0.467916 0.221801 -0.286611
C14   C     C_R   0.197091 0.488801 0.935357 0.452951
C15   C     C_R   0.769371 0.498719 0.058480 0.511267
C16   C     C_R   0.236264 0.514497 0.839827 0.318684
C17   C     C_R   0.729902 0.539206 0.154540 0.341767
C18   C     C_R   0.466082 0.423002 0.820124 -0.144311
C19   C     C_R   0.557449 0.370306 0.190208 -0.018772
C20   C     C_R   0.414699 0.373541 0.911327 -0.051201
C21   C     C_R   0.576051 0.353418 0.094654 -0.066518
C22   C     C_R   0.274146 0.402183 0.966757 -0.069805
C23   C     C_R   0.319073 0.336047 0.107115 0.401731
C24   C     C_R   0.706002 0.391836 0.032684 -0.152472
C25   C     C_R   0.503960 0.317125 0.956147 -0.111459
C26   C     C_R   0.464879 0.326205 0.055474 0.030881
C27   C     C_1   0.071880 0.345380 0.104119 0.279676
C28   C     C_1   0.897130 0.323618 0.887317 0.365213
C29   C     C_1   0.504800 0.265826 0.248111 0.385789
C30   C     C_1   0.616874 0.444362 0.777412 0.362209
C31   C     C_1   0.682399 0.133818 0.588407 0.224452
C32   C     C_1   0.334062 0.870871 0.407513 0.234659
C33   C     C_1   0.905670 0.325246 0.388280 0.257542
C34   C     C_R   0.645457 0.282169 0.908066 0.380724
C35   C     C_1   0.095095 0.678063 0.609132 0.266301
C36   C     C_R   0.222561 0.361682 0.059131 -0.089255
C37   C     C_R   0.749616 0.335480 0.941990 -0.008571
C38   C     C_R   0.578721 0.937377 0.552933 0.424038
C39   C     C_R   0.386654 0.060569 0.484900 0.437774
C40   C     C_R   0.582295 0.066538 0.551883 -0.207851
H1    H     H_    0.745130 0.669248 0.245507 0.338260
H2    H     H_    0.841736 0.717533 0.652114 0.329321
H3    H     H_    0.114336 0.534599 0.766074 0.361482
H4    H     H_    0.093750 0.642055 0.975909 0.386892
H5    H     H_    0.848683 0.658350 0.013452 0.382508
H6    H     H_    0.180111 0.368756 0.230197 0.339821
H7    H     H_    0.595149 0.177787 0.815561 0.338929
H8    H     H_    0.679517 0.926237 0.645637 0.341374
H9    H     H_    0.197304 0.061751 0.470970 0.335888
H10   H     H_    0.144421 0.255835 0.375723 0.345904
N1    N     N_R   0.142780 0.500030 0.500020 -0.119566
N2    N     N_1   0.132344 0.752895 0.653746 -0.147877
N3    N     N_R   0.857220 0.499970 0.499980 -0.118748
N4    N     N_1   0.951851 0.330556 0.140088 -0.200326
N5    N     N_1   0.014870 0.311448 0.842831 -0.221861
N6    N     N_1   0.464590 0.180202 0.292523 -0.140577
N7    N     N_1   0.737153 0.461891 0.743995 -0.157439
N8    N     N_1   0.763083 0.187216 0.616821 -0.143034
N9    N     N_1   0.277834 0.820752 0.359429 -0.171363
N10   N     N_1   0.868555 0.253188 0.341666 -0.189492
O1    O     O_R   0.385370 0.683250 0.500010 -0.635694
O2    O     O_3   0.148877 0.587842 0.809606 -0.731809
O3    O     O_3   0.096657 0.559323 0.001479 -0.713089
O4    O     O_3   0.845898 0.572739 0.987479 -0.726315
O5    O     O_3   0.274193 0.329039 0.203260 -0.757029
O6    O     O_3   0.683165 0.211404 0.825207 -0.760587
O7    O     O_3   0.653166 0.871705 0.599159 -0.702172
O8    O     O_3   0.275460 0.120871 0.468505 -0.701731
O9    O     O_3   0.193641 0.325113 0.397695 -0.661274
O10   O     O_3   0.801604 0.666422 0.610500 -0.674845
O11   O     O_R   0.614630 0.316750 0.499990 -0.636045
O12   O     O_R   0.614700 0.683220 0.500000 -0.517131
O13   O     O_R   0.385300 0.316780 0.500000 -0.506341
O14   O     O_R   0.319830 0.500020 0.632250 -0.619061
O15   O     O_R   0.680170 0.499980 0.367750 -0.610468
O16   O     O_R   0.549160 0.499990 0.632240 -0.579502
O17   O     O_R   0.450840 0.500010 0.367760 -0.559005
O18   O     O_3   0.792910 0.644753 0.178930 -0.745774
Zn1   Zn    Zn3+2 0.346870 0.500020 0.500000 1.046000
Zn2   Zn    Zn3+2 0.653130 0.499980 0.500000 1.041526

loop_
_geom_bond_atom_site_label_1
_geom_bond_atom_site_label_2
_ccdc_geom_bond_type
C21   C26   A    
C11   C18   A    
H9    O8    S    
C34   C37   A    
C39   O8    S    
C34   O6    S    
C27   N4    T    
C6    C35   S    
C31   N8    T    
C5    N3    A    
C19   C21   A    
H10   O9    S    
C20   C25   A    
C30   N7    T    
H2    O10   S    
C31   C40   S    
C2    C32   S    
C10   O15   A    
C23   C26   A    
C3    C12   S    
C2    C39   A    
C28   N5    T    
C5    C33   S    
C15   O4    S    
C18   C30   S    
C9    O16   A    
C6    N1    A    
O15   Zn2   S    
H7    O6    S    
C25   C34   A    
C3    C39   A    
C12   O13   A    
C16   O2    S    
O11   Zn2   S    
C10   O17   A    
O17   Zn1   S    
H4    O3    S    
C1    O12   A    
C13   C19   A    
N3    Zn2   S    
H6    O5    S    
H1    O18   S    
C5    C7    A    
C6    C8    A    
C25   C26   A    
C2    C4    A    
C11   C16   A    
C24   C37   A    
O13   Zn1   S    
C9    C11   S    
C15   C24   A    
C12   O11   A    
C4    C38   A    
C3    C40   A    
C33   N10   T    
O14   Zn1   S    
C14   C16   A    
C9    O14   A    
C19   C29   S    
C15   C17   A    
O16   Zn2   S    
C20   C22   A    
C10   C13   S    
C1    O1    A    
C8    N3    A    
C7    O9    S    
C29   N6    T    
C27   C36   S    
C22   C36   A    
H5    O4    S    
C8    O10   S    
C13   C17   A    
C1    C4    S    
C14   C22   A    
C7    N1    A    
O12   Zn2   S    
C38   C40   A    
C23   O5    S    
C28   C37   S    
O1    Zn1   S    
C14   O3    S    
C17   O18   S    
C18   C20   A    
H8    O7    S    
N1    Zn1   S    
C38   O7    S    
C23   C36   A    
C21   C24   A    
C35   N2    T    
C32   N9    T    
H3    O2    S    
