data_mof_unit_12476.cif
_audit_creation_date              2012-12-10T18:58:11-0500
_audit_creation_method            fapswitch 2.2
_symmetry_space_group_name_H-M    P1
_symmetry_Int_Tables_number       1
_space_group_crystal_system       triclinic
_cell_length_a                    10.737669
_cell_length_b                    10.103865
_cell_length_c                    15.721156
_cell_angle_alpha                 88.776261
_cell_angle_beta                  97.522471
_cell_angle_gamma                 91.466717
_cell_volume                      1690.10673035

loop_
_atom_site_label
_atom_site_type_symbol
_atom_type_description
_atom_site_fract_x
_atom_site_fract_y
_atom_site_fract_z
_atom_type_partial_charge
C1    C     C_R   0.873791 0.506332 0.489581 -0.255396
C2    C     C_R   0.480252 0.369683 0.955806 -0.069829
C3    C     C_R   0.446764 0.485054 0.907128 -0.042554
C4    C     C_R   0.458307 0.492677 0.083414 -0.029136
C5    C     C_1   0.465035 0.489635 0.819510 -0.096355
C6    C     C_1   0.473756 0.499409 0.174156 -0.107412
C7    C     C_1   0.487152 0.502253 0.250092 -0.105212
C8    C     C_1   0.482122 0.494203 0.746648 -0.121537
C9    C     C_R   0.574835 0.073372 0.563675 0.280713
C10   C     C_R   0.438029 0.930783 0.430914 0.327069
C11   C     C_R   0.427138 0.073223 0.435797 0.273024
C12   C     C_R   0.132030 0.494646 0.524849 -0.273500
C13   C     C_R   0.567729 0.928852 0.567677 0.284485
C14   C     C_R   0.061183 0.375941 0.510172 -0.070207
C15   C     C_R   0.944641 0.624413 0.511186 -0.075524
C16   C     C_R   0.933397 0.384704 0.481461 -0.032952
C17   C     C_R   0.073784 0.615881 0.535136 -0.046670
C18   C     C_2   0.369407 0.720399 0.077364 0.550027
C19   C     C_2   0.518721 0.250688 0.911872 0.580371
C20   C     C_2   0.380739 0.721311 0.889277 0.585014
C21   C     C_2   0.512286 0.252441 0.100447 0.586344
C22   C     C_2   0.120129 0.245227 0.531696 0.631679
C23   C     C_R   0.262946 0.498128 0.509659 0.856153
C24   C     C_2   0.886351 0.757267 0.502841 0.645719
C25   C     C_2   0.863205 0.271890 0.436271 0.586193
C26   C     C_2   0.148898 0.730995 0.573971 0.571847
C27   C     C_R   0.738989 0.502202 0.494040 0.859883
C28   C     C_R   0.499088 0.501042 0.339680 0.898245
C29   C     C_R   0.498257 0.498542 0.660011 0.896091
C30   C     C_R   0.411497 0.601533 0.944552 -0.044163
C31   C     C_R   0.484386 0.373002 0.045458 -0.054238
C32   C     C_R   0.414525 0.604262 0.034144 -0.056866
H1    H     H_    0.777964 0.334332 0.698014 0.362828
H2    H     H_    0.825993 0.783835 0.444403 0.062082
H3    H     H_    0.809787 0.289334 0.373687 0.013784
H4    H     H_    0.214491 0.715660 0.631816 0.028515
H5    H     H_    0.273881 0.680531 0.286446 0.353426
H6    H     H_    0.218856 0.328259 0.304832 0.363832
H7    H     H_    0.736777 0.664038 0.703602 0.361479
H8    H     H_    0.414975 0.749345 0.139928 0.134551
H9    H     H_    0.472792 0.226441 0.848277 0.093538
H10   H     H_    0.332326 0.710420 0.824642 0.051276
H11   H     H_    0.566527 0.260807 0.163453 0.068442
H12   H     H_    0.187693 0.235415 0.589096 0.031295
N1    N     N_R   0.500000 0.857200 0.500000 -0.221029
N2    N     N_R   0.500000 0.142800 0.500000 -0.239027
O1    O     O_R   0.316770 0.614620 0.499990 -0.568336
O2    O     O_2   0.808384 0.095645 0.645919 -0.187620
O3    O     O_3   0.717887 0.319845 0.645417 -0.522655
O4    O     O_2   0.319005 0.925982 0.255667 -0.170983
O5    O     O_2   0.509891 0.815028 0.295448 -0.330156
O6    O     O_3   0.296305 0.719385 0.343931 -0.508270
O7    O     O_2   0.387833 0.160919 0.272967 -0.267849
O8    O     O_2   0.203312 0.073774 0.337077 -0.187064
O9    O     O_3   0.271898 0.309313 0.359980 -0.522065
O10   O     O_2   0.729330 0.913509 0.729272 -0.145364
O11   O     O_2   0.527018 0.808025 0.715669 -0.307248
O12   O     O_R   0.683230 0.385380 0.500010 -0.552891
O13   O     O_3   0.712581 0.707234 0.646854 -0.510517
O14   O     O_2   0.277493 0.780940 0.045204 -0.484789
O15   O     O_2   0.605524 0.182832 0.944199 -0.473562
O16   O     O_2   0.414467 0.832057 0.913636 -0.462698
O17   O     O_2   0.470058 0.143678 0.077558 -0.454776
O18   O     O_2   0.099372 0.150388 0.484855 -0.444850
O19   O     O_2   0.901771 0.835718 0.561508 -0.451578
O20   O     O_2   0.856309 0.162983 0.470652 -0.473745
O21   O     O_2   0.145200 0.839937 0.538664 -0.481987
O22   O     O_R   0.683230 0.614620 0.500010 -0.594638
O23   O     O_R   0.316770 0.385380 0.499990 -0.578168
O24   O     O_R   0.499980 0.614630 0.378020 -0.528834
O25   O     O_R   0.500020 0.385370 0.621980 -0.566819
O26   O     O_R   0.500020 0.614630 0.621980 -0.543862
O27   O     O_R   0.499980 0.385370 0.378020 -0.565505
O28   O     O_2   0.632530 0.133112 0.729348 -0.256154
S1    S     S_3+6 0.682534 0.157985 0.645281 0.141616
S2    S     S_3+6 0.390392 0.851107 0.328692 0.117595
S3    S     S_3+6 0.322620 0.156108 0.352045 0.138741
S4    S     S_3+6 0.634973 0.842703 0.666691 0.149160
Zn1   Zn    Zn3+2 0.500000 0.653120 0.500000 1.108796
Zn2   Zn    Zn3+2 0.500000 0.346880 0.500000 1.090784

loop_
_geom_bond_atom_site_label_1
_geom_bond_atom_site_label_2
_ccdc_geom_bond_type
N2    Zn2   S    
C23   O23   A    
O1    Zn1   S    
C20   C30   S    
C21   C31   S    
C12   C23   S    
C26   O21   D    
O26   Zn1   S    
O9    S3    S    
H1    O3    S    
O10   S4    D    
C18   H8    S    
C9    C13   A    
C27   O22   A    
C11   S3    S    
C21   H11   S    
C10   S2    S    
C22   H12   S    
H6    O9    S    
C12   C17   A    
O3    S1    S    
C1    C15   A    
O12   Zn2   S    
C29   O26   A    
O22   Zn1   S    
C2    C19   S    
C9    N2    A    
O2    S1    D    
C28   O27   A    
O13   S4    S    
O25   Zn2   S    
C23   O1    A    
O28   S1    D    
O5    S2    D    
C4    C6    S    
H5    O6    S    
C3    C5    S    
C24   H2    S    
C7    C28   S    
C2    C31   A    
C3    C30   A    
O7    S3    D    
O4    S2    D    
H7    O13   S    
C10   N1    A    
N1    Zn1   S    
C1    C16   A    
C8    C29   S    
C4    C32   A    
C24   O19   D    
C25   H3    S    
C18   O14   D    
C15   C24   S    
C12   C14   A    
O6    S2    S    
C14   C16   A    
C18   C32   S    
C17   C26   S    
C13   N1    A    
C26   H4    S    
C16   C25   S    
C15   C17   A    
C13   S4    S    
O24   Zn1   S    
O11   S4    D    
C28   O24   A    
C25   O20   D    
C11   N2    A    
C27   O12   A    
C5    C8    T    
C20   H10   S    
C6    C7    T    
O8    S3    D    
C2    C3    A    
C30   C32   A    
C14   C22   S    
C19   O15   D    
O27   Zn2   S    
C20   O16   D    
C21   O17   D    
C4    C31   A    
C10   C11   A    
C22   O18   D    
C1    C27   S    
O23   Zn2   S    
C9    S1    S    
C19   H9    S    
C29   O25   A    
