data_mof_unit_53549.cif
_audit_creation_date              2012-12-10T18:58:13-0500
_audit_creation_method            fapswitch 2.2
_symmetry_space_group_name_H-M    P1
_symmetry_Int_Tables_number       1
_space_group_crystal_system       triclinic
_cell_length_a                    11.054327
_cell_length_b                    10.83999
_cell_length_c                    9.561743
_cell_angle_alpha                 90.396758
_cell_angle_beta                  102.480682
_cell_angle_gamma                 90.20371
_cell_volume                      1118.65451154

loop_
_atom_site_label
_atom_site_type_symbol
_atom_type_description
_atom_site_fract_x
_atom_site_fract_y
_atom_site_fract_z
_atom_type_partial_charge
C1    C     C_R   0.497312 0.262489 0.498961 0.804894
C2    C     C_R   0.485297 0.129532 0.495939 -0.099627
C3    C     C_R   0.464329 0.063443 0.365861 -0.173822
C4    C     C_R   0.465390 0.934680 0.366574 -0.170155
C5    C     C_R   0.488148 0.870989 0.497400 -0.155762
C6    C     C_R   0.493975 0.938083 0.624005 0.079219
C7    C     C_3   0.585681 0.936583 0.764805 0.475370
C8    C     C_3   0.581200 0.077407 0.763551 -0.336982
C9    C     C_R   0.608390 0.509855 0.100727 0.251067
C10   C     C_R   0.394079 0.479247 0.047564 -0.034729
C11   C     C_R   0.394042 0.479473 0.899252 -0.024096
C12   C     C_R   0.262860 0.498605 0.441959 0.752005
C13   C     C_R   0.608581 0.508147 0.953457 0.240086
C14   C     C_3   0.700319 0.610779 0.969902 -0.434055
C15   C     C_3   0.697900 0.615182 0.127710 -0.456072
C16   C     C_R   0.498623 0.737703 0.499914 0.817119
C17   C     C_R   0.737062 0.498870 0.558129 0.861832
C18   C     C_2   0.128007 0.492323 0.409107 0.444916
C19   C     C_2   0.067177 0.490372 0.515816 -0.252710
C20   C     C_2   0.871887 0.498372 0.591311 -0.355668
C21   C     C_2   0.932795 0.481758 0.486500 -0.095491
C22   C     C_R   0.490816 0.065272 0.623028 -0.012627
Cu1   Cu    Cu3+1 0.499990 0.499980 0.640670 0.973594
Cu2   Cu    Cu3+1 0.500010 0.500020 0.359330 0.978427
H1    H     H_    0.883033 0.462961 0.377575 0.214144
H2    H     H_    0.668750 0.124711 0.754588 0.120120
H3    H     H_    0.307754 0.463400 0.080227 0.170164
H4    H     H_    0.307665 0.463694 0.823481 0.136819
H5    H     H_    0.790756 0.580171 0.949155 0.209787
H6    H     H_    0.661384 0.693873 0.911037 0.265726
H7    H     H_    0.788168 0.590085 0.197067 0.217871
H8    H     H_    0.656009 0.700997 0.160206 0.231875
H9    H     H_    0.116794 0.496890 0.626962 0.139230
H10   H     H_    0.921506 0.513959 0.701294 0.166710
H11   H     H_    0.452565 0.110664 0.264406 0.190743
H12   H     H_    0.453758 0.885719 0.265373 0.192378
N1    N     N_R   0.500780 0.500930 0.148120 -0.193196
N2    N     N_R   0.500790 0.500890 0.852210 -0.182829
O1    O     O_R   0.500000 0.319640 0.618810 -0.582131
O2    O     O_R   0.500010 0.319680 0.381230 -0.579716
O3    O     O_R   0.320680 0.500000 0.575130 -0.625287
O4    O     O_R   0.320690 0.500040 0.337550 -0.551138
O5    O     O_R   0.499990 0.680320 0.618770 -0.549438
O6    O     O_R   0.500000 0.680360 0.381190 -0.582041
O7    O     O_R   0.679310 0.499960 0.662450 -0.584349
O8    O     O_R   0.679320 0.500000 0.424870 -0.586727
F1    F     F_    0.065973 0.486972 0.269638 -0.675051
F2    F     F_    0.536854 0.882588 0.871621 -0.667202
C23   C     C_1   0.707783 0.887139 0.755675 0.175647
N3    N     N_1   0.803579 0.848221 0.748302 -0.282024
C24   C     C_1   0.523348 0.131802 0.874473 0.440388
N4    N     N_1   0.477990 0.174552 0.961733 -0.307206

loop_
_geom_bond_atom_site_label_1
_geom_bond_atom_site_label_2
_ccdc_geom_bond_type
C10   H3    S    
C2    C22   A    
C11   N2    A    
C8    C22   S    
Cu1   Cu2   S    
C4    H12   S    
C15   H7    S    
C12   O3    A    
Cu1   O7    S    
Cu1   N2    S    
Cu2   O4    S    
C16   O6    A    
C8    C24   S    
C3    H11   S    
Cu2   O8    S    
C7    F2    S    
C20   C21   D    
C9    N1    A    
Cu2   N1    S    
C9    C15   S    
C20   H10   S    
C15   H8    S    
C13   C14   S    
C18   F1    S    
C16   O5    A    
C13   N2    A    
C6    C7    S    
C11   H4    S    
C14   H6    S    
C10   N1    A    
Cu1   O1    S    
C19   C21   S    
C17   O7    A    
C18   C19   D    
C2    C3    A    
C5    C6    A    
Cu2   O6    S    
C10   C11   A    
C1    O1    A    
C14   H5    S    
C12   O4    A    
C3    C4    A    
C6    C22   A    
C7    C8    S    
C17   C20   S    
C8    H2    S    
C17   O8    A    
C7    C23   S    
C1    C2    S    
C19   H9    S    
C12   C18   S    
C23   N3    T    
C21   H1    S    
C14   C15   S    
C5    C16   S    
C9    C13   A    
C1    O2    A    
Cu2   O2    S    
Cu1   O5    S    
C24   N4    T    
C4    C5    A    
Cu1   O3    S    
