data_mof_unit_42976.cif
_audit_creation_date              2012-10-26T18:34:23-0400
_audit_creation_method            fapswitch 2.2
_symmetry_space_group_name_H-M    P1
_symmetry_Int_Tables_number       1
_space_group_crystal_system       triclinic
_cell_length_a                    10.799543
_cell_length_b                    9.538266
_cell_length_c                    9.118319
_cell_angle_alpha                 90.049988
_cell_angle_beta                  89.221164
_cell_angle_gamma                 89.634041
_cell_volume                      939.161770321

loop_
_atom_site_label
_atom_site_type_symbol
_atom_type_description
_atom_site_fract_x
_atom_site_fract_y
_atom_site_fract_z
_atom_type_partial_charge
C1    C     C_R   0.262625 0.500466 0.500086 0.542054
C2    C     C_R   0.063144 0.532264 0.631717 0.000922
C3    C     C_R   0.871514 0.498768 0.499931 0.015766
C4    C     C_R   0.128486 0.501231 0.500066 0.015774
C5    C     C_R   0.561562 0.073728 0.393008 0.009144
C6    C     C_R   0.438438 0.926272 0.606992 0.009146
C7    C     C_R   0.438121 0.074877 0.606781 0.013988
C8    C     C_R   0.561879 0.925123 0.393219 0.013989
C9    C     C_3   0.143060 0.448153 0.226815 -0.274902
C10   C     C_3   0.176771 0.588880 0.158199 -0.443184
C11   C     C_3   0.856939 0.551789 0.773192 -0.274913
C12   C     C_R   0.737375 0.499534 0.499911 0.542066
C13   C     C_3   0.823245 0.411042 0.841771 -0.443177
C14   C     C_3   0.866475 0.431014 0.229740 -0.264890
C15   C     C_3   0.854636 0.272042 0.213516 -0.432912
C16   C     C_3   0.133520 0.569018 0.770247 -0.264901
C17   C     C_3   0.145299 0.727994 0.786472 -0.432930
C18   C     C_R   0.500268 0.499952 0.220561 0.541068
C19   C     C_R   0.499733 0.500048 0.779439 0.541064
C20   C     C_1   0.500196 0.499918 0.065450 -0.083253
C21   C     C_1   0.499806 0.500082 0.934549 -0.083255
C22   C     C_R   0.067371 0.469801 0.368099 0.004773
C23   C     C_R   0.932629 0.530185 0.631900 0.004771
C24   C     C_R   0.936856 0.467742 0.368277 0.000912
Cu1   Cu    Cu3+1 0.500000 0.640660 0.500000 0.914602
Cu2   Cu    Cu3+1 0.500000 0.359340 0.500000 0.914599
H1    H     H_    0.610283 0.128900 0.306657 0.105193
H2    H     H_    0.761034 0.429024 0.937641 0.133735
H3    H     H_    0.908077 0.355482 0.878233 0.141306
H4    H     H_    0.774106 0.343477 0.762824 0.185255
H5    H     H_    0.904821 0.615904 0.855656 0.131665
H6    H     H_    0.771177 0.612572 0.752390 0.169664
H7    H     H_    0.946050 0.222291 0.191358 0.138248
H8    H     H_    0.815391 0.225804 0.315432 0.171354
H9    H     H_    0.792223 0.246954 0.121616 0.127973
H10   H     H_    0.772370 0.478072 0.230053 0.147551
H11   H     H_    0.911088 0.477426 0.131265 0.133052
H12   H     H_    0.389717 0.871100 0.693343 0.105193
H13   H     H_    0.207617 0.753117 0.878463 0.127965
H14   H     H_    0.053846 0.777717 0.808496 0.138294
H15   H     H_    0.184633 0.774230 0.684598 0.171341
H16   H     H_    0.088927 0.522580 0.868719 0.133050
H17   H     H_    0.227643 0.522012 0.769932 0.147563
H18   H     H_    0.388210 0.131029 0.692303 0.110989
H19   H     H_    0.611790 0.868971 0.307697 0.110988
H20   H     H_    0.091939 0.644461 0.121764 0.141312
H21   H     H_    0.225956 0.656439 0.237117 0.185257
H22   H     H_    0.238951 0.570864 0.062303 0.133717
H23   H     H_    0.228817 0.387363 0.247636 0.169675
H24   H     H_    0.095170 0.384021 0.144370 0.131668
N1    N     N_R   0.500000 0.852070 0.500000 -0.223256
N2    N     N_R   0.500000 0.147930 0.500000 -0.223257
O1    O     O_R   0.319640 0.618740 0.499990 -0.504130
O2    O     O_R   0.680360 0.381260 0.500010 -0.504130
O3    O     O_R   0.680360 0.618740 0.500010 -0.506214
O4    O     O_R   0.319640 0.381260 0.499990 -0.506217
O5    O     O_R   0.500000 0.618760 0.288390 -0.502874
O6    O     O_R   0.500000 0.381240 0.711610 -0.502866
O7    O     O_R   0.500000 0.618760 0.711610 -0.502695
O8    O     O_R   0.500000 0.381240 0.288390 -0.502692

loop_
_geom_bond_atom_site_label_1
_geom_bond_atom_site_label_2
_ccdc_geom_bond_type
C10   H20   S    
C5    C8    A    
C2    C4    A    
Cu1   N1    S    
C13   H2    S    
C6    C7    A    
Cu2   N2    S    
C6    N1    A    
C2    C16   S    
C9    C10   S    
C18   O5    A    
C3    C23   A    
C8    N1    A    
C7    N2    A    
C1    C4    S    
C6    H12   S    
C4    C22   A    
C11   H5    S    
C5    N2    A    
C7    H18   S    
C14   H11   S    
C14   H10   S    
C11   C13   S    
C16   H17   S    
C3    C24   A    
Cu1   O5    S    
Cu2   O2    S    
C18   O8    A    
C19   C21   S    
C1    O4    A    
Cu1   O1    S    
C11   H6    S    
C18   C20   S    
Cu1   O3    S    
C19   O6    A    
C10   H22   S    
C22   C24   A    
C9    C22   S    
C12   O3    A    
C14   C24   S    
C15   H8    S    
C16   H16   S    
C13   H4    S    
C2    C23   A    
C9    H23   S    
C20   C21   T    
C11   C23   S    
C17   H13   S    
C13   H3    S    
C10   H21   S    
C15   H9    S    
C1    O1    A    
C14   C15   S    
C3    C12   S    
Cu1   O7    S    
C17   H15   S    
C19   O7    A    
Cu1   Cu2   S    
C5    H1    S    
Cu2   O8    S    
Cu2   O6    S    
C12   O2    A    
C9    H24   S    
C8    H19   S    
C15   H7    S    
C16   C17   S    
C17   H14   S    
Cu2   O4    S    
