data_mof_unit_47588.cif
_audit_creation_date              2012-12-11T14:48:15-0500
_audit_creation_method            fapswitch 2.2
_symmetry_space_group_name_H-M    P1
_symmetry_Int_Tables_number       1
_space_group_crystal_system       triclinic
_cell_length_a                    11.545418
_cell_length_b                    11.49229
_cell_length_c                    19.510364
_cell_angle_alpha                 90.330725
_cell_angle_beta                  89.78715
_cell_angle_gamma                 59.766919
_cell_volume                      2236.49244107

loop_
_atom_site_label
_atom_site_type_symbol
_atom_type_description
_atom_site_fract_x
_atom_site_fract_y
_atom_site_fract_z
_atom_type_partial_charge
C1    C     C_R   0.640403 0.117918 0.599175 0.540169
C2    C     C_1   0.652367 0.150441 0.668596 0.007826
C3    C     C_R   0.585979 0.625610 0.306253 0.170950
C4    C     C_R   0.612523 0.745628 0.598525 0.540495
C5    C     C_R   0.581418 0.623084 0.236058 -0.146111
C6    C     C_R   0.663822 0.653521 0.196068 -0.020984
C7    C     C_R   0.750400 0.688896 0.226328 -0.108331
C8    C     C_R   0.754731 0.695816 0.297560 0.213296
C9    C     C_R   0.663090 0.674005 0.336769 0.056625
C10   C     C_R   0.067297 0.263174 0.316758 0.201669
C11   C     C_R   0.029092 0.285159 0.247271 0.208634
C12   C     C_1   0.640992 0.703626 0.667918 0.010872
C13   C     C_R   0.123420 0.207293 0.196029 0.035856
C14   C     C_R   0.247336 0.097681 0.213015 -0.223189
C15   C     C_R   0.281695 0.070719 0.281480 -0.195978
C16   C     C_R   0.298627 0.119693 0.605314 0.549625
C17   C     C_R   0.193514 0.155360 0.332785 0.039362
C18   C     C_R   0.801245 0.096506 0.310927 -0.158325
C19   C     C_R   0.824400 0.125255 0.245229 -0.141986
C20   C     C_R   0.718502 0.223104 0.206526 -0.007013
C21   C     C_R   0.591845 0.300850 0.236374 -0.133198
C22   C     C_R   0.565377 0.270982 0.302216 0.274307
C23   C     C_1   0.147553 0.188185 0.863315 0.002476
C24   C     C_R   0.671689 0.165012 0.339073 0.052808
C25   C     C_R   0.084805 0.229651 0.929359 0.543552
C26   C     C_R   0.683687 0.605223 0.929618 0.542581
C27   C     C_R   0.708154 0.206493 0.930219 0.554438
C28   C     C_R   0.645294 0.114404 0.402638 0.569446
C29   C     C_R   0.083344 0.235690 0.125161 0.580700
C30   C     C_R   0.681894 0.611809 0.125635 0.566964
C31   C     C_R   0.741400 0.237824 0.134301 0.591079
C32   C     C_R   0.620016 0.735527 0.403601 0.598063
C33   C     C_R   0.244396 0.139753 0.401535 0.614092
C34   C     C_1   0.228697 0.144134 0.735722 -0.028446
C35   C     C_1   0.670331 0.647479 0.860246 0.006334
C36   C     C_1   0.654549 0.683833 0.728423 -0.029289
C37   C     C_1   0.663334 0.667452 0.799729 -0.030296
C38   C     C_3   0.334957 0.369572 0.287357 -0.116973
C39   C     C_3   0.967074 0.672089 0.302038 -0.111776
C40   C     C_1   0.189007 0.163678 0.805217 -0.028325
C41   C     C_1   0.259757 0.132066 0.676003 0.003193
C42   C     C_1   0.678403 0.190939 0.860914 0.003290
C43   C     C_1   0.657863 0.167742 0.729068 -0.029239
C44   C     C_1   0.665228 0.180886 0.800439 -0.030196
Cr1   Cr    Cr6+3 0.404720 0.198220 0.499960 1.085997
Cr2   Cr    Cr6+3 0.698290 0.897110 0.500380 1.070671
Cr3   Cr    Cr6+3 0.396970 0.904720 0.499610 1.067279
Cr4   Cr    Cr6+3 0.926180 0.152240 0.028110 1.033379
Cr5   Cr    Cr6+3 0.921340 0.452070 0.027460 1.043314
Cr6   Cr    Cr6+3 0.626260 0.447120 0.028700 1.027908
H1    H     H_    0.924529 0.067533 0.223647 0.146299
H2    H     H_    0.360131 0.280081 0.254593 0.116394
H3    H     H_    0.307346 0.459495 0.255509 0.090292
H4    H     H_    0.035795 0.672002 0.341648 0.152973
H5    H     H_    0.972897 0.728554 0.257428 0.112136
H6    H     H_    0.003740 0.565109 0.287631 0.120997
H7    H     H_    0.919908 0.433037 0.350915 0.334840
H8    H     H_    0.838023 0.384042 0.264617 0.326350
H9    H     H_    0.512640 0.381258 0.207454 0.114591
H10   H     H_    0.517640 0.589945 0.213090 0.133221
H11   H     H_    0.814863 0.709324 0.194381 0.130105
H12   H     H_    0.317453 0.034567 0.173486 0.125621
H13   H     H_    0.380165 0.988097 0.294447 0.135349
H14   H     H_    0.883886 0.016409 0.338576 0.156407
H15   H     H_    0.454137 0.567588 0.316166 0.340022
H16   H     H_    0.244996 0.392087 0.318059 0.163386
O1    O     O_R   0.267740 0.231990 0.575440 -0.488883
O2    O     O_R   0.596140 0.579600 0.952720 -0.505667
O3    O     O_R   0.639070 0.321380 0.958660 -0.489421
O4    O     O_R   0.527280 0.186680 0.570530 -0.511530
O5    O     O_R   0.821240 0.124490 0.104360 -0.515232
O6    O     O_R   0.036900 0.167320 0.097830 -0.513748
O7    O     O_R   0.056190 0.349890 0.102870 -0.490981
O8    O     O_R   0.797670 0.565150 0.097930 -0.475309
O9    O     O_R   0.595880 0.584540 0.104260 -0.536719
O10   O     O_R   0.638830 0.325960 0.099140 -0.508005
O11   O     O_3   0.824590 0.350480 0.028090 -0.266214
O12   O     O_R   0.685970 0.784630 0.430010 -0.453861
O13   O     O_R   0.728090 0.003480 0.576380 -0.502502
O14   O     O_R   0.682970 0.789220 0.570490 -0.497640
O15   O     O_R   0.499290 0.771920 0.575530 -0.507213
O16   O     O_R   0.285330 0.030900 0.569730 -0.484737
O17   O     O_R   0.270980 0.227040 0.423900 -0.474191
O18   O     O_R   0.530280 0.182090 0.430050 -0.443112
O19   O     O_R   0.731330 0.998530 0.424830 -0.496048
O20   O     O_3   0.511889 0.586740 0.346035 -0.648327
O21   O     O_3   0.439346 0.346380 0.332791 -0.534886
O22   O     O_3   0.835555 0.737645 0.329479 -0.534507
O23   O     O_R   0.502530 0.766960 0.423990 -0.459201
O24   O     O_3   0.986234 0.344463 0.369525 -0.693134
O25   O     O_3   0.900376 0.377308 0.227786 -0.720052
O26   O     O_R   0.288330 0.026310 0.429250 -0.503321
O27   O     O_3   0.499990 0.000020 0.499980 -0.309901
O28   O     O_R   0.821500 0.119550 0.952820 -0.501833
O29   O     O_R   0.037130 0.162750 0.957360 -0.497115
O30   O     O_R   0.056440 0.344950 0.951330 -0.507165
O31   O     O_R   0.797900 0.560570 0.957460 -0.496123

loop_
_geom_bond_atom_site_label_1
_geom_bond_atom_site_label_2
_ccdc_geom_bond_type
C11   O25   S    
Cr4   O29   S    
C28   O18   A    
Cr3   O26   S    
C19   C20   A    
Cr1   O27   S    
C7    C8    A    
Cr2   O27   S    
C17   C33   S    
C34   C40   S    
C13   C29   S    
C36   C37   S    
C35   C37   T    
Cr6   O3    S    
C21   H9    S    
C5    C6    A    
C30   O8    A    
C39   H4    S    
C29   O7    A    
C10   C17   A    
C23   C40   T    
C14   H12   S    
C18   C19   A    
Cr3   O16   S    
C7    H11   S    
C9    C32   S    
C39   H5    S    
C4    O15   A    
C38   H16   S    
C8    C9    A    
Cr1   O1    S    
C18   C24   A    
C12   C36   T    
H8    O25   S    
C27   O3    A    
C29   O6    A    
C31   O5    A    
C13   C14   A    
C3    O20   S    
Cr3   O23   S    
Cr1   O17   S    
C34   C41   T    
C42   C44   T    
C39   O22   S    
Cr4   O6    S    
H7    O24   S    
H15   O20   S    
C33   O26   A    
Cr2   O12   S    
Cr5   O31   S    
C8    O22   S    
Cr4   O11   S    
C43   C44   S    
C3    C9    A    
Cr6   O10   S    
C32   O23   A    
C2    C43   T    
C16   O16   A    
Cr3   O27   S    
C16   O1    A    
C22   O21   S    
C33   O17   A    
Cr4   O28   S    
C6    C30   S    
C25   O29   A    
C1    O13   A    
Cr5   O7    S    
Cr1   O18   S    
C4    C12   S    
Cr4   O5    S    
C39   H6    S    
Cr6   O11   S    
C15   C17   A    
C5    H10   S    
Cr1   O4    S    
C14   C15   A    
C24   C28   S    
C3    C5    A    
C4    O14   A    
C6    C7    A    
C1    O4    A    
C38   O21   S    
C26   O2    A    
Cr2   O19   S    
Cr6   O9    S    
Cr2   O14   S    
C30   O9    A    
C11   C13   A    
C27   C42   S    
C18   H14   S    
C31   O10   A    
Cr2   O13   S    
C38   H3    S    
C1    C2    S    
Cr5   O11   S    
C22   C24   A    
Cr3   O15   S    
Cr5   O30   S    
C10   C11   A    
C26   O31   A    
C32   O12   A    
C19   H1    S    
C26   C35   S    
C23   C25   S    
C38   H2    S    
C20   C21   A    
C10   O24   S    
C25   O30   A    
C28   O19   A    
C15   H13   S    
Cr5   O8    S    
C27   O28   A    
C21   C22   A    
Cr6   O2    S    
C16   C41   S    
C20   C31   S    
