data_mof_unit_54234.cif
_audit_creation_date              2012-10-26T19:48:06-0400
_audit_creation_method            fapswitch 2.2
_symmetry_space_group_name_H-M    P1
_symmetry_Int_Tables_number       1
_space_group_crystal_system       triclinic
_cell_length_a                    10.728052
_cell_length_b                    9.555111
_cell_length_c                    10.631957
_cell_angle_alpha                 89.551046
_cell_angle_beta                  90.179177
_cell_angle_gamma                 89.690676
_cell_volume                      1089.80293846

loop_
_atom_site_label
_atom_site_type_symbol
_atom_type_description
_atom_site_fract_x
_atom_site_fract_y
_atom_site_fract_z
_atom_type_partial_charge
Br1   Br    Br    0.717151 0.160861 0.667635 -0.528395
Br2   Br    Br    0.707832 0.836210 0.676979 -0.535473
C1    C     C_R   0.260302 0.500242 0.495423 0.575721
C2    C     C_3   0.928824 0.360321 0.437335 -0.243792
C3    C     C_3   0.629267 0.082671 0.518883 0.141292
C4    C     C_3   0.628541 0.914875 0.523013 0.149330
C5    C     C_3   0.427778 0.083010 0.611985 0.149475
C6    C     C_3   0.421996 0.916807 0.607358 0.141071
C7    C     C_3   0.446978 0.083492 0.385548 -0.129523
C8    C     C_3   0.456613 0.918836 0.381461 -0.151213
C9    C     C_R   0.498700 0.500572 0.259865 0.553404
C10   C     C_R   0.739455 0.499655 0.495281 0.564993
C11   C     C_R   0.500131 0.499360 0.739999 0.583903
C12   C     C_3   0.498519 0.501505 0.122951 0.084208
C13   C     C_3   0.485891 0.629262 0.036520 0.097763
C14   C     C_3   0.405603 0.424205 0.040112 0.080016
C15   C     C_3   0.389479 0.553696 0.954495 -0.132262
C16   C     C_3   0.499514 0.497970 0.876361 0.007940
C17   C     C_3   0.595349 0.577301 0.956495 -0.094679
C18   C     C_3   0.512360 0.365896 0.959856 -0.085989
C19   C     C_3   0.607380 0.445846 0.042957 -0.155146
C20   C     C_3   0.070309 0.620785 0.404847 -0.039587
C21   C     C_3   0.071319 0.524937 0.627711 -0.052560
C22   C     C_3   0.925878 0.621493 0.409110 -0.203615
C23   C     C_3   0.927350 0.515876 0.628145 -0.227415
C24   C     C_3   0.071886 0.359032 0.440520 -0.209594
C25   C     C_3   0.121906 0.500390 0.491929 0.111530
C26   C     C_3   0.877538 0.499231 0.492432 0.015991
Cu1   Cu    Cu3+1 0.499860 0.642410 0.500060 0.928527
Cu2   Cu    Cu3+1 0.499860 0.357590 0.500060 0.953464
H1    H     H_    0.300644 0.597630 0.917162 0.108114
H2    H     H_    0.496818 0.126050 0.302400 0.130880
H3    H     H_    0.522814 0.889960 0.305560 0.140856
H4    H     H_    0.673024 0.641963 0.919854 0.163395
H5    H     H_    0.521313 0.256656 0.926055 0.148827
H6    H     H_    0.695948 0.402203 0.081203 0.112975
H7    H     H_    0.102419 0.723412 0.440768 0.121143
H8    H     H_    0.097361 0.632908 0.656054 0.139965
H9    H     H_    0.893820 0.723482 0.447601 0.134869
H10   H     H_    0.888799 0.612298 0.671075 0.161942
H11   H     H_    0.885454 0.612953 0.312881 0.135855
H12   H     H_    0.895595 0.347892 0.338768 0.119218
H13   H     H_    0.894863 0.426701 0.687234 0.166866
H14   H     H_    0.108274 0.340097 0.344225 0.147840
H15   H     H_    0.104235 0.269543 0.499623 0.158225
H16   H     H_    0.313814 0.238765 0.675674 0.267132
H17   H     H_    0.249578 0.089625 0.688091 0.221899
H18   H     H_    0.280598 0.778601 0.659673 0.252121
H19   H     H_    0.253224 0.864736 0.516306 0.250654
H20   H     H_    0.469932 0.836873 0.998174 0.236238
H21   H     H_    0.384544 0.781771 0.120466 0.215003
H22   H     H_    0.254834 0.301578 0.010139 0.227541
H23   H     H_    0.895067 0.268780 0.491991 0.174235
H24   H     H_    0.243130 0.405435 0.135936 0.239826
H25   H     H_    0.210250 0.620015 0.272682 0.230864
H26   H     H_    0.076863 0.689007 0.221333 0.224715
H27   H     H_    0.102516 0.460723 0.810021 0.225567
H28   H     H_    0.090249 0.327590 0.708573 0.247029
H29   H     H_    0.686687 0.115561 0.436932 0.103393
H30   H     H_    0.690243 0.878413 0.445845 0.113285
H31   H     H_    0.477040 0.107491 0.701393 0.149369
H32   H     H_    0.460316 0.879582 0.699025 0.169699
H33   H     H_    0.347818 0.116278 0.375217 0.163087
H34   H     H_    0.366692 0.873060 0.351508 0.121630
N1    N     N_3   0.500250 0.143650 0.502780 -0.228280
N2    N     N_3   0.500250 0.856350 0.502780 -0.237014
N3    N     N_3   0.303437 0.146933 0.624539 -0.588998
N4    N     N_3   0.292246 0.869384 0.605751 -0.649966
N5    N     N_3   0.472168 0.773109 0.078475 -0.628371
N6    N     N_3   0.303823 0.339035 0.087918 -0.637337
N7    N     N_3   0.113699 0.606073 0.274724 -0.669444
N8    N     N_3   0.127168 0.427735 0.719832 -0.666078
O1    O     O_R   0.317570 0.620260 0.500070 -0.539447
O2    O     O_R   0.317570 0.379740 0.500070 -0.485247
O3    O     O_R   0.499850 0.620240 0.316900 -0.508795
O4    O     O_R   0.499850 0.379760 0.316900 -0.512516
O5    O     O_R   0.682190 0.620260 0.500030 -0.479791
O6    O     O_R   0.682190 0.379740 0.500030 -0.476124
O7    O     O_R   0.499910 0.620280 0.683200 -0.477832
O8    O     O_R   0.499910 0.379720 0.683200 -0.488401

loop_
_geom_bond_atom_site_label_1
_geom_bond_atom_site_label_2
_ccdc_geom_bond_type
C11   O7    A    
C6    N2    S    
H19   N4    S    
C2    H23   S    
C23   H13   S    
C24   H14   S    
C5    C6    S    
C19   H6    S    
C23   C26   S    
C13   C17   S    
C24   C25   S    
C11   C16   S    
C10   C26   S    
Br1   C3    S    
C12   C19   S    
C17   C19   S    
H20   N5    S    
C9    O4    A    
C23   H10   S    
C3    C4    S    
Cu2   O2    S    
C9    C12   S    
Cu1   O1    S    
C22   H9    S    
C16   C17   S    
C1    O2    A    
C5    H31   S    
C7    H2    S    
C18   H5    S    
C14   C15   S    
Cu1   O7    S    
C21   C25   S    
C7    C8    S    
C16   C18   S    
C24   H15   S    
Cu2   O8    S    
C11   O8    A    
C22   H11   S    
Br2   C4    S    
H17   N3    S    
C2    C26   S    
C8    N2    S    
C13   N5    S    
C3    H29   S    
C4    H30   S    
C14   N6    S    
C3    N1    S    
C20   H7    S    
C10   O6    A    
Cu1   Cu2   S    
C5    N1    S    
Cu2   O4    S    
H24   N6    S    
C14   C18   S    
H26   N7    S    
C10   O5    A    
C15   C16   S    
H18   N4    S    
C6    N4    S    
C20   C25   S    
C15   H1    S    
C12   C14   S    
C20   N7    S    
C13   C15   S    
C7    H33   S    
C21   N8    S    
C8    H34   S    
C22   C26   S    
C17   H4    S    
C2    C24   S    
Cu1   O3    S    
C21   H8    S    
C1    C25   S    
H16   N3    S    
C9    O3    A    
H28   N8    S    
C2    H12   S    
C8    H3    S    
C20   C22   S    
C21   C23   S    
H27   N8    S    
C1    O1    A    
C7    N1    S    
Cu2   N1    S    
H22   N6    S    
C5    N3    S    
Cu1   N2    S    
Cu2   O6    S    
C4    N2    S    
Cu1   O5    S    
C18   C19   S    
C12   C13   S    
H21   N5    S    
H25   N7    S    
C6    H32   S    
