data_mof_unit_12023.cif
_audit_creation_date              2012-12-10T17:47:42-0500
_audit_creation_method            fapswitch 2.2
_symmetry_space_group_name_H-M    P1
_symmetry_Int_Tables_number       1
_space_group_crystal_system       triclinic
_cell_length_a                    10.787462
_cell_length_b                    10.704413
_cell_length_c                    9.929451
_cell_angle_alpha                 88.700775
_cell_angle_beta                  88.282694
_cell_angle_gamma                 92.817551
_cell_volume                      1144.35262935

loop_
_atom_site_label
_atom_site_type_symbol
_atom_type_description
_atom_site_fract_x
_atom_site_fract_y
_atom_site_fract_z
_atom_type_partial_charge
C1    C     C_R   0.513942 0.261212 0.503384 0.946507
C2    C     C_3   0.876441 0.494304 0.501104 -0.100420
C3    C     C_3   0.926641 0.621145 0.553628 -0.393806
C4    C     C_3   0.930664 0.481507 0.355838 -0.464849
C5    C     C_R   0.473484 0.106768 0.764948 -0.168867
C6    C     C_R   0.416107 0.037630 0.870994 -0.262988
C7    C     C_R   0.365742 0.918494 0.851603 0.458834
C8    C     C_R   0.375457 0.867495 0.723707 -0.179924
C9    C     C_R   0.446456 0.931978 0.618005 0.007483
C10   C     C_R   0.482614 0.057957 0.633626 0.110233
C11   C     C_R   0.528514 0.127832 0.516991 -0.106694
C12   C     C_R   0.256983 0.497941 0.501846 0.995984
C13   C     C_R   0.575910 0.066984 0.406222 -0.174588
C14   C     C_R   0.557823 0.939595 0.398437 -0.174476
C15   C     C_R   0.490547 0.872644 0.501074 -0.093549
C16   C     C_R   0.333296 0.331652 0.141383 0.014247
C17   C     C_R   0.220810 0.300309 0.080745 -0.236149
C18   C     C_R   0.220934 0.299280 0.941113 -0.167539
C19   C     C_R   0.320302 0.355388 0.866971 -0.118191
C20   C     C_R   0.411882 0.427785 0.931020 0.182063
C21   C     C_R   0.413832 0.423843 0.075010 0.142478
C22   C     C_R   0.582073 0.573225 0.067122 -0.019595
C23   C     C_R   0.493682 0.739444 0.499423 0.901930
C24   C     C_R   0.582815 0.572238 0.924055 0.033273
C25   C     C_R   0.741331 0.496208 0.499113 0.860670
C26   C     C_3   0.060436 0.377249 0.583345 0.155302
C27   C     C_3   0.917115 0.380145 0.589129 0.237553
C28   C     C_3   0.070056 0.623252 0.570602 -0.196759
C29   C     C_3   0.072196 0.492271 0.356740 -0.315738
C30   C     C_3   0.118875 0.497704 0.504639 -0.164438
H1    H     H_    0.095683 0.376223 0.686215 0.186312
H2    H     H_    0.897952 0.556070 0.287334 0.222418
H3    H     H_    0.901169 0.695577 0.480526 0.190010
H4    H     H_    0.626783 0.118347 0.325647 0.216031
H5    H     H_    0.518155 0.193673 0.793118 0.230739
H6    H     H_    0.412383 0.076342 0.969658 0.198742
H7    H     H_    0.331491 0.776115 0.709624 0.182767
H8    H     H_    0.597806 0.893237 0.312709 0.194903
H9    H     H_    0.649208 0.632946 0.117136 0.137342
H10   H     H_    0.149791 0.242064 0.134413 0.224793
H11   H     H_    0.151184 0.244333 0.890662 0.234007
H12   H     H_    0.324001 0.338821 0.761519 0.220603
H13   H     H_    0.650563 0.631288 0.866818 0.159510
H14   H     H_    0.875921 0.295804 0.540456 0.142075
H15   H     H_    0.875799 0.643994 0.648216 0.237401
H16   H     H_    0.104841 0.576483 0.296145 0.254916
H17   H     H_    0.110096 0.412617 0.302691 0.237019
H18   H     H_    0.899333 0.389987 0.314165 0.221476
N1    N     N_R   0.498810 0.498800 0.142780 -0.117497
N2    N     N_R   0.498760 0.498720 0.857170 -0.120343
O1    O     O_R   0.500000 0.316780 0.614690 -0.639929
O2    O     O_R   0.499990 0.316750 0.385360 -0.600152
O3    O     O_R   0.314800 0.499990 0.614670 -0.633703
O4    O     O_R   0.314790 0.499970 0.385330 -0.575240
O5    O     O_R   0.500010 0.683250 0.614640 -0.641665
O6    O     O_R   0.500000 0.683220 0.385310 -0.581475
O7    O     O_R   0.685210 0.500030 0.614670 -0.557356
O8    O     O_R   0.685200 0.500010 0.385330 -0.645977
Zn1   Zn    Zn3+2 0.500010 0.500020 0.653130 1.016841
Zn2   Zn    Zn3+2 0.499990 0.499980 0.346870 1.032816
C31   C     C_2   0.127370 0.744015 0.502079 0.843304
O9    O     O_2   0.089027 0.845259 0.534346 -0.510539
O10   O     O_R   0.222265 0.741727 0.403365 -0.798438
H19   H     H_    0.248937 0.828188 0.366143 0.379865
S1    S     S_3+6 0.305846 0.830719 0.993459 0.020112
O11   O     O_2   0.288564 0.694840 0.961433 -0.264776
O12   O     O_2   0.394882 0.843672 0.106448 -0.325579
O13   O     O_3   0.168961 0.885512 0.043616 -0.515433
H20   H     H_    0.186951 0.975343 0.060471 0.366079
S2    S     S_3+6 0.102270 0.226820 0.521482 0.014195
O14   O     O_2   0.049650 0.127245 0.619234 -0.205618
O15   O     O_2   0.050219 0.202146 0.385439 -0.308338
O16   O     O_3   0.256026 0.217703 0.512996 -0.587424
H21   H     H_    0.268496 0.126714 0.514131 0.398905
C32   C     C_2   0.388955 0.215157 0.186179 0.925470
O17   O     O_2   0.496867 0.196924 0.154214 -0.660513
O18   O     O_R   0.315234 0.121106 0.253974 -0.769096
H22   H     H_    0.359829 0.041134 0.267832 0.362551
S3    S     S_3+6 0.858113 0.362413 0.763074 0.023255
O19   O     O_2   0.867721 0.484058 0.835362 -0.327830
O20   O     O_2   0.725438 0.313020 0.766908 -0.299387
O21   O     O_3   0.938181 0.256461 0.846140 -0.536453
H23   H     H_    0.905658 0.257194 0.940484 0.387582
C33   C     C_2   0.091945 0.637071 0.721741 0.944572
O22   O     O_2   0.148136 0.561496 0.786554 -0.579559
O23   O     O_R   0.042239 0.738014 0.788403 -0.719808
H24   H     H_    0.050839 0.731820 0.889544 0.407530

loop_
_geom_bond_atom_site_label_1
_geom_bond_atom_site_label_2
_ccdc_geom_bond_type
C8    C9    A    
C16   C21   A    
O5    Zn1   S    
C28   C33   S    
C16   C32   S    
O16   H21   S    
C19   C20   A    
C1    C11   S    
C21   N1    A    
O3    Zn1   S    
C7    C8    A    
O4    Zn2   S    
O18   H22   S    
C26   C27   S    
N1    Zn2   S    
C29   H17   S    
N2    Zn1   S    
C3    C28   S    
C33   O23   S    
C27   S3    S    
C5    C6    A    
O7    Zn1   S    
C7    S1    S    
C3    H3    S    
O8    Zn2   S    
C18   C19   A    
C31   O10   S    
C20   N2    A    
O2    Zn2   S    
C27   H14   S    
O13   H20   S    
S1    O12   D    
C2    C27   S    
C9    C10   A    
C12   O3    A    
C19   H12   S    
C28   C31   S    
C15   C23   S    
C26   H1    S    
C13   C14   A    
C25   O7    A    
C24   N2    A    
C23   O6    A    
C33   O22   D    
C18   H11   S    
S3    O20   D    
O23   H24   S    
C16   C17   A    
C3    H15   S    
O6    Zn2   S    
C17   H10   S    
C2    C4    S    
C32   O17   D    
C29   C30   S    
C14   H8    S    
C1    O1    A    
S1    O13   S    
S2    O16   S    
C17   C18   A    
C4    H2    S    
C32   O18   S    
S2    O14   D    
C22   N1    A    
C26   C30   S    
C26   S2    S    
C22   C24   A    
O1    Zn1   S    
C8    H7    S    
C4    H18   S    
C12   C30   S    
C4    C29   S    
O10   H19   S    
S3    O21   S    
C23   O5    A    
C6    C7    A    
C29   H16   S    
C28   C30   S    
C2    C3    S    
C9    C15   A    
C5    C10   A    
C11   C13   A    
C22   H9    S    
C5    H5    S    
C6    H6    S    
C2    C25   S    
S1    O11   D    
C31   O9    D    
C1    O2    A    
C10   C11   A    
S3    O19   D    
C13   H4    S    
C20   C21   A    
O21   H23   S    
C25   O8    A    
C24   H13   S    
C14   C15   A    
S2    O15   D    
C12   O4    A    
