data_mof_unit_6254.cif
_audit_creation_date              2012-12-10T17:21:15-0500
_audit_creation_method            fapswitch 2.2
_symmetry_space_group_name_H-M    P1
_symmetry_Int_Tables_number       1
_space_group_crystal_system       triclinic
_cell_length_a                    10.319028
_cell_length_b                    11.167609
_cell_length_c                    11.094153
_cell_angle_alpha                 89.85542
_cell_angle_beta                  95.535706
_cell_angle_gamma                 84.268293
_cell_volume                      1266.05778416

loop_
_atom_site_label
_atom_site_type_symbol
_atom_type_description
_atom_site_fract_x
_atom_site_fract_y
_atom_site_fract_z
_atom_type_partial_charge
C1    C     C_R   0.445443 0.509799 0.268295 0.791539
C2    C     C_2   0.924770 0.522298 0.493630 -0.084514
C3    C     C_R   0.493771 0.260450 0.494209 0.817615
C4    C     C_R   0.556743 0.482971 0.730168 0.906153
C5    C     C_R   0.499330 0.743004 0.491179 0.872231
C6    C     C_3   0.577942 0.071205 0.393012 -0.106696
C7    C     C_3   0.580967 0.928573 0.377566 -0.029228
C8    C     C_3   0.541247 0.078057 0.626982 0.136835
C9    C     C_3   0.335705 0.090454 0.452122 0.054195
C10   C     C_3   0.484077 0.126529 0.491832 -0.163266
C11   C     C_3   0.214260 0.887499 0.459984 -0.253359
C12   C     C_3   0.494577 0.883359 0.485988 -0.189998
C13   C     C_3   0.171364 0.801835 0.358412 -0.852533
C14   C     C_3   0.456061 0.145452 0.728145 -0.436767
C15   C     C_3   0.514430 0.148095 0.862376 -0.958089
C16   C     C_3   0.436699 0.893603 0.716947 -0.434808
C17   C     C_3   0.447799 0.763149 0.760832 -0.733207
C18   C     C_2   0.650894 0.550211 0.111753 0.991343
C19   C     C_3   0.737596 0.423676 0.909541 -0.350850
C20   C     C_3   0.841837 0.377815 0.827238 -0.881723
C21   C     C_2   0.286286 0.494664 0.082487 0.879243
C22   C     C_2   0.882096 0.630183 0.558770 1.027931
C23   C     C_3   0.535588 0.932532 0.625646 0.049003
C24   C     C_3   0.099867 0.488749 0.342916 -0.345740
C25   C     C_3   0.991185 0.470649 0.244843 -0.859977
C26   C     C_3   0.580674 0.150116 0.273941 -0.363102
C27   C     C_3   0.718857 0.162834 0.238623 -0.781320
C28   C     C_3   0.144790 0.546597 0.681970 -0.196689
C29   C     C_3   0.159341 0.418478 0.732155 -0.822383
C30   C     C_3   0.524502 0.891387 0.242940 -0.425069
C31   C     C_3   0.608624 0.897479 0.134298 -0.710771
C32   C     C_2   0.723359 0.868630 0.381299 1.084757
C33   C     C_3   0.683589 0.122719 0.672505 -0.334855
C34   C     C_3   0.345642 0.946727 0.443330 -0.131996
C35   C     C_3   0.813815 0.115204 0.612875 -0.847247
C36   C     C_2   0.667436 0.877368 0.682640 0.931888
C37   C     C_2   0.230164 0.141547 0.534670 0.911288
C38   C     C_3   0.283623 0.148210 0.322937 -0.389393
C39   C     C_3   0.141664 0.132999 0.272654 -0.835047
C40   C     C_2   0.419321 0.513487 0.135361 -0.252998
C41   C     C_2   0.519099 0.522989 0.063843 -0.049671
C42   C     C_2   0.596136 0.472379 0.859757 -0.014851
C43   C     C_2   0.500482 0.508254 0.932275 -0.303880
C44   C     C_2   0.066696 0.512851 0.471589 0.206207
H1    H     H_    0.671956 0.083472 0.437540 0.253229
H2    H     H_    0.569622 0.062253 0.894423 0.287899
H3    H     H_    0.580861 0.219800 0.876386 0.261134
H4    H     H_    0.434678 0.169406 0.921861 0.277610
H5    H     H_    0.432930 0.241443 0.705999 0.223739
H6    H     H_    0.361383 0.113322 0.734058 0.257474
H7    H     H_    0.356461 0.725001 0.730381 0.255685
H8    H     H_    0.532793 0.709959 0.728411 0.268797
H9    H     H_    0.458934 0.756817 0.861472 0.252123
H10   H     H_    0.450365 0.939650 0.803508 0.258792
H11   H     H_    0.335227 0.920748 0.684294 0.248293
H12   H     H_    0.401631 0.534294 0.892595 0.207375
H13   H     H_    0.793529 0.660139 0.103365 0.323024
H14   H     H_    0.806565 0.322772 0.753105 0.275179
H15   H     H_    0.885971 0.453854 0.789563 0.289320
H16   H     H_    0.922212 0.322522 0.881835 0.248479
H17   H     H_    0.786104 0.497383 0.954194 0.251856
H18   H     H_    0.730610 0.349747 0.974921 0.223667
H19   H     H_    0.119255 0.566156 0.988103 0.326466
H20   H     H_    0.839162 0.673779 0.727189 0.327515
H21   H     H_    0.958307 0.379468 0.249292 0.283807
H22   H     H_    0.912541 0.543652 0.252163 0.284812
H23   H     H_    0.882836 0.366069 0.421013 0.171110
H24   H     H_    0.025476 0.479567 0.154122 0.275136
H25   H     H_    0.135892 0.571100 0.310698 0.233666
H26   H     H_    0.172450 0.409783 0.343073 0.290248
H27   H     H_    0.775908 0.209547 0.310631 0.261047
H28   H     H_    0.771958 0.074038 0.222889 0.270143
H29   H     H_    0.712254 0.216952 0.153794 0.251996
H30   H     H_    0.521857 0.120405 0.194761 0.204599
H31   H     H_    0.533885 0.242740 0.281398 0.217449
H32   H     H_    0.070650 0.373948 0.704242 0.236180
H33   H     H_    0.246188 0.366691 0.700890 0.306327
H34   H     H_    0.336050 0.933625 0.347965 0.198411
H35   H     H_    0.171490 0.419613 0.832490 0.249289
H36   H     H_    0.221566 0.594256 0.729676 0.210314
H37   H     H_    0.057250 0.595916 0.712336 0.148670
H38   H     H_    0.608610 0.987538 0.094555 0.220132
H39   H     H_    0.712420 0.862807 0.153339 0.280115
H40   H     H_    0.563459 0.846213 0.058616 0.284449
H41   H     H_    0.499476 0.797061 0.248247 0.214026
H42   H     H_    0.434077 0.943950 0.205612 0.187075
H43   H     H_    0.841033 0.729793 0.323219 0.320959
H44   H     H_    0.849508 0.025344 0.585036 0.346313
H45   H     H_    0.129695 0.852037 0.275235 0.233872
H46   H     H_    0.813606 0.180777 0.538020 0.256996
H47   H     H_    0.892274 0.140019 0.681204 0.241451
H48   H     H_    0.663380 0.219492 0.688763 0.222380
H49   H     H_    0.716358 0.083502 0.763253 0.245306
H50   H     H_    0.789115 0.842165 0.836534 0.338064
H51   H     H_    0.075748 0.264538 0.542481 0.321136
H52   H     H_    0.069067 0.148090 0.339569 0.269539
H53   H     H_    0.112035 0.198348 0.197013 0.276080
H54   H     H_    0.135389 0.042589 0.233999 0.243039
H55   H     H_    0.297038 0.244914 0.321680 0.238758
H56   H     H_    0.253745 0.739668 0.332398 0.275026
H57   H     H_    0.339971 0.110677 0.252198 0.194257
H58   H     H_    0.092947 0.751736 0.388255 0.280209
H59   H     H_    0.213949 0.842531 0.548707 0.257205
H60   H     H_    0.128995 0.956253 0.453941 0.259024
N1    N     N_2   0.157300 0.551950 0.551120 -0.087647
N2    N     N_2   0.842730 0.448000 0.448950 -0.215382
O1    O     O_R   0.568940 0.489540 0.307530 -0.553644
O2    O     O_R   0.696849 0.657267 0.078664 -0.829088
O3    O     O_2   0.246313 0.395944 0.091309 -0.668286
O4    O     O_R   0.207898 0.589621 0.021653 -0.829639
O5    O     O_2   0.934050 0.721978 0.543207 -0.619685
O6    O     O_R   0.811998 0.620067 0.658084 -0.768415
O7    O     O_2   0.817329 0.926820 0.399920 -0.654840
O8    O     O_R   0.746784 0.750796 0.340099 -0.774558
O9    O     O_2   0.755495 0.855081 0.620418 -0.618790
O10   O     O_R   0.693587 0.866459 0.809037 -0.821644
O11   O     O_2   0.188027 0.079450 0.609810 -0.714107
O12   O     O_R   0.348880 0.522880 0.340350 -0.661040
O13   O     O_R   0.164739 0.255659 0.510472 -0.793699
O14   O     O_R   0.610030 0.298130 0.483570 -0.624636
O15   O     O_R   0.389960 0.331470 0.516390 -0.607060
O16   O     O_R   0.651120 0.477120 0.659650 -0.547040
O17   O     O_R   0.431060 0.510460 0.692470 -0.663294
O18   O     O_R   0.610040 0.668530 0.483610 -0.538393
O19   O     O_R   0.389970 0.701870 0.516430 -0.611423
O20   O     O_2   0.726169 0.469730 0.161230 -0.664246
Zn1   Zn    Zn3+2 0.646940 0.477740 0.478080 1.004811
Zn2   Zn    Zn3+2 0.353060 0.522260 0.521920 0.925272

loop_
_geom_bond_atom_site_label_1
_geom_bond_atom_site_label_2
_ccdc_geom_bond_type
C6    H1    S    
C29   H33   S    
O15   Zn2   S    
C19   C20   S    
C15   H3    S    
C17   H7    S    
C21   O4    S    
O14   Zn1   S    
C24   H26   S    
C29   H32   S    
C6    C26   S    
C44   N1    D    
C5    O18   A    
C26   C27   S    
C31   H38   S    
C28   C29   S    
C38   H57   S    
C30   C31   S    
H20   O6    S    
C14   H5    S    
C19   H18   S    
C8    C23   S    
C31   H39   S    
O16   Zn1   S    
H43   O8    S    
C1    C40   S    
C33   C35   S    
C2    C44   S    
C16   C17   S    
C37   O13   S    
C2    C22   S    
O19   Zn2   S    
C11   H60   S    
C32   O7    D    
C30   H42   S    
C9    C10   S    
C19   C42   S    
C8    C33   S    
C7    C30   S    
C41   C43   S    
C25   H24   S    
O12   Zn2   S    
C15   H4    S    
C17   H8    S    
C24   H25   S    
C16   H10   S    
C13   H56   S    
C7    C12   S    
C25   H21   S    
C24   C25   S    
C5    C12   S    
C33   H48   S    
H50   O10   S    
C39   H54   S    
C12   C23   S    
H51   O13   S    
N2    Zn1   S    
C2    N2    D    
C31   H40   S    
C4    O17   A    
C30   H41   S    
C38   C39   S    
C35   H44   S    
C29   H35   S    
C28   N1    S    
C9    C37   S    
C26   H31   S    
C4    O16   A    
C20   H15   S    
C1    O1    A    
O18   Zn1   S    
C40   C41   D    
C22   O5    D    
C16   C23   S    
C22   O6    S    
C9    C34   S    
C24   C44   S    
C18   C41   S    
C20   H16   S    
C42   C43   D    
C12   C34   S    
C36   O10   S    
C17   H9    S    
C27   H27   S    
C8    C14   S    
C7    C32   S    
N1    Zn2   S    
C13   H45   S    
C28   H37   S    
C11   C34   S    
C25   H22   S    
C38   H55   S    
C33   H49   S    
C6    C10   S    
C21   O3    D    
H23   N2    S    
C6    C7    S    
H19   O4    S    
C16   H11   S    
O1    Zn1   S    
C3    C10   S    
C34   H34   S    
C11   C13   S    
O17   Zn2   S    
C14   H6    S    
C21   C40   S    
C4    C42   S    
C19   H17   S    
C9    C38   S    
C26   H30   S    
C1    O12   A    
C28   H36   S    
C18   O2    S    
C39   H52   S    
C39   H53   S    
C3    O14   A    
C35   H46   S    
C43   H12   S    
H13   O2    S    
C37   O11   D    
C8    C10   S    
C23   C36   S    
C5    O19   A    
C14   C15   S    
C11   H59   S    
C15   H2    S    
C32   O8    S    
C13   H58   S    
C27   H29   S    
C36   O9    D    
C20   H14   S    
C18   O20   D    
C27   H28   S    
C3    O15   A    
C35   H47   S    
