data_mof_unit_30339.cif
_audit_creation_date              2012-12-11T17:23:12-0500
_audit_creation_method            fapswitch 2.2
_symmetry_space_group_name_H-M    P1
_symmetry_Int_Tables_number       1
_space_group_crystal_system       triclinic
_cell_length_a                    22.473702
_cell_length_b                    7.09521
_cell_length_c                    19.343379
_cell_angle_alpha                 89.994658
_cell_angle_beta                  99.639106
_cell_angle_gamma                 89.997421
_cell_volume                      3040.86500188

loop_
_atom_site_label
_atom_site_type_symbol
_atom_type_description
_atom_site_fract_x
_atom_site_fract_y
_atom_site_fract_z
_atom_type_partial_charge
O1    O     O_R   0.443980 0.494320 0.557430 -0.533091
O2    O     O_R   0.556020 0.994320 0.442570 -0.533080
O3    O     O_R   0.441210 0.822520 0.414610 -0.537681
O4    O     O_R   0.558790 0.322520 0.585390 -0.537709
C1    C     C_R   0.426746 0.655483 0.388620 0.694800
C2    C     C_R   0.573250 0.155459 0.611382 0.694808
O5    O     O_R   0.436920 0.823940 0.555180 -0.537080
O6    O     O_R   0.563080 0.323940 0.444820 -0.537097
O7    O     O_R   0.551700 0.995760 0.584140 -0.533229
O8    O     O_R   0.448300 0.495760 0.415860 -0.533225
C3    C     C_R   0.421762 0.655390 0.575017 0.720007
C4    C     C_R   0.578240 0.155394 0.424985 0.720021
O9    O     O_3   0.537660 0.661290 0.509340 -0.367670
O10   O     O_3   0.462340 0.161290 0.490660 -0.367640
V1    V     V_3+5 0.493010 0.935560 0.498270 1.460117
V2    V     V_3+5 0.506990 0.435560 0.501730 1.460017
H1    H     H_    0.683415 0.837892 0.261626 0.115875
H2    H     H_    0.316600 0.337861 0.738406 0.115875
C5    C     C_R   0.754066 0.948666 0.210614 -0.138047
C6    C     C_R   0.245961 0.448670 0.789426 -0.137997
H3    H     H_    0.757897 0.819321 0.182035 0.135961
H4    H     H_    0.242129 0.319320 0.818010 0.136002
C7    C     C_R   0.791396 0.102989 0.202216 0.084260
C8    C     C_R   0.208636 0.603014 0.797824 0.084241
C9    C     C_R   0.784066 0.271456 0.238968 -0.039734
C10   C     C_R   0.215979 0.771499 0.761079 -0.039742
C11   C     C_R   0.740979 0.281533 0.284054 -0.183266
C12   C     C_R   0.259062 0.781563 0.715987 -0.183259
H5    H     H_    0.735722 0.411213 0.312115 0.127624
H6    H     H_    0.264327 0.911256 0.687930 0.127620
C13   C     C_R   0.704653 0.125639 0.293112 0.126925
C14   C     C_R   0.295374 0.625638 0.706920 0.126911
C15   C     C_R   0.711319 0.959480 0.255819 -0.152685
C16   C     C_R   0.288704 0.459469 0.744215 -0.152711
C17   C     C_1   0.836951 0.085646 0.156580 -0.011189
C18   C     C_1   0.163072 0.585670 0.843449 -0.011196
C19   C     C_1   0.660372 0.136884 0.340130 -0.037162
C20   C     C_1   0.339646 0.636871 0.659892 -0.037203
C21   C     C_1   0.623220 0.146033 0.379122 -0.169475
C22   C     C_1   0.376791 0.646020 0.620890 -0.169521
C23   C     C_1   0.875311 0.073026 0.119154 -0.137834
C24   C     C_1   0.124702 0.573044 0.880862 -0.137896
C25   C     C_R   0.634169 0.170096 0.804803 -0.159846
C26   C     C_R   0.365771 0.671376 0.195228 -0.159855
H7    H     H_    0.546428 0.188384 0.741399 0.105216
H8    H     H_    0.453512 0.689762 0.258623 0.105227
H9    H     H_    0.718078 0.186712 0.918312 0.122143
H10   H     H_    0.281830 0.688501 0.081763 0.122156
H11   H     H_    0.616392 0.193581 0.852831 0.112698
H12   H     H_    0.383519 0.695484 0.147218 0.112703
C27   C     C_R   0.615880 0.147553 0.678324 -0.042795
C28   C     C_R   0.384110 0.647688 0.321680 -0.042819
C29   C     C_R   0.909806 0.011962 0.759887 -0.106280
C30   C     C_R   0.090235 0.511181 0.240077 -0.106222
C31   C     C_R   0.871490 0.972949 0.696406 -0.081087
C32   C     C_R   0.128584 0.471811 0.303505 -0.081077
C33   C     C_R   0.808354 0.988142 0.691467 -0.087053
C34   C     C_R   0.191712 0.487259 0.308429 -0.087047
C35   C     C_R   0.782871 0.066175 0.748056 0.025368
C36   C     C_R   0.217144 0.565951 0.251914 0.025402
C37   C     C_R   0.822269 0.092627 0.813909 0.060738
C38   C     C_R   0.177717 0.592798 0.186102 0.060743
C39   C     C_R   0.719416 0.107908 0.743663 0.074580
C40   C     C_R   0.280579 0.607986 0.256330 0.074576
C41   C     C_R   0.696348 0.143468 0.806462 0.143056
C42   C     C_R   0.303611 0.644318 0.193560 0.143061
C43   C     C_R   0.735423 0.156607 0.870457 -0.200315
C44   C     C_R   0.264513 0.657823 0.129592 -0.200328
C45   C     C_R   0.797314 0.137715 0.873841 -0.175846
C46   C     C_R   0.202634 0.638579 0.126208 -0.175957
C47   C     C_R   0.678178 0.124340 0.679396 -0.192652
C48   C     C_R   0.321829 0.624019 0.320604 -0.192542
C49   C     C_R   0.594222 0.168366 0.741400 -0.171187
C50   C     C_R   0.405734 0.669332 0.258617 -0.171156
C51   C     C_R   0.885667 0.064786 0.819646 -0.134710
C52   C     C_R   0.114334 0.564639 0.180357 -0.134742
H13   H     H_    0.693391 0.129539 0.629503 0.121318
H14   H     H_    0.306630 0.628629 0.370512 0.121318
H15   H     H_    0.825474 0.155014 0.924613 0.105752
H16   H     H_    0.174454 0.656185 0.075463 0.105922
O11   O     O_R   0.051730 0.724670 0.084120 -0.534511
O12   O     O_R   0.948270 0.224670 0.915880 -0.534502
O13   O     O_R   0.063080 0.393540 0.944820 -0.533169
O14   O     O_R   0.936920 0.893540 0.055180 -0.533204
C53   C     C_R   0.078413 0.562312 0.925132 0.713226
C54   C     C_R   0.921590 0.062307 0.074871 0.713242
O15   O     O_R   0.058800 0.395030 0.085390 -0.537129
O16   O     O_R   0.941200 0.895030 0.914610 -0.537118
O17   O     O_R   0.943980 0.223310 0.057440 -0.530363
O18   O     O_R   0.056020 0.723310 0.942560 -0.530400
C55   C     C_R   0.073297 0.563116 0.111219 0.690701
C56   C     C_R   0.926699 0.063143 0.888785 0.690725
O19   O     O_3   0.962360 0.556290 0.990650 -0.371128
O20   O     O_3   0.037640 0.056290 0.009350 -0.371138
V3    V     V_3+5 0.006980 0.281990 0.001730 1.470725
V4    V     V_3+5 0.993020 0.781990 0.998270 1.470646
C57   C     C_1   0.771533 0.893341 0.632869 0.297302
N1    N     N_1   0.742578 0.816447 0.586157 -0.341133
C58   C     C_1   0.228585 0.392066 0.366900 0.297281
N2    N     N_1   0.257582 0.314851 0.413508 -0.341120
C59   C     C_1   0.897197 0.907053 0.636598 0.346932
N3    N     N_1   0.917659 0.854604 0.589000 -0.290768
C60   C     C_1   0.102924 0.405259 0.363259 0.346906
N4    N     N_1   0.082500 0.352287 0.410814 -0.290809
C61   C     C_1   0.819658 0.436571 0.230763 0.318530
N5    N     N_1   0.847951 0.569597 0.224222 -0.316449
C62   C     C_1   0.180411 0.936656 0.769301 0.318434
N6    N     N_1   0.152140 0.069722 0.775857 -0.316414
C63   C     C_1   0.974279 0.982336 0.765279 0.317238
N7    N     N_1   0.025616 0.957441 0.769707 -0.306442
C64   C     C_1   0.025774 0.481268 0.234685 0.317383
N8    N     N_1   0.974449 0.456143 0.230258 -0.306581

loop_
_geom_bond_atom_site_label_1
_geom_bond_atom_site_label_2
_ccdc_geom_bond_type
C25   C49   A    
C42   C44   A    
C39   C41   A    
O4    V2    S    
C59   N3    T    
O15   C55   A    
C11   H5    S    
C18   C24   T    
C64   N8    T    
O1    C3    A    
H8    C50   S    
O2    C4    A    
C2    O7    A    
O16   V4    S    
C57   N1    T    
C9    C61   S    
C37   C51   A    
O5    C3    A    
C23   C54   S    
C8    C18   S    
H1    C15   S    
C36   C38   A    
C5    H3    S    
C8    C10   A    
C28   C50   A    
C33   C35   A    
C26   H12   S    
O12   C56   A    
C38   C46   A    
H7    C49   S    
O14   V4    S    
C48   H14   S    
C26   C42   A    
C6    C8    A    
C41   C43   A    
O15   V3    S    
C62   N6    T    
C13   C15   A    
C1    C28   S    
C14   C20   S    
C2    C27   S    
C25   C41   A    
C6    C16   A    
O5    V1    S    
C33   C57   S    
O6    V2    S    
C38   C52   A    
C29   C51   A    
C27   C47   A    
H9    C43   S    
C29   C31   A    
C30   C32   A    
C35   C37   A    
C46   H16   S    
C3    C22   S    
O16   C56   A    
C12   C14   A    
O4    C2    A    
C5    C15   A    
C24   C53   S    
O11   V4    S    
C25   H11   S    
C11   C13   A    
C13   C19   S    
C43   C45   A    
C14   C16   A    
O17   V3    S    
C5    C7    A    
C28   C48   A    
C58   N2    T    
O6    C4    A    
O13   V3    S    
O1    V2    S    
H10   C44   S    
O20   V4    S    
O2    V1    S    
H2    C16   S    
C51   C56   S    
C30   C52   A    
C44   C46   A    
O13   C53   A    
C39   C47   A    
O19   V4    S    
C7    C17   S    
C31   C33   A    
C45   H15   S    
C47   H13   S    
O3    V1    S    
C37   C45   A    
O12   V3    S    
C10   C12   A    
C34   C58   S    
C27   C49   A    
C32   C60   S    
C6    H4    S    
C26   C50   A    
O3    C1    A    
C54   O17   A    
C10   C62   S    
C53   O18   A    
O18   V4    S    
C9    C11   A    
C61   N5    T    
C31   C59   S    
C35   C39   A    
C36   C40   A    
C4    C21   S    
C12   H6    S    
O7    V1    S    
C1    O8    A    
C19   C21   T    
O8    V2    S    
C63   N7    T    
C20   C22   T    
C32   C34   A    
C30   C64   S    
C40   C48   A    
O20   V3    S    
C17   C23   T    
C52   C55   S    
O11   C55   A    
C7    C9    A    
O19   V3    S    
O9    V2    S    
C60   N4    T    
O10   V1    S    
O14   C54   A    
C29   C63   S    
C34   C36   A    
C40   C42   A    
