data_mof_unit_63258.cif
_audit_creation_date              2012-12-10T19:48:53-0500
_audit_creation_method            fapswitch 2.2
_symmetry_space_group_name_H-M    P1
_symmetry_Int_Tables_number       1
_space_group_crystal_system       monoclinic
_cell_length_a                    26.059417
_cell_length_b                    26.001631
_cell_length_c                    22.219837
_cell_angle_alpha                 90.0
_cell_angle_beta                  54.136719
_cell_angle_gamma                 90.0
_cell_volume                      12201.5453214

loop_
_atom_site_label
_atom_site_type_symbol
_atom_type_description
_atom_site_fract_x
_atom_site_fract_y
_atom_site_fract_z
_atom_type_partial_charge
C1    C     C_R   0.849474 0.750040 0.301044 0.817632
C2    C     C_R   0.849474 0.249960 0.301044 0.817626
C3    C     C_R   0.349474 0.250040 0.301044 0.817636
C4    C     C_R   0.349474 0.749959 0.301044 0.817635
C5    C     C_R   0.449569 0.715322 0.546985 -0.216135
C6    C     C_R   0.449568 0.284677 0.546986 -0.216071
C7    C     C_R   0.949569 0.215322 0.546985 -0.216145
C8    C     C_R   0.949569 0.784678 0.546985 -0.216157
C9    C     C_R   0.445274 0.749444 0.500608 -0.084270
C10   C     C_R   0.445274 0.250555 0.500608 -0.084294
C11   C     C_R   0.945274 0.249445 0.500608 -0.084262
C12   C     C_R   0.945274 0.750555 0.500608 -0.084259
C13   C     C_R   0.496109 0.782224 0.455966 0.131783
C14   C     C_R   0.496109 0.217776 0.455966 0.131777
C15   C     C_R   0.996109 0.282224 0.455966 0.131757
C16   C     C_R   0.996109 0.717776 0.455966 0.131773
C17   C     C_3   0.520505 0.824050 0.399720 -0.473601
C18   C     C_3   0.520505 0.175950 0.399720 -0.473587
C19   C     C_3   0.020505 0.324051 0.399721 -0.473554
C20   C     C_3   0.020505 0.675950 0.399720 -0.473586
C21   C     C_3   0.579640 0.824071 0.399703 -0.470708
C22   C     C_3   0.579640 0.175929 0.399703 -0.470704
C23   C     C_3   0.079640 0.324071 0.399704 -0.470686
C24   C     C_3   0.079640 0.675929 0.399703 -0.470697
C25   C     C_3   0.489560 0.705361 0.956647 -0.464965
C26   C     C_3   0.489274 0.294434 0.956647 -0.464913
C27   C     C_3   0.988739 0.205954 0.956646 -0.464871
C28   C     C_3   0.989500 0.794599 0.956647 -0.464975
C29   C     C_3   0.497147 0.801774 0.957284 0.140085
C30   C     C_3   0.497475 0.198073 0.957285 0.140170
C31   C     C_3   0.998094 0.302210 0.957286 0.140296
C32   C     C_3   0.997213 0.698193 0.957284 0.140072
C33   C     C_3   0.454764 0.801622 0.043646 -0.413158
C34   C     C_3   0.455092 0.198230 0.043646 -0.413152
C35   C     C_3   0.955712 0.302045 0.043648 -0.413179
C36   C     C_3   0.954830 0.698346 0.043646 -0.413195
C37   C     C_1   0.389075 0.750101 0.221623 -0.139030
C38   C     C_1   0.389076 0.249899 0.221623 -0.139026
C39   C     C_1   0.889077 0.250100 0.221623 -0.139032
C40   C     C_1   0.889075 0.749899 0.221623 -0.139035
C41   C     C_3   0.536554 0.751175 0.926795 0.259238
C42   C     C_3   0.536560 0.248826 0.926795 0.259191
C43   C     C_3   0.036571 0.251172 0.926795 0.259150
C44   C     C_3   0.036555 0.748825 0.926795 0.259265
C45   C     C_R   0.650569 0.750021 0.698950 0.828226
C46   C     C_R   0.650569 0.249979 0.698950 0.828187
C47   C     C_R   0.150569 0.250021 0.698950 0.828112
C48   C     C_R   0.150569 0.749979 0.698950 0.828212
C49   C     C_3   0.446274 0.705224 0.042768 -0.393123
C50   C     C_3   0.445987 0.294569 0.042768 -0.393107
C51   C     C_3   0.945451 0.205823 0.042768 -0.393119
C52   C     C_3   0.946215 0.794736 0.042768 -0.393136
C53   C     C_3   0.463217 0.750707 0.073222 0.294239
C54   C     C_3   0.463220 0.249293 0.073222 0.294219
C55   C     C_3   0.963227 0.250706 0.073222 0.294224
C56   C     C_3   0.963217 0.749293 0.073222 0.294272
C57   C     C_3   0.533719 0.745767 0.043251 -0.388228
C58   C     C_3   0.533690 0.254589 0.043250 -0.388244
C59   C     C_3   0.033632 0.244740 0.043250 -0.388260
C60   C     C_3   0.033715 0.754305 0.043251 -0.388237
C61   C     C_3   0.576838 0.745517 0.957149 -0.366174
C62   C     C_3   0.576807 0.254839 0.957148 -0.366275
C63   C     C_3   0.076746 0.244492 0.957147 -0.366404
C64   C     C_3   0.076834 0.754556 0.957148 -0.366178
C65   C     C_1   0.422435 0.750338 0.154805 -0.105792
C66   C     C_1   0.422436 0.249663 0.154805 -0.105783
C67   C     C_1   0.922440 0.250336 0.154805 -0.105777
C68   C     C_1   0.922435 0.749663 0.154805 -0.105793
C69   C     C_1   0.577346 0.750579 0.845160 -0.060644
C70   C     C_1   0.577347 0.249421 0.845160 -0.060637
C71   C     C_1   0.077352 0.250577 0.845160 -0.060637
C72   C     C_1   0.077346 0.749421 0.845160 -0.060645
C73   C     C_1   0.610778 0.750227 0.778350 -0.093709
C74   C     C_1   0.610779 0.249774 0.778350 -0.093694
C75   C     C_1   0.110780 0.250225 0.778350 -0.093685
C76   C     C_1   0.110779 0.749773 0.778350 -0.093710
C77   C     C_R   0.757675 0.973580 0.444333 0.104194
C78   C     C_R   0.757675 0.026420 0.444333 0.104195
C79   C     C_R   0.257670 0.473580 0.444335 0.104184
C80   C     C_R   0.257670 0.526420 0.444335 0.104181
C81   C     C_R   0.741440 0.945895 0.506862 -0.213900
C82   C     C_R   0.741440 0.054105 0.506862 -0.213895
C83   C     C_R   0.241439 0.445895 0.506863 -0.213880
C84   C     C_R   0.241439 0.554105 0.506863 -0.213894
C85   C     C_R   0.714256 0.972772 0.574736 0.210872
C86   C     C_R   0.714256 0.027228 0.574736 0.210861
C87   C     C_R   0.214259 0.472772 0.574736 0.210843
C88   C     C_R   0.214259 0.527228 0.574736 0.210875
C89   C     C_R   0.749950 0.610040 0.500059 0.806219
C90   C     C_R   0.749950 0.389960 0.500059 0.806214
C91   C     C_R   0.249950 0.110040 0.500059 0.806246
C92   C     C_R   0.249950 0.889960 0.500059 0.806233
C93   C     C_3   0.815577 0.029230 0.366133 -0.465934
C94   C     C_3   0.815577 0.970770 0.366133 -0.465940
C95   C     C_3   0.315570 0.529230 0.366133 -0.465934
C96   C     C_3   0.315570 0.470770 0.366133 -0.465922
C97   C     C_R   0.804280 0.525928 0.456431 0.130266
C98   C     C_R   0.804280 0.474072 0.456431 0.130258
C99   C     C_R   0.304280 0.025928 0.456431 0.130281
C100  C     C_R   0.304280 0.974072 0.456431 0.130284
C101  C     C_R   0.749172 0.554474 0.500518 -0.081371
C102  C     C_R   0.749172 0.445526 0.500518 -0.081373
C103  C     C_R   0.249172 0.054474 0.500518 -0.081371
C104  C     C_R   0.249172 0.945526 0.500518 -0.081367
C105  C     C_R   0.691835 0.527022 0.546254 -0.223148
C106  C     C_R   0.691835 0.472978 0.546254 -0.223145
C107  C     C_R   0.191835 0.027022 0.546255 -0.223142
C108  C     C_R   0.191835 0.972978 0.546255 -0.223146
C109  C     C_3   0.874249 0.470372 0.401161 -0.469953
C110  C     C_3   0.874249 0.529628 0.401161 -0.469968
C111  C     C_3   0.374248 0.970372 0.401161 -0.469981
C112  C     C_3   0.374248 0.029628 0.401161 -0.469975
C113  C     C_R   0.748530 0.890160 0.501317 0.861681
C114  C     C_R   0.748530 0.109840 0.501317 0.861667
C115  C     C_R   0.248530 0.390160 0.501317 0.861614
C116  C     C_R   0.248529 0.609840 0.501317 0.861664
C117  C     C_R   0.890000 0.750058 0.500061 0.800428
C118  C     C_R   0.890000 0.249942 0.500061 0.800427
C119  C     C_R   0.390000 0.250058 0.500061 0.800442
C120  C     C_R   0.390000 0.749942 0.500061 0.800433
C121  C     C_R   0.609979 0.750000 0.500072 0.813758
C122  C     C_R   0.609979 0.250000 0.500072 0.813748
C123  C     C_R   0.109979 0.250000 0.500072 0.813714
C124  C     C_R   0.109979 0.750000 0.500072 0.813748
C125  C     C_R   0.547901 0.782241 0.455956 0.131627
C126  C     C_R   0.547901 0.217758 0.455956 0.131622
C127  C     C_R   0.047901 0.282241 0.455956 0.131605
C128  C     C_R   0.047901 0.717758 0.455956 0.131617
C129  C     C_R   0.554161 0.749485 0.500601 -0.084386
C130  C     C_R   0.554161 0.250515 0.500602 -0.084401
C131  C     C_R   0.054161 0.249485 0.500601 -0.084376
C132  C     C_R   0.054161 0.750515 0.500601 -0.084376
C133  C     C_R   0.503547 0.715343 0.546983 -0.219280
C134  C     C_R   0.503547 0.284657 0.546983 -0.219270
C135  C     C_R   0.003547 0.215343 0.546983 -0.219322
C136  C     C_R   0.003547 0.784657 0.546983 -0.219298
H1    H     H_    0.505431 0.688743 0.583149 0.181200
H2    H     H_    0.505430 0.311256 0.583149 0.181219
H3    H     H_    0.005431 0.188743 0.583149 0.181192
H4    H     H_    0.005431 0.811257 0.583149 0.181188
H5    H     H_    0.465999 0.804093 0.938358 0.125310
H6    H     H_    0.466342 0.195495 0.938360 0.125404
H7    H     H_    0.966991 0.305275 0.938366 0.125505
H8    H     H_    0.966068 0.695821 0.938359 0.125294
H9    H     H_    0.404314 0.806289 0.064865 0.153270
H10   H     H_    0.404673 0.193306 0.064867 0.153314
H11   H     H_    0.905354 0.307448 0.064873 0.153339
H12   H     H_    0.904386 0.693627 0.064867 0.153250
H13   H     H_    0.466663 0.834683 0.065165 0.209869
H14   H     H_    0.467204 0.165315 0.065164 0.209874
H15   H     H_    0.968220 0.334682 0.065162 0.209887
H16   H     H_    0.966773 0.665314 0.065164 0.209873
H17   H     H_    0.604049 0.708874 0.936945 0.163011
H18   H     H_    0.603785 0.291590 0.936943 0.163003
H19   H     H_    0.103282 0.207540 0.936939 0.163034
H20   H     H_    0.103996 0.791221 0.936944 0.163025
H21   H     H_    0.612034 0.777196 0.936265 0.212454
H22   H     H_    0.612204 0.223319 0.936265 0.212373
H23   H     H_    0.112516 0.275711 0.936265 0.212258
H24   H     H_    0.112071 0.722909 0.936264 0.212459
H25   H     H_    0.541108 0.709649 0.064131 0.168182
H26   H     H_    0.540849 0.290822 0.064129 0.168173
H27   H     H_    0.040354 0.208296 0.064124 0.168196
H28   H     H_    0.041057 0.790448 0.064130 0.168198
H29   H     H_    0.516059 0.668407 0.936053 0.187087
H30   H     H_    0.515538 0.331491 0.936053 0.187109
H31   H     H_    0.014558 0.168707 0.936053 0.187151
H32   H     H_    0.015951 0.831575 0.936053 0.187091
H33   H     H_    0.451901 0.668147 0.063366 0.177698
H34   H     H_    0.451375 0.331748 0.063366 0.177718
H35   H     H_    0.950389 0.168457 0.063365 0.177758
H36   H     H_    0.951792 0.831834 0.063365 0.177702
H37   H     H_    0.547276 0.778374 0.063730 0.185088
H38   H     H_    0.547455 0.222137 0.063731 0.185042
H39   H     H_    0.047784 0.276900 0.063730 0.184990
H40   H     H_    0.047315 0.721731 0.063729 0.185102
H41   H     H_    0.411568 0.688710 0.583149 0.187106
H42   H     H_    0.411568 0.311289 0.583150 0.187160
H43   H     H_    0.911568 0.188710 0.583149 0.187106
H44   H     H_    0.911568 0.811290 0.583149 0.187088
H45   H     H_    0.805468 0.046060 0.328106 0.209901
H46   H     H_    0.805468 0.953940 0.328106 0.209901
H47   H     H_    0.305457 0.546060 0.328110 0.209905
H48   H     H_    0.305457 0.453940 0.328109 0.209905
H49   H     H_    0.856775 0.046237 0.361829 0.192520
H50   H     H_    0.856775 0.953763 0.361829 0.192518
H51   H     H_    0.356770 0.546237 0.361825 0.192514
H52   H     H_    0.356770 0.453763 0.361825 0.192514
H53   H     H_    0.647149 0.547007 0.581918 0.179564
H54   H     H_    0.647149 0.452993 0.581918 0.179567
H55   H     H_    0.147149 0.047007 0.581919 0.179556
H56   H     H_    0.147149 0.952993 0.581919 0.179555
H57   H     H_    0.897544 0.453281 0.425315 0.203857
H58   H     H_    0.897544 0.546718 0.425315 0.203856
H59   H     H_    0.397544 0.953281 0.425315 0.203861
H60   H     H_    0.397544 0.046719 0.425315 0.203862
H61   H     H_    0.887961 0.453267 0.347784 0.213958
H62   H     H_    0.887961 0.546733 0.347784 0.213954
H63   H     H_    0.387961 0.953267 0.347784 0.213953
H64   H     H_    0.387961 0.046733 0.347784 0.213954
H65   H     H_    0.529948 0.810470 0.346655 0.209721
H66   H     H_    0.529948 0.189530 0.346655 0.209723
H67   H     H_    0.029948 0.310471 0.346655 0.209757
H68   H     H_    0.029948 0.689529 0.346655 0.209734
H69   H     H_    0.491785 0.859747 0.423047 0.205981
H70   H     H_    0.491785 0.140253 0.423047 0.205982
H71   H     H_    0.991784 0.359748 0.423048 0.205966
H72   H     H_    0.991784 0.640252 0.423048 0.205972
H73   H     H_    0.623213 0.810506 0.346626 0.208357
H74   H     H_    0.623213 0.189494 0.346626 0.208353
H75   H     H_    0.123213 0.310506 0.346626 0.208385
H76   H     H_    0.123213 0.689494 0.346626 0.208370
H77   H     H_    0.585029 0.859781 0.423022 0.211135
H78   H     H_    0.585030 0.140219 0.423021 0.211135
H79   H     H_    0.085029 0.359781 0.423023 0.211114
H80   H     H_    0.085029 0.640219 0.423022 0.211124
H81   H     H_    0.395868 0.708085 0.063158 0.174302
H82   H     H_    0.395600 0.291449 0.063158 0.174316
H83   H     H_    0.895103 0.209428 0.063159 0.174270
H84   H     H_    0.895811 0.791822 0.063159 0.174284
H85   H     H_    0.459845 0.707946 0.935797 0.175483
H86   H     H_    0.459576 0.291592 0.935796 0.175512
H87   H     H_    0.959079 0.209278 0.935797 0.175478
H88   H     H_    0.959788 0.791961 0.935798 0.175469
O1    O     O_3   0.750020 0.750020 0.500000 -0.488895
O2    O     O_3   0.750020 0.249980 0.500000 -0.488903
O3    O     O_3   0.250020 0.250020 0.500000 -0.488913
O4    O     O_3   0.250020 0.749980 0.500000 -0.488897
O5    O     O_R   0.698170 0.634220 0.542990 -0.649619
O6    O     O_R   0.698170 0.365780 0.542990 -0.649614
O7    O     O_R   0.198170 0.134220 0.542990 -0.649607
O8    O     O_R   0.198170 0.865780 0.542990 -0.649618
O9    O     O_R   0.741140 0.865830 0.457020 -0.646397
O10   O     O_R   0.741140 0.134170 0.457020 -0.646399
O11   O     O_R   0.241140 0.365830 0.457020 -0.646415
O12   O     O_R   0.241140 0.634170 0.457020 -0.646404
O13   O     O_R   0.862350 0.719680 0.336040 -0.638138
O14   O     O_R   0.862350 0.280320 0.336040 -0.638123
O15   O     O_R   0.362350 0.219680 0.336040 -0.638141
O16   O     O_R   0.362350 0.780320 0.336040 -0.638143
O17   O     O_R   0.698420 0.780360 0.663960 -0.603568
O18   O     O_R   0.698420 0.219640 0.663960 -0.603512
O19   O     O_R   0.198420 0.280360 0.663960 -0.603376
O20   O     O_R   0.198420 0.719640 0.663960 -0.603543
O21   O     O_R   0.801620 0.780400 0.336040 -0.642396
O22   O     O_R   0.801620 0.219600 0.336040 -0.642401
O23   O     O_R   0.301620 0.280400 0.336040 -0.642383
O24   O     O_R   0.301620 0.719600 0.336040 -0.642389
O25   O     O_R   0.637700 0.719640 0.663960 -0.648046
O26   O     O_R   0.637700 0.280360 0.663960 -0.648057
O27   O     O_R   0.137700 0.219640 0.663960 -0.648115
O28   O     O_R   0.137700 0.780360 0.663960 -0.648061
O29   O     O_R   0.801870 0.634220 0.457010 -0.643255
O30   O     O_R   0.801870 0.365780 0.457010 -0.643256
O31   O     O_R   0.301870 0.134220 0.457010 -0.643251
O32   O     O_R   0.301870 0.865780 0.457010 -0.643252
O33   O     O_R   0.758890 0.865820 0.542980 -0.601267
O34   O     O_R   0.758890 0.134180 0.542980 -0.601258
O35   O     O_R   0.258890 0.365820 0.542980 -0.601230
O36   O     O_R   0.258890 0.634180 0.542980 -0.601253
O37   O     O_R   0.887320 0.719660 0.457000 -0.645524
O38   O     O_R   0.887320 0.280340 0.457000 -0.645521
O39   O     O_R   0.387320 0.219660 0.457000 -0.645533
O40   O     O_R   0.387320 0.780340 0.457000 -0.645527
O41   O     O_R   0.655700 0.780400 0.457020 -0.641859
O42   O     O_R   0.655700 0.219600 0.457020 -0.641862
O43   O     O_R   0.155700 0.280400 0.457020 -0.641858
O44   O     O_R   0.155700 0.719600 0.457020 -0.641858
O45   O     O_R   0.844340 0.780370 0.542980 -0.644798
O46   O     O_R   0.844340 0.219630 0.542980 -0.644783
O47   O     O_R   0.344340 0.280370 0.542980 -0.644734
O48   O     O_R   0.344340 0.719630 0.542980 -0.644785
O49   O     O_R   0.612730 0.719670 0.543000 -0.646726
O50   O     O_R   0.612730 0.280330 0.543000 -0.646724
O51   O     O_R   0.112730 0.219670 0.543000 -0.646746
O52   O     O_R   0.112730 0.780330 0.543000 -0.646732
Zn1   Zn    Zn3+2 0.675940 0.706640 0.561420 0.968808
Zn2   Zn    Zn3+2 0.675940 0.293360 0.561420 0.968798
Zn3   Zn    Zn3+2 0.175940 0.206640 0.561420 0.968741
Zn4   Zn    Zn3+2 0.175940 0.793360 0.561420 0.968792
Zn5   Zn    Zn3+2 0.824100 0.706650 0.438580 0.958410
Zn6   Zn    Zn3+2 0.824100 0.293350 0.438580 0.958421
Zn7   Zn    Zn3+2 0.324100 0.206650 0.438580 0.958423
Zn8   Zn    Zn3+2 0.324100 0.793350 0.438580 0.958413
Zn9   Zn    Zn3+2 0.762700 0.793390 0.561410 1.018519
Zn10  Zn    Zn3+2 0.762700 0.206610 0.561410 1.018558
Zn11  Zn    Zn3+2 0.262700 0.293390 0.561410 1.018660
Zn12  Zn    Zn3+2 0.262700 0.706610 0.561410 1.018544
Zn13  Zn    Zn3+2 0.737340 0.793410 0.438590 0.967992
Zn14  Zn    Zn3+2 0.737340 0.206590 0.438590 0.967975
Zn15  Zn    Zn3+2 0.237340 0.293410 0.438590 0.967952
Zn16  Zn    Zn3+2 0.237340 0.706590 0.438590 0.967985
Br1   Br    Br    0.675968 0.936268 0.667480 -0.353043
Br2   Br    Br    0.675970 0.063732 0.667479 -0.353075
Br3   Br    Br    0.175980 0.436268 0.667479 -0.353190
Br4   Br    Br    0.175976 0.563732 0.667479 -0.353088
Br5   Br    Br    0.550092 0.863464 0.918740 -0.457996
Br6   Br    Br    0.550812 0.136599 0.918739 -0.457958
Br7   Br    Br    0.052161 0.363271 0.918737 -0.457963
Br8   Br    Br    0.050238 0.636546 0.918739 -0.458048

loop_
_geom_bond_atom_site_label_1
_geom_bond_atom_site_label_2
_ccdc_geom_bond_type
C99   C103  A    
C133  H1    S    
C55   C59   S    
C109  H61   S    
C41   C61   S    
C136  H4    S    
C43   C63   S    
C114  O10   A    
C23   H79   S    
C44   C64   S    
C135  H3    S    
O52   Zn4   S    
C26   C50   S    
C8    C136  A    
C92   O8    A    
C29   C33   S    
C100  C104  A    
O2    Zn2   S    
C9    C13   A    
C46   O26   A    
C29   Br5   S    
C11   C15   A    
C36   H12   S    
C12   C16   A    
C123  O51   A    
C70   C74   T    
O44   Zn16  S    
C80   C84   A    
C13   C125  A    
C98   C109  S    
C15   C127  A    
O41   Zn13  S    
C58   H38   S    
O46   Zn10  S    
O29   Zn5   S    
C32   Br8   S    
O24   Zn16  S    
C105  H53   S    
C121  O41   A    
O21   Zn13  S    
C98   C102  A    
C28   C44   S    
C17   C21   S    
C49   H81   S    
C48   O28   A    
C19   C23   S    
O2    Zn6   S    
C1    O21   A    
O14   Zn6   S    
O3    Zn11  S    
O4    Zn12  S    
C16   C20   S    
C19   H67   S    
C17   H65   S    
C57   H37   S    
C34   C54   S    
C60   H40   S    
C58   H26   S    
C41   C69   S    
C43   C71   S    
C89   C101  S    
C27   H87   S    
C30   Br6   S    
C84   C88   A    
C91   C103  S    
C120  O48   A    
C117  O45   A    
C57   C61   S    
C119  O47   A    
C59   C63   S    
C14   C126  A    
O7    Zn3   S    
C60   C64   S    
C1    O13   A    
O8    Zn4   S    
C122  O50   A    
C79   C96   S    
C115  O35   A    
C34   H10   S    
C95   H47   S    
C113  O9    A    
C91   O31   A    
C49   C53   S    
C22   H74   S    
O5    Zn1   S    
O25   Zn1   S    
C44   C72   S    
C51   C55   S    
C2    O22   A    
C127  C131  A    
C32   H8    S    
C28   H32   S    
C12   C117  S    
C125  C129  A    
C57   H25   S    
C100  C111  S    
O31   Zn7   S    
C103  C107  A    
O17   Zn9   S    
C112  H64   S    
C49   H33   S    
C48   C76   S    
C111  C112  S    
C63   H23   S    
C52   H36   S    
C97   C98   A    
C33   H13   S    
C85   C86   A    
C5    C133  A    
C31   C43   S    
O6    Zn2   S    
O3    Zn15  S    
C32   C36   S    
O11   Zn15  S    
C77   C94   S    
C42   C70   S    
C124  C132  S    
C30   H6    S    
C90   C102  S    
C10   C119  S    
C45   O25   A    
C112  H60   S    
C37   C65   T    
C124  O44   A    
C26   H86   S    
C107  C108  A    
C109  H57   S    
C53   C65   S    
C42   C62   S    
C47   O27   A    
C28   H88   S    
C90   O30   A    
C85   Br1   S    
C84   C116  S    
C31   H7    S    
C93   H45   S    
C27   C51   S    
C121  O49   A    
C30   C34   S    
C83   C115  S    
C10   C14   A    
C92   C104  S    
C36   H16   S    
C51   H83   S    
C56   C68   S    
C91   O7    A    
C5    C9    A    
C123  O43   A    
C16   C128  A    
C132  C136  A    
C29   H5    S    
O42   Zn14  S    
C80   C95   S    
O36   Zn12  S    
C31   Br7   S    
O37   Zn5   S    
O30   Zn6   S    
O20   Zn12  S    
O1    Zn13  S    
C21   H77   S    
C106  H54   S    
C122  O42   A    
C3    O23   A    
O22   Zn14  S    
C29   C41   S    
C18   C22   S    
O2    Zn10  S    
O3    Zn7   S    
C54   C66   S    
O2    Zn14  S    
C13   C17   S    
C17   H69   S    
C47   C75   S    
C24   H80   S    
C60   H28   S    
O9    Zn13  S    
O27   Zn3   S    
C59   H27   S    
O16   Zn8   S    
C107  H55   S    
C24   C128  S    
C9    C120  S    
O1    Zn1   S    
C90   O6    A    
C11   C118  S    
C81   C85   A    
O19   Zn11  S    
C118  O46   A    
C58   C62   S    
C83   C87   A    
C87   C88   A    
C110  H62   S    
C48   O20   A    
C115  O11   A    
C34   H14   S    
C95   H51   S    
C130  C134  A    
C77   C78   A    
O4    Zn4   S    
C15   C19   S    
C26   C42   S    
C50   C54   S    
C35   H15   S    
O26   Zn2   S    
C8    H44   S    
C126  C130  A    
C96   H52   S    
O18   Zn10  S    
C62   H22   S    
C69   C73   T    
O1    Zn5   S    
C8    C12   A    
C117  O37   A    
C6    H42   S    
C113  O33   A    
C94   H50   S    
C20   H68   S    
C53   C57   S    
C25   H29   S    
C82   C86   A    
O49   Zn1   S    
C56   C60   S    
O51   Zn3   S    
C36   C56   S    
C61   H21   S    
C77   C81   A    
C116  O12   A    
O33   Zn9   S    
C4    O16   A    
C18   H66   S    
O35   Zn11  S    
C92   O32   A    
O40   Zn8   S    
C31   C35   S    
C46   O18   A    
C25   C41   S    
C104  C108  A    
C23   C127  S    
C123  C131  S    
C121  C129  S    
C6    C10   A    
O47   Zn11  S    
C105  C106  A    
C131  C135  A    
C86   Br2   S    
O34   Zn10  S    
O43   Zn15  S    
O28   Zn4   S    
C109  C110  S    
C79   C83   A    
O38   Zn6   S    
C23   H75   S    
C21   H73   S    
O10   Zn14  S    
C25   C49   S    
C27   C43   S    
C4    C37   S    
C40   C68   T    
C81   C113  S    
C30   C42   S    
C94   H46   S    
O3    Zn3   S    
C3    O15   A    
C93   H49   S    
C93   C94   S    
C33   C53   S    
C28   C52   S    
C14   C18   S    
C95   C96   S    
C72   C76   T    
C24   H76   S    
C7    C11   A    
O45   Zn9   S    
C59   H39   S    
C22   C126  S    
C78   C93   S    
O39   Zn7   S    
C45   C73   S    
C78   C82   A    
C4    O24   A    
C1    C40   S    
C111  H63   S    
C2    C39   S    
C119  O39   A    
C38   C66   T    
C3    C38   S    
C120  O40   A    
C110  H58   S    
C25   H85   S    
O13   Zn5   S    
C116  O36   A    
O4    Zn8   S    
C89   O29   A    
C19   H71   S    
C64   H24   S    
C96   H48   S    
C128  C132  A    
C101  C105  A    
C52   H84   S    
O32   Zn8   S    
C35   C55   S    
C20   C24   S    
C82   C114  S    
C50   H34   S    
C2    O14   A    
O15   Zn7   S    
C50   H82   S    
C87   Br3   S    
C62   H18   S    
C88   Br4   S    
O1    Zn9   S    
C114  O34   A    
C7    C135  A    
C99   C100  A    
C118  O38   A    
C32   C44   S    
C7    H43   S    
O4    Zn16  S    
C35   H11   S    
O12   Zn16  S    
C5    H41   S    
C33   H9    S    
C22   H78   S    
C129  C133  A    
C20   H72   S    
O23   Zn15  S    
C45   O17   A    
C46   C74   S    
C54   C58   S    
C26   H30   S    
O50   Zn2   S    
C39   C67   T    
C108  H56   S    
C61   H17   S    
C134  H2    S    
C55   C67   S    
O48   Zn12  S    
C64   H20   S    
C18   H70   S    
C51   H35   S    
C63   H19   S    
C6    C134  A    
C71   C75   T    
C97   C110  S    
C124  O52   A    
C99   C112  S    
C47   O19   A    
C102  C106  A    
C79   C80   A    
C111  H59   S    
C89   O5    A    
C21   C125  S    
C122  C130  S    
C97   C101  A    
C52   C56   S    
C27   H31   S    
