data_mof_unit_32736.cif
_audit_creation_date              2012-12-11T15:38:59-0500
_audit_creation_method            fapswitch 2.2
_symmetry_space_group_name_H-M    P1
_symmetry_Int_Tables_number       1
_space_group_crystal_system       triclinic
_cell_length_a                    14.347151
_cell_length_b                    14.787618
_cell_length_c                    33.202148
_cell_angle_alpha                 97.547606
_cell_angle_beta                  90.438439
_cell_angle_gamma                 118.897264
_cell_volume                      6093.09147339

loop_
_atom_site_label
_atom_site_type_symbol
_atom_type_description
_atom_site_fract_x
_atom_site_fract_y
_atom_site_fract_z
_atom_type_partial_charge
C1    C     C_R   0.616882 0.910302 0.437013 0.544489
C2    C     C_R   0.744998 0.426433 0.188024 0.034184
C3    C     C_R   0.756991 0.869208 0.639218 -0.116024
C4    C     C_R   0.672350 0.784969 0.654183 0.035207
C5    C     C_R   0.636928 0.858955 0.584706 0.017079
C6    C     C_R   0.052008 0.781203 0.063835 0.544482
C7    C     C_R   0.744347 0.487234 0.066294 0.549003
C8    C     C_R   0.743054 0.789212 0.066430 0.553709
C9    C     C_R   0.021416 0.732023 0.947352 0.531634
C10   C     C_R   0.712262 0.437957 0.949202 0.533231
C11   C     C_R   0.743454 0.716459 0.945941 0.566544
C12   C     C_R   0.837711 0.455802 0.167016 0.241235
C13   C     C_R   0.834600 0.467730 0.126154 -0.087894
C14   C     C_R   0.771488 0.348160 0.245828 -0.063231
C15   C     C_R   0.763621 0.335137 0.286633 -0.109058
C16   C     C_R   0.729565 0.392627 0.313676 0.027953
C17   C     C_R   0.707499 0.466283 0.299627 -0.114393
C18   C     C_R   0.715621 0.479409 0.258780 -0.106869
C19   C     C_R   0.746113 0.419263 0.231630 0.065001
C20   C     C_R   0.606967 0.348226 0.369263 -0.118547
C21   C     C_R   0.594069 0.205764 0.456712 0.547293
C22   C     C_R   0.573269 0.301846 0.404107 -0.121129
C23   C     C_R   0.739413 0.298163 0.412417 -0.125629
C24   C     C_R   0.773053 0.344579 0.377608 -0.119224
C25   C     C_R   0.705261 0.366022 0.354882 0.031875
C26   C     C_R   0.637383 0.272466 0.424973 0.024105
C27   C     C_R   0.243833 0.877763 0.393557 0.019421
C28   C     C_R   0.231773 0.959088 0.380923 -0.126441
C29   C     C_R   0.206845 0.956227 0.339869 -0.116875
C30   C     C_R   0.192986 0.871892 0.311074 0.039211
C31   C     C_R   0.197808 0.787487 0.323679 -0.105048
C32   C     C_R   0.295440 0.892757 0.434432 0.540137
C33   C     C_R   0.222858 0.790171 0.364704 -0.127872
C34   C     C_R   0.192381 0.805273 0.163686 -0.088011
C35   C     C_R   0.165550 0.784561 0.121765 -0.115589
C36   C     C_R   0.089536 0.900369 0.129699 -0.127457
C37   C     C_R   0.116052 0.920593 0.171744 -0.114922
C38   C     C_R   0.164030 0.870078 0.188875 0.041611
C39   C     C_1   0.174490 0.875415 0.232264 -0.011671
C40   C     C_1   0.181919 0.875007 0.268354 -0.014884
C41   C     C_R   0.109623 0.828280 0.104587 0.016913
C42   C     C_R   0.637427 0.878647 0.395513 0.020310
C43   C     C_R   0.613941 0.904764 0.551567 0.541719
C44   C     C_R   0.552651 0.800179 0.368421 -0.129133
C45   C     C_R   0.565008 0.787888 0.326743 -0.116380
C46   C     C_R   0.662212 0.853185 0.311877 0.037666
C47   C     C_R   0.749185 0.926181 0.338870 -0.113410
C48   C     C_R   0.737048 0.938782 0.380521 -0.124676
C49   C     C_R   0.779216 0.919617 0.174820 -0.111949
C50   C     C_R   0.794198 0.906699 0.133389 -0.125059
C51   C     C_R   0.618946 0.752377 0.121609 -0.123482
C52   C     C_R   0.604075 0.765666 0.162954 -0.112775
C53   C     C_R   0.685670 0.847026 0.189753 0.038204
C54   C     C_R   0.590267 0.200282 0.570735 0.572128
C55   C     C_1   0.677135 0.850107 0.232784 -0.029454
C56   C     C_1   0.670448 0.850912 0.268854 -0.029934
C57   C     C_R   0.715960 0.820263 0.106728 0.020980
C58   C     C_R   0.624985 0.251026 0.613659 0.031091
C59   C     C_R   0.579767 0.307780 0.635041 0.230359
C60   C     C_R   0.596675 0.332372 0.677579 -0.078523
C61   C     C_R   0.658681 0.301915 0.698870 -0.001482
C62   C     C_R   0.710181 0.253364 0.677742 -0.132040
C63   C     C_R   0.694022 0.228593 0.635482 -0.171013
C64   C     C_R   0.762586 0.348932 0.844622 -0.115761
C65   C     C_R   0.288940 0.886718 0.548455 0.541323
C66   C     C_R   0.772279 0.373530 0.887007 -0.128900
C67   C     C_R   0.593002 0.350705 0.885042 -0.125827
C68   C     C_R   0.583572 0.326125 0.842661 -0.113616
C69   C     C_R   0.669781 0.329038 0.822409 0.041332
C70   C     C_1   0.666150 0.319730 0.778901 -0.027403
C71   C     C_1   0.663419 0.313065 0.742427 -0.028372
C72   C     C_R   0.689406 0.379490 0.907492 0.021906
C73   C     C_R   0.064065 0.751218 0.907568 0.021880
C74   C     C_R   0.101638 0.849762 0.895617 -0.142564
C75   C     C_R   0.117316 0.861287 0.854835 -0.127636
C76   C     C_R   0.740299 0.452362 0.106022 -0.020710
C77   C     C_R   0.095738 0.774405 0.825626 0.030958
C78   C     C_R   0.064882 0.677496 0.838145 -0.117417
C79   C     C_R   0.049804 0.666132 0.878839 -0.119803
C80   C     C_R   0.144548 0.731819 0.756817 -0.111900
C81   C     C_R   0.148947 0.738897 0.715525 -0.109770
C82   C     C_R   0.109750 0.797319 0.698582 0.032872
C83   C     C_R   0.064389 0.847253 0.723513 -0.107362
C84   C     C_R   0.060244 0.840378 0.764977 -0.109082
C85   C     C_R   0.100952 0.783085 0.781970 0.032450
C86   C     C_R   0.175119 0.917840 0.647243 -0.118541
C87   C     C_R   0.647158 0.418898 0.126696 -0.139156
C88   C     C_R   0.220283 0.940118 0.610388 -0.125121
C89   C     C_R   0.164309 0.756555 0.589570 -0.124165
C90   C     C_R   0.118431 0.734221 0.626245 -0.117685
C91   C     C_R   0.128928 0.815539 0.656227 0.030435
C92   C     C_R   0.220278 0.860377 0.582323 0.019105
C93   C     C_R   0.728072 0.701523 0.901131 0.016287
C94   C     C_R   0.629353 0.635339 0.878573 -0.124077
C95   C     C_R   0.620218 0.634292 0.836265 -0.115532
C96   C     C_R   0.710063 0.698073 0.816422 0.032224
C97   C     C_R   0.809577 0.756068 0.838766 -0.114358
C98   C     C_R   0.649594 0.406009 0.167378 -0.165198
C99   C     C_R   0.818035 0.758797 0.880494 -0.122813
C100  C     C_R   0.752935 0.819353 0.765803 -0.114378
C101  C     C_R   0.745802 0.840388 0.726704 -0.115640
C102  C     C_R   0.685970 0.758954 0.694708 0.029158
C103  C     C_R   0.633617 0.655231 0.702830 -0.108496
C104  C     C_R   0.640660 0.634043 0.742367 -0.110627
C105  C     C_R   0.700606 0.716252 0.774167 0.032137
C106  C     C_R   0.571507 0.733943 0.632463 -0.103460
C107  C     C_R   0.554073 0.770322 0.598014 -0.117558
C108  C     C_R   0.739284 0.906335 0.604997 -0.128261
Cr1   Cr    Cr6+3 0.424820 0.846020 0.489780 1.015280
Cr2   Cr    Cr6+3 0.657880 0.078580 0.505700 1.013354
Cr3   Cr    Cr6+3 0.417280 0.075360 0.504550 1.054636
Cr4   Cr    Cr6+3 0.903360 0.812540 0.006510 1.007867
Cr5   Cr    Cr6+3 0.914630 0.587050 0.006280 1.012457
Cr6   Cr    Cr6+3 0.673560 0.582680 0.008540 1.013539
H1    H     H_    0.573537 0.406760 0.111961 0.140832
H2    H     H_    0.494499 0.283489 0.413231 0.131654
H3    H     H_    0.791200 0.277728 0.428265 0.127235
H4    H     H_    0.181963 0.728706 0.103221 0.133202
H5    H     H_    0.229758 0.766008 0.176695 0.131428
H6    H     H_    0.186844 0.721667 0.301548 0.134347
H7    H     H_    0.231821 0.726511 0.373360 0.128472
H8    H     H_    0.247531 0.027738 0.402325 0.127494
H9    H     H_    0.093770 0.970889 0.191054 0.108840
H10   H     H_    0.045615 0.934446 0.117459 0.126639
H11   H     H_    0.907847 0.495046 0.110951 0.164672
H12   H     H_    0.202931 0.021766 0.330385 0.107779
H13   H     H_    0.869952 0.959846 0.122886 0.125292
H14   H     H_    0.842710 0.982975 0.195460 0.110759
H15   H     H_    0.824895 0.976634 0.327553 0.109626
H16   H     H_    0.803843 0.999691 0.400618 0.128835
H17   H     H_    0.474841 0.752993 0.378969 0.128381
H18   H     H_    0.531242 0.709401 0.174307 0.112511
H19   H     H_    0.557203 0.685234 0.101780 0.125480
H20   H     H_    0.497391 0.730884 0.305965 0.111630
H21   H     H_    0.847619 0.395478 0.903321 0.124701
H22   H     H_    0.849903 0.359193 0.367339 0.111011
H23   H     H_    0.829518 0.350821 0.829089 0.104825
H24   H     H_    0.758973 0.230240 0.694061 0.120548
H25   H     H_    0.730326 0.185511 0.620235 0.142170
H26   H     H_    0.511216 0.310257 0.825599 0.106779
H27   H     H_    0.527811 0.354789 0.899813 0.127614
H28   H     H_    0.558584 0.372117 0.694093 0.130939
H29   H     H_    0.113232 0.916384 0.917385 0.117652
H30   H     H_    0.019582 0.588976 0.887197 0.124722
H31   H     H_    0.081009 0.654395 0.632300 0.111395
H32   H     H_    0.778849 0.276234 0.296552 0.106938
H33   H     H_    0.187123 0.702115 0.697172 0.106661
H34   H     H_    0.177818 0.688445 0.769277 0.104068
H35   H     H_    0.143295 0.937272 0.845945 0.105677
H36   H     H_    0.033674 0.892674 0.711032 0.101851
H37   H     H_    0.025326 0.879896 0.783667 0.091289
H38   H     H_    0.184479 0.981935 0.669960 0.111104
H39   H     H_    0.262313 0.020781 0.605337 0.150178
H40   H     H_    0.046884 0.609087 0.816176 0.104356
H41   H     H_    0.161309 0.693427 0.567947 0.130124
H42   H     H_    0.559038 0.588790 0.893721 0.123305
H43   H     H_    0.793603 0.300165 0.225027 0.143611
H44   H     H_    0.895070 0.809372 0.897022 0.138130
H45   H     H_    0.836275 0.908723 0.654820 0.103654
H46   H     H_    0.784345 0.921220 0.721912 0.100277
H47   H     H_    0.797730 0.884591 0.789887 0.103109
H48   H     H_    0.542476 0.588360 0.819566 0.104541
H49   H     H_    0.587172 0.590749 0.678696 0.143218
H50   H     H_    0.600146 0.553887 0.748046 0.104914
H51   H     H_    0.504473 0.669600 0.643352 0.117279
H52   H     H_    0.474203 0.731793 0.582962 0.134824
H53   H     H_    0.880446 0.803877 0.824236 0.106603
H54   H     H_    0.577459 0.382449 0.183144 0.117056
H55   H     H_    0.804971 0.973803 0.595127 0.128402
H56   H     H_    0.681453 0.511599 0.320003 0.110312
H57   H     H_    0.696076 0.534872 0.248108 0.114420
H58   H     H_    0.552928 0.363406 0.352056 0.105484
O1    O     O_R   0.318160 0.824460 0.443680 -0.520467
O2    O     O_R   0.645130 0.163230 0.552140 -0.516893
O3    O     O_R   0.498360 0.178430 0.555780 -0.445788
O4    O     O_R   0.328690 0.978040 0.538950 -0.498999
O5    O     O_3   0.499990 0.999990 0.500010 -0.244864
O6    O     O_R   0.828710 0.851830 0.052170 -0.513589
O7    O     O_R   0.005980 0.823990 0.047210 -0.500906
O8    O     O_R   0.031900 0.688850 0.050170 -0.511601
O9    O     O_R   0.830940 0.518420 0.048680 -0.499173
O10   O     O_R   0.668160 0.499860 0.053480 -0.511837
O11   O     O_R   0.689170 0.693840 0.050110 -0.494575
O12   O     O_R   0.525040 0.857250 0.449830 -0.501402
O13   O     O_R   0.803860 0.812940 0.962540 -0.509538
O14   O     O_R   0.982950 0.787950 0.964120 -0.527826
O15   O     O_R   0.007050 0.649970 0.960540 -0.516037
O16   O     O_R   0.807910 0.482370 0.965590 -0.503961
O17   O     O_R   0.643310 0.460980 0.963840 -0.526114
O18   O     O_R   0.666140 0.657800 0.967020 -0.498915
O19   O     O_3   0.830520 0.660760 0.007110 -0.263244
O20   O     O_R   0.684760 0.998800 0.456360 -0.516930
O21   O     O_R   0.647540 0.166310 0.470260 -0.503342
O22   O     O_R   0.500960 0.181750 0.467450 -0.511054
O23   O     O_R   0.331100 0.981120 0.457080 -0.502609
O24   O     O_R   0.315560 0.821140 0.532010 -0.519775
O25   O     O_R   0.522630 0.854180 0.531710 -0.499499
O26   O     O_R   0.682160 0.995480 0.544690 -0.519840
Cl1   Cl    Cl    0.961348 0.487800 0.191677 -0.645459
Cl2   Cl    Cl    0.500633 0.348516 0.610291 -0.619323

loop_
_geom_bond_atom_site_label_1
_geom_bond_atom_site_label_2
_ccdc_geom_bond_type
C65   C92   S    
C33   H7    S    
C74   H29   S    
C101  C102  A    
Cr6   O18   S    
C6    O7    A    
Cr2   O26   S    
C51   H19   S    
C73   C74   A    
Cr1   O25   S    
C95   C96   A    
C100  C105  A    
C21   C26   S    
C2    C12   A    
C81   C82   A    
C18   H57   S    
C27   C33   A    
C44   H17   S    
C45   H20   S    
C80   C85   A    
C42   C44   A    
C47   H15   S    
C83   C84   A    
Cr3   O3    S    
C36   C37   A    
C36   H10   S    
C37   C38   A    
C34   C35   A    
C90   H31   S    
C86   C91   A    
Cr4   O14   S    
C38   C39   S    
Cr1   O1    S    
C89   H41   S    
C20   C25   A    
C15   C16   A    
Cr5   O15   S    
C58   C63   A    
C86   C88   A    
Cr1   O24   S    
C18   C19   A    
C23   C26   A    
Cr6   O10   S    
C60   H28   S    
C37   H9    S    
C66   C72   A    
C62   C63   A    
C88   C92   A    
C101  H46   S    
C16   C17   A    
C81   H33   S    
C6    C41   S    
C4    C102  S    
C10   O16   A    
C23   C24   A    
C31   C33   A    
C100  H47   S    
C51   C57   A    
C21   O22   A    
C93   C99   A    
C87   H1    S    
C61   C62   A    
C83   H36   S    
C13   H11   S    
C11   C93   S    
C22   H2    S    
C5    C43   S    
C107  H52   S    
C77   C85   S    
C59   C60   A    
Cr6   O17   S    
C11   O13   A    
C29   H12   S    
C3    H45   S    
C48   H16   S    
C36   C41   A    
C102  C103  A    
C9    C73   S    
Cr2   O21   S    
C32   O23   A    
C104  C105  A    
C97   C99   A    
C1    O12   A    
C64   H23   S    
C53   C55   S    
Cr5   O19   S    
Cr5   O9    S    
C10   O17   A    
C74   C75   A    
C7    O9    A    
C14   H43   S    
C67   C68   A    
C52   H18   S    
C106  H51   S    
C67   C72   A    
C24   C25   A    
C9    O14   A    
C95   H48   S    
C39   C40   T    
C17   H56   S    
C78   H40   S    
Cr2   O5    S    
C58   C59   A    
C77   C78   A    
Cr5   O16   S    
C4    C106  A    
C62   H24   S    
C82   C91   S    
Cr3   O4    S    
C60   C61   A    
C64   C66   A    
C54   O3    A    
C84   H37   S    
C23   H3    S    
C29   C30   A    
C86   H38   S    
C8    C57   S    
C16   C25   S    
C47   C48   A    
C13   C76   A    
C59   Cl2   S    
C96   C97   A    
C55   C56   T    
C54   C58   S    
C17   C18   A    
C73   C79   A    
C30   C40   S    
C94   C95   A    
C43   O25   A    
C93   C94   A    
C42   C48   A    
C64   C69   A    
C84   C85   A    
C89   C92   A    
C75   C77   A    
C76   C87   A    
C70   C71   T    
Cr4   O7    S    
C8    O11   A    
C20   H58   S    
C20   C22   A    
C49   C50   A    
C65   O4    A    
C22   C26   A    
C68   H26   S    
C3    C4    A    
C67   H27   S    
Cr4   O13   S    
C52   C53   A    
Cr1   O12   S    
C96   C105  S    
Cr4   O6    S    
C5    C107  A    
C34   H5    S    
C49   H14   S    
C46   C47   A    
C28   C29   A    
Cr6   O19   S    
C7    O10   A    
C6    O8    A    
C2    C19   S    
C34   C38   A    
C50   C57   A    
C63   H25   S    
C14   C19   A    
C68   C69   A    
C44   C45   A    
C65   O24   A    
C80   C81   A    
C9    O15   A    
C24   H22   S    
C104  H50   S    
C15   H32   S    
C7    C76   S    
C3    C108  A    
C32   O1    A    
C103  H49   S    
C79   H30   S    
C11   O18   A    
C88   H39   S    
C87   C98   A    
C51   C52   A    
C97   H53   S    
Cr4   O19   S    
C78   C79   A    
C61   C71   S    
C90   C91   A    
C30   C31   A    
Cr2   O2    S    
C75   H35   S    
C49   C53   A    
C54   O2    A    
Cr2   O20   S    
C100  C101  A    
C12   Cl1   S    
C43   O26   A    
C28   H8    S    
C69   C70   S    
C35   C41   A    
C31   H6    S    
C27   C32   S    
Cr3   O22   S    
C66   H21   S    
C1    O20   A    
C8    O6    A    
C1    C42   S    
C80   H34   S    
Cr5   O8    S    
C12   C13   A    
C2    C98   A    
C94   H42   S    
C82   C83   A    
C106  C107  A    
C99   H44   S    
C46   C56   S    
C103  C104  A    
Cr3   O5    S    
Cr1   O5    S    
C14   C15   A    
C35   H4    S    
C50   H13   S    
C21   O21   A    
C89   C90   A    
C108  H55   S    
C98   H54   S    
Cr6   O11   S    
Cr3   O23   S    
C45   C46   A    
C27   C28   A    
C5    C108  A    
C10   C72   S    
