data_mof_unit_64947.cif
_audit_creation_date              2012-12-10T16:54:16-0500
_audit_creation_method            fapswitch 2.2
_symmetry_space_group_name_H-M    P1
_symmetry_Int_Tables_number       1
_space_group_crystal_system       triclinic
_cell_length_a                    18.582135
_cell_length_b                    18.58235
_cell_length_c                    42.981702
_cell_angle_alpha                 90.006277
_cell_angle_beta                  89.999812
_cell_angle_gamma                 90.000084
_cell_volume                      14841.5702779

loop_
_atom_site_label
_atom_site_type_symbol
_atom_type_description
_atom_site_fract_x
_atom_site_fract_y
_atom_site_fract_z
_atom_type_partial_charge
C1    C     C_R   0.499911 0.000018 0.584160 0.953295
C2    C     C_R   0.000748 0.500055 0.281552 0.327625
C3    C     C_R   0.042256 0.550783 0.332350 0.033522
C4    C     C_R   0.948208 0.460899 0.832117 0.033937
C5    C     C_R   0.538770 0.946396 0.832221 0.032447
C6    C     C_R   0.052118 0.541338 0.832349 0.033283
C7    C     C_R   0.462013 0.053039 0.832114 0.034185
C8    C     C_R   0.499966 0.999835 0.315779 0.044183
C9    C     C_R   0.000596 0.500036 0.315911 0.044443
C10   C     C_R   0.000189 0.501338 0.815862 0.044691
C11   C     C_R   0.500381 0.999610 0.815779 0.044191
C12   C     C_R   0.500003 0.999957 0.381416 -0.047772
C13   C     C_R   0.000253 0.501773 0.781523 0.329567
C14   C     C_R   0.000223 0.500015 0.381504 -0.045018
C15   C     C_R   0.000075 0.500466 0.881460 -0.046557
C16   C     C_R   0.500244 0.999919 0.881416 -0.047760
C17   C     C_R   0.500323 0.999422 0.781417 0.330464
C18   C     C_R   0.946484 0.463710 0.668034 0.285915
C19   C     C_R   0.538307 0.946685 0.667731 0.285454
C20   C     C_R   0.055016 0.538022 0.667631 0.283645
C21   C     C_R   0.460426 0.052707 0.667799 0.284773
C22   C     C_R   0.446961 0.037899 0.167795 0.283866
C23   C     C_R   0.960859 0.447591 0.167923 0.284817
C24   C     C_R   0.552827 0.959806 0.167728 0.286332
C25   C     C_R   0.999997 0.499997 0.584177 0.949818
C26   C     C_R   0.040093 0.552475 0.167845 0.286398
C27   C     C_R   0.945257 0.464439 0.635077 0.257988
C28   C     C_R   0.539651 0.947740 0.634776 0.262694
C29   C     C_R   0.053832 0.538786 0.634670 0.265373
C30   C     C_R   0.461569 0.053673 0.634841 0.259483
C31   C     C_R   0.447901 0.039374 0.134841 0.261945
C32   C     C_R   0.964131 0.445051 0.135010 0.257596
C33   C     C_R   0.553671 0.961071 0.134770 0.259719
C34   C     C_R   0.036472 0.554996 0.134937 0.257468
C35   C     C_R   0.000184 0.500218 0.618571 -0.190976
C36   C     C_R   0.000034 0.500005 0.084195 0.948167
C37   C     C_R   0.499548 0.999941 0.618524 -0.189479
C38   C     C_R   0.499984 0.999269 0.118522 -0.189243
C39   C     C_R   0.000202 0.500024 0.118616 -0.188827
C40   C     C_R   0.000123 0.502234 0.684099 -0.110722
C41   C     C_R   0.500426 0.000399 0.684019 -0.111192
C42   C     C_R   0.500686 0.999884 0.184017 -0.111094
C43   C     C_R   0.000563 0.500038 0.184153 -0.109240
C44   C     C_R   0.500001 0.999998 0.415810 0.853830
C45   C     C_R   0.000036 0.500001 0.415841 0.856236
C46   C     C_R   0.000011 0.500060 0.915825 0.854950
C47   C     C_R   0.500021 0.999856 0.084160 0.953344
C48   C     C_R   0.500057 0.999987 0.915810 0.853704
C49   C     C_R   0.362123 0.139235 0.499531 0.743318
C50   C     C_R   0.860736 0.362149 0.499516 0.735536
C51   C     C_R   0.639304 0.862205 0.500413 0.731447
C52   C     C_R   0.137778 0.639328 0.500427 0.739328
C53   C     C_R   0.639327 0.137788 0.500426 0.726017
C54   C     C_R   0.137766 0.360644 0.500441 0.733584
C55   C     C_R   0.362138 0.860740 0.499519 0.735179
C56   C     C_R   0.860709 0.637836 0.499508 0.727846
C57   C     C_R   0.862136 0.639261 0.999521 0.735335
C58   C     C_R   0.000333 0.502337 0.718460 0.453277
C59   C     C_R   0.360708 0.862164 0.999505 0.728233
C60   C     C_R   0.139328 0.362216 0.000426 0.725909
C61   C     C_R   0.637766 0.139354 0.000442 0.733845
C62   C     C_R   0.139300 0.637802 0.000411 0.731681
C63   C     C_R   0.637778 0.860669 0.000427 0.740460
C64   C     C_R   0.862123 0.360768 0.999530 0.742563
C65   C     C_R   0.360736 0.137849 0.999517 0.734619
C66   C     C_2   0.198141 0.746792 0.480489 0.043757
C67   C     C_2   0.245369 0.190309 0.485310 0.045074
C68   C     C_2   0.809412 0.245591 0.485124 0.046705
C69   C     C_R   0.500272 0.999882 0.718355 0.456546
C70   C     C_2   0.746447 0.801544 0.480350 0.042953
C71   C     C_2   0.809125 0.754196 0.484926 0.046719
C72   C     C_2   0.746835 0.198136 0.480503 0.042567
C73   C     C_2   0.197821 0.252801 0.480645 0.043022
C74   C     C_2   0.245576 0.809394 0.485109 0.044936
C75   C     C_2   0.697802 0.247211 0.980656 0.043309
C76   C     C_2   0.745568 0.690588 0.985115 0.045346
C77   C     C_2   0.309113 0.745807 0.984914 0.046845
C78   C     C_2   0.246833 0.301853 0.980503 0.042541
C79   C     C_2   0.309410 0.254401 0.985124 0.046506
C80   C     C_R   0.500354 0.999725 0.218354 0.456441
C81   C     C_2   0.246432 0.698460 0.980341 0.042946
C82   C     C_2   0.698125 0.753180 0.980493 0.043569
C83   C     C_2   0.745354 0.309701 0.985324 0.044954
C84   C     C_2   0.186107 0.700956 0.504319 0.378405
C85   C     C_2   0.313417 0.200501 0.495448 0.377096
C86   C     C_2   0.799384 0.313549 0.495401 0.379808
C87   C     C_2   0.700887 0.813822 0.504256 0.378111
C88   C     C_2   0.799272 0.686350 0.495370 0.378520
C89   C     C_2   0.700936 0.186155 0.504316 0.380039
C90   C     C_2   0.186064 0.298984 0.504380 0.380675
C91   C     C_R   0.000719 0.500054 0.218490 0.451003
C92   C     C_2   0.313523 0.799384 0.495406 0.376084
C93   C     C_2   0.686069 0.201014 0.004384 0.380362
C94   C     C_2   0.813518 0.700611 0.995410 0.375950
C95   C     C_2   0.299266 0.813658 0.995360 0.378577
C96   C     C_2   0.200941 0.313856 0.004317 0.380104
C97   C     C_2   0.299384 0.186450 0.995407 0.379692
C98   C     C_2   0.200874 0.686201 0.004249 0.378112
C99   C     C_2   0.686103 0.799041 0.004319 0.378525
C100  C     C_2   0.813413 0.299504 0.995445 0.377239
C101  C     C_R   0.446936 0.038722 0.364984 0.010532
C102  C     C_R   0.499957 0.999778 0.281417 0.330483
C103  C     C_R   0.958658 0.449193 0.365076 0.009066
C104  C     C_R   0.553065 0.961138 0.365001 0.008783
C105  C     C_R   0.041987 0.550849 0.365174 0.007944
C106  C     C_R   0.948126 0.460450 0.864942 0.010077
C107  C     C_R   0.539085 0.946781 0.865048 0.009164
C108  C     C_R   0.052083 0.540929 0.865174 0.008564
C109  C     C_R   0.461558 0.052952 0.864937 0.010186
C110  C     C_R   0.446683 0.038279 0.332159 0.033590
C111  C     C_R   0.958750 0.449282 0.332254 0.035041
C112  C     C_R   0.553282 0.961461 0.332175 0.033047
H1    H     H_    0.133215 0.779034 0.445293 0.181430
H2    H     H_    0.882672 0.795333 0.455046 0.180073
H3    H     H_    0.779218 0.133049 0.445393 0.180877
H4    H     H_    0.734648 0.207841 0.433952 0.187763
H5    H     H_    0.132406 0.219980 0.445728 0.182183
H6    H     H_    0.207083 0.264421 0.434050 0.188291
H7    H     H_    0.170674 0.886697 0.491981 0.190863
H8    H     H_    0.204217 0.883282 0.455440 0.180169
H9    H     H_    0.632352 0.280051 0.945757 0.181931
H10   H     H_    0.707019 0.235619 0.934057 0.188203
H11   H     H_    0.670674 0.613283 0.991995 0.190997
H12   H     H_    0.208016 0.734330 0.433948 0.187023
H13   H     H_    0.704210 0.616672 0.955452 0.180299
H14   H     H_    0.386391 0.670757 0.991503 0.188614
H15   H     H_    0.382654 0.704657 0.955030 0.179689
H16   H     H_    0.279209 0.366909 0.945386 0.180994
H17   H     H_    0.234634 0.292108 0.933953 0.187833
H18   H     H_    0.386713 0.329318 0.991959 0.188501
H19   H     H_    0.383309 0.295655 0.955434 0.179758
H20   H     H_    0.278254 0.633846 0.944961 0.180424
H21   H     H_    0.233431 0.708754 0.933846 0.186481
H22   H     H_    0.633164 0.720892 0.945314 0.181449
H23   H     H_    0.170607 0.112982 0.492420 0.191247
H24   H     H_    0.707957 0.765576 0.933948 0.187160
H25   H     H_    0.670602 0.387024 0.992468 0.191094
H26   H     H_    0.703856 0.383972 0.955868 0.180075
H27   H     H_    0.197699 0.680214 0.548601 0.356653
H28   H     H_    0.390503 0.268513 0.505008 0.349408
H29   H     H_    0.731492 0.390617 0.505170 0.345295
H30   H     H_    0.680555 0.802618 0.548589 0.356294
H31   H     H_    0.731495 0.609356 0.505408 0.345686
H32   H     H_    0.680050 0.197939 0.548578 0.347710
H33   H     H_    0.198197 0.320292 0.548592 0.348919
H34   H     H_    0.203907 0.116057 0.455829 0.179988
H35   H     H_    0.390555 0.731492 0.505220 0.350006
H36   H     H_    0.698247 0.179685 0.048590 0.348303
H37   H     H_    0.890549 0.768511 0.005220 0.349734
H38   H     H_    0.231496 0.890663 0.005397 0.345791
H39   H     H_    0.180068 0.302115 0.048581 0.347873
H40   H     H_    0.231491 0.109394 0.005184 0.345577
H41   H     H_    0.180523 0.697473 0.048579 0.356469
H42   H     H_    0.697737 0.819838 0.048597 0.357159
H43   H     H_    0.890512 0.231489 0.004974 0.349440
H44   H     H_    0.398655 0.133825 0.375379 0.179456
H45   H     H_    0.886711 0.170680 0.491970 0.188691
H46   H     H_    0.343006 0.061142 0.376048 0.190844
H47   H     H_    0.860975 0.406650 0.375745 0.177418
H48   H     H_    0.930163 0.346702 0.375935 0.193082
H49   H     H_    0.657018 0.938780 0.376073 0.193162
H50   H     H_    0.601389 0.866080 0.375454 0.179920
H51   H     H_    0.070389 0.653335 0.376125 0.193077
H52   H     H_    0.139566 0.593376 0.376058 0.180713
H53   H     H_    0.844884 0.434622 0.875726 0.191613
H54   H     H_    0.902934 0.363837 0.875385 0.178847
H55   H     H_    0.561454 0.842886 0.876209 0.191811
H56   H     H_    0.883318 0.204308 0.455441 0.179737
H57   H     H_    0.634147 0.898521 0.875551 0.181480
H58   H     H_    0.097215 0.637296 0.876123 0.179179
H59   H     H_    0.155291 0.566525 0.876160 0.193835
H60   H     H_    0.366507 0.101397 0.875279 0.177890
H61   H     H_    0.439259 0.156960 0.875912 0.192208
H62   H     H_    0.341367 0.054592 0.321662 0.189376
H63   H     H_    0.393170 0.130050 0.320998 0.196129
H64   H     H_    0.929846 0.346978 0.321292 0.195507
H65   H     H_    0.860947 0.407249 0.321464 0.190031
H66   H     H_    0.658595 0.945141 0.321675 0.189831
H67   H     H_    0.778272 0.866134 0.444968 0.180451
H68   H     H_    0.606815 0.869666 0.321064 0.195315
H69   H     H_    0.140158 0.592853 0.321767 0.190332
H70   H     H_    0.071245 0.653100 0.321471 0.194885
H71   H     H_    0.903198 0.364569 0.821099 0.190363
H72   H     H_    0.845077 0.435288 0.821084 0.195211
H73   H     H_    0.630579 0.892840 0.821158 0.196100
H74   H     H_    0.555120 0.841042 0.821809 0.189113
H75   H     H_    0.155292 0.567209 0.821512 0.194890
H76   H     H_    0.097188 0.637936 0.821837 0.190084
H77   H     H_    0.445858 0.158332 0.821529 0.189997
H78   H     H_    0.733456 0.791215 0.433855 0.186716
H79   H     H_    0.370320 0.106638 0.820902 0.195421
H80   H     H_    0.883391 0.380825 0.672618 0.355320
H81   H     H_    0.571654 0.847933 0.671813 0.357635
H82   H     H_    0.153709 0.570888 0.671939 0.357822
H83   H     H_    0.377633 0.115568 0.672563 0.356271
H84   H     H_    0.348268 0.071359 0.171975 0.357610
H85   H     H_    0.876479 0.386250 0.171689 0.355990
H86   H     H_    0.615496 0.876841 0.172387 0.355778
H87   H     H_    0.124509 0.613819 0.171449 0.354931
H88   H     H_    0.846463 0.431793 0.630844 0.359089
H89   H     H_    0.886405 0.829245 0.491520 0.188259
H90   H     H_    0.624090 0.886633 0.630645 0.351285
H91   H     H_    0.116841 0.621760 0.630139 0.352124
H92   H     H_    0.426396 0.151540 0.630234 0.358934
H93   H     H_    0.386904 0.123917 0.130824 0.353261
H94   H     H_    0.931034 0.346334 0.131142 0.358345
H95   H     H_    0.651421 0.925623 0.130059 0.358009
H96   H     H_    0.069588 0.653693 0.130997 0.358266
N1    N     N_R   0.512303 0.938094 0.265382 -0.147764
N2    N     N_R   0.438625 0.012059 0.734439 -0.113862
N3    N     N_R   0.937825 0.509171 0.734522 -0.108114
N4    N     N_R   0.561916 0.987253 0.734378 -0.110903
N5    N     N_R   0.512524 0.938071 0.234432 -0.114123
N6    N     N_R   0.997215 0.562839 0.234547 -0.108401
N7    N     N_R   0.487824 0.061382 0.234384 -0.110622
N8    N     N_R   0.004277 0.437275 0.234541 -0.108677
N9    N     N_3   0.166546 0.735303 0.450378 -0.455761
N10   N     N_3   0.217623 0.119448 0.479359 -0.452011
N11   N     N_3   0.880179 0.217819 0.479000 -0.457477
N12   N     N_R   0.997181 0.562832 0.265498 -0.147008
N13   N     N_3   0.734607 0.832845 0.450209 -0.456709
N14   N     N_3   0.879796 0.781996 0.478629 -0.457749
N15   N     N_3   0.735477 0.166427 0.450408 -0.457341
N16   N     N_3   0.165826 0.263786 0.450584 -0.456094
N17   N     N_3   0.217786 0.880157 0.478992 -0.452229
N18   N     N_3   0.665778 0.236243 0.950598 -0.456233
N19   N     N_3   0.717783 0.619817 0.979003 -0.452251
N20   N     N_3   0.379782 0.718002 0.978614 -0.457544
N21   N     N_3   0.235468 0.333537 0.950406 -0.457219
N22   N     N_3   0.380176 0.282166 0.978994 -0.457609
N23   N     N_R   0.487689 0.061415 0.265336 -0.147024
N24   N     N_3   0.234588 0.667136 0.950202 -0.456782
N25   N     N_3   0.666502 0.764627 0.950386 -0.455858
N26   N     N_3   0.717601 0.380566 0.979394 -0.452129
N27   N     N_3   0.394339 0.079786 0.381844 -0.435893
N28   N     N_3   0.914791 0.398970 0.381965 -0.440018
N29   N     N_3   0.605689 0.920148 0.381880 -0.428721
N30   N     N_3   0.085681 0.601053 0.382166 -0.430594
N31   N     N_3   0.896710 0.417767 0.881726 -0.437459
N32   N     N_3   0.580077 0.894244 0.881975 -0.427731
N33   N     N_3   0.103431 0.583205 0.882198 -0.429989
N34   N     N_R   0.004338 0.437283 0.265490 -0.146661
N35   N     N_3   0.420549 0.105678 0.881746 -0.436782
N36   N     N_3   0.391420 0.075454 0.315221 -0.432263
N37   N     N_3   0.914753 0.399335 0.315281 -0.432156
N38   N     N_3   0.608544 0.924239 0.315252 -0.432148
N39   N     N_3   0.086418 0.600753 0.315476 -0.432309
N40   N     N_3   0.896950 0.418665 0.815039 -0.432508
N41   N     N_3   0.576006 0.891067 0.815344 -0.432293
N42   N     N_3   0.103445 0.584000 0.815514 -0.432764
N43   N     N_3   0.424920 0.108280 0.815128 -0.432109
N44   N     N_R   0.062765 0.494922 0.765477 -0.147747
N45   N     N_R   0.438648 0.011807 0.765386 -0.147868
N46   N     N_R   0.937786 0.508920 0.765472 -0.146976
N47   N     N_R   0.561950 0.987090 0.765332 -0.146837
N48   N     N_R   0.062800 0.495184 0.734526 -0.112535
O1    O     O_3   0.500000 1.000000 0.500000 -0.506833
O2    O     O_R   0.560150 1.000000 0.069320 -0.606890
O3    O     O_R   0.000000 0.560150 0.069320 -0.596469
O4    O     O_R   0.439850 1.000000 0.069320 -0.591599
O5    O     O_R   0.439930 0.000000 0.430670 -0.630200
O6    O     O_R   1.000000 0.439930 0.430670 -0.624521
O7    O     O_R   0.560070 0.000000 0.430670 -0.619143
O8    O     O_R   1.000000 0.560070 0.430670 -0.626261
O9    O     O_R   0.939930 0.500000 0.930670 -0.630415
O10   O     O_R   0.500000 0.939930 0.930670 -0.625659
O11   O     O_R   0.060070 0.500000 0.930670 -0.619439
O12   O     O_3   0.000000 0.500000 0.500000 -0.507234
O13   O     O_R   0.500000 0.060070 0.930670 -0.623681
O14   O     O_R   0.415450 0.144560 0.518170 -0.625741
O15   O     O_R   0.855440 0.415450 0.518170 -0.631637
O16   O     O_R   0.584550 0.855440 0.518170 -0.632361
O17   O     O_R   0.144560 0.584550 0.518170 -0.626103
O18   O     O_R   0.584550 0.144560 0.518170 -0.643612
O19   O     O_R   0.144560 0.415450 0.518170 -0.636667
O20   O     O_R   0.415450 0.855440 0.518170 -0.636333
O21   O     O_R   0.855440 0.584550 0.518170 -0.642603
O22   O     O_R   0.915450 0.644560 0.018170 -0.636619
O23   O     O_3   0.000000 0.500000 0.000000 -0.506739
O24   O     O_R   0.355440 0.915450 0.018170 -0.642167
O25   O     O_R   0.084550 0.355440 0.018170 -0.643187
O26   O     O_R   0.644560 0.084550 0.018170 -0.637566
O27   O     O_R   0.084550 0.644560 0.018170 -0.633082
O28   O     O_R   0.644560 0.915450 0.018170 -0.627154
O29   O     O_R   0.915450 0.355440 0.018170 -0.625630
O30   O     O_R   0.355440 0.084550 0.018170 -0.630968
O31   O     O_R   0.644640 0.915430 0.481820 -0.631596
O32   O     O_R   0.084570 0.644640 0.481820 -0.626624
O33   O     O_R   0.355360 0.084570 0.481820 -0.627782
O34   O     O_3   0.500000 0.000000 0.000000 -0.507006
O35   O     O_R   0.915430 0.355360 0.481820 -0.632276
O36   O     O_R   0.355360 0.915430 0.481820 -0.629167
O37   O     O_R   0.915430 0.644640 0.481820 -0.633550
O38   O     O_R   0.644640 0.084570 0.481820 -0.632908
O39   O     O_R   0.084570 0.355360 0.481820 -0.628129
O40   O     O_R   0.144640 0.415430 0.981820 -0.632955
O41   O     O_R   0.584570 0.144640 0.981820 -0.627954
O42   O     O_R   0.855360 0.584570 0.981820 -0.629068
O43   O     O_R   0.415430 0.855360 0.981820 -0.633696
O44   O     O_R   0.855360 0.415430 0.981820 -0.627789
O45   O     O_R   0.500000 0.939850 0.569320 -0.596623
O46   O     O_R   0.415430 0.144640 0.981820 -0.632362
O47   O     O_R   0.144640 0.584570 0.981820 -0.631346
O48   O     O_R   0.584570 0.855360 0.981820 -0.626374
O49   O     O_3   0.215835 0.715591 0.533243 -0.728912
O50   O     O_3   0.338569 0.270056 0.499840 -0.731557
O51   O     O_3   0.729880 0.338723 0.499930 -0.735081
O52   O     O_3   0.715777 0.784322 0.533197 -0.730533
O53   O     O_3   0.729822 0.661189 0.500069 -0.735234
O54   O     O_3   0.715486 0.215991 0.533228 -0.729776
O55   O     O_3   0.216102 0.284697 0.533277 -0.727867
O56   O     O_R   0.060150 0.500000 0.569320 -0.602537
O57   O     O_3   0.338675 0.729884 0.499960 -0.731658
O58   O     O_3   0.716137 0.215287 0.033278 -0.728405
O59   O     O_3   0.838669 0.770115 0.999959 -0.732271
O60   O     O_3   0.229818 0.838828 0.000056 -0.735434
O61   O     O_3   0.215500 0.284048 0.033230 -0.730047
O62   O     O_3   0.229881 0.161284 0.999942 -0.734737
O63   O     O_3   0.215760 0.715734 0.033187 -0.729806
O64   O     O_3   0.715849 0.784436 0.033242 -0.728432
O65   O     O_3   0.838571 0.229947 0.999819 -0.731688
O66   O     O_3   0.898396 0.422980 0.685129 -0.736079
O67   O     O_R   0.500000 0.060150 0.569320 -0.601610
O68   O     O_3   0.570715 0.892266 0.684597 -0.736891
O69   O     O_3   0.108724 0.572079 0.684290 -0.736348
O70   O     O_3   0.420820 0.101999 0.684720 -0.735669
O71   O     O_3   0.392651 0.070329 0.184723 -0.736761
O72   O     O_3   0.917750 0.401140 0.184766 -0.735842
O73   O     O_3   0.602086 0.920020 0.184584 -0.735748
O74   O     O_3   0.083371 0.598937 0.184605 -0.736174
O75   O     O_3   0.891425 0.430404 0.618480 -0.724608
O76   O     O_3   0.581960 0.900619 0.617894 -0.738245
O77   O     O_3   0.101996 0.579549 0.617626 -0.735603
O78   O     O_R   0.939850 0.500000 0.569320 -0.592963
O79   O     O_3   0.426279 0.106332 0.618032 -0.724819
O80   O     O_3   0.400792 0.081827 0.118026 -0.727379
O81   O     O_3   0.931107 0.390684 0.118358 -0.723121
O82   O     O_3   0.606167 0.925697 0.117892 -0.736318
O83   O     O_3   0.069357 0.609329 0.118217 -0.734938
O84   O     O_R   0.000000 0.439850 0.069320 -0.598607
Zn1   Zn    Zn3+2 0.414160 0.000000 0.474030 0.993804
Zn2   Zn    Zn3+2 0.914220 0.500000 0.525960 1.021247
Zn3   Zn    Zn3+2 0.500000 0.914220 0.525960 1.028067
Zn4   Zn    Zn3+2 0.085780 0.500000 0.525960 1.031490
Zn5   Zn    Zn3+2 0.000000 0.585780 0.025960 1.025535
Zn6   Zn    Zn3+2 0.414220 1.000000 0.025960 1.024499
Zn7   Zn    Zn3+2 1.000000 0.414220 0.025960 1.025203
Zn8   Zn    Zn3+2 0.585780 1.000000 0.025960 1.028050
Zn9   Zn    Zn3+2 1.000000 0.414160 0.474030 0.991250
Zn10  Zn    Zn3+2 0.585840 0.000000 0.474030 0.986818
Zn11  Zn    Zn3+2 0.000000 0.585840 0.474030 0.990174
Zn12  Zn    Zn3+2 0.914160 0.500000 0.974030 0.993864
Zn13  Zn    Zn3+2 0.500000 0.914160 0.974030 0.990365
Zn14  Zn    Zn3+2 0.085840 0.500000 0.974030 0.987049
Zn15  Zn    Zn3+2 0.500000 0.085840 0.974030 0.990907
Zn16  Zn    Zn3+2 0.500000 0.085780 0.525960 1.024415

loop_
_geom_bond_atom_site_label_1
_geom_bond_atom_site_label_2
_ccdc_geom_bond_type
C103  N28   S    
H47   N28   S    
C3    C105  A    
O18   Zn16  S    
H67   N13   S    
O42   Zn12  S    
C62   O47   A    
C12   C104  A    
C74   N17   S    
C84   O49   S    
C20   C40   A    
H11   N19   S    
H44   N27   S    
C28   O76   S    
C23   C43   A    
C94   O59   S    
C36   O3    A    
C74   C92   D    
C52   C84   S    
C18   C40   A    
C76   C94   D    
H66   N38   S    
H60   N35   S    
C78   C96   D    
C46   O11   A    
C64   O44   A    
C58   N48   A    
H92   O79   S    
C1    C37   S    
C100  O65   S    
C2    N12   A    
H72   N40   S    
O1    Zn16  S    
C16   C109  A    
C14   C45   S    
H38   O60   S    
C67   C85   D    
C40   C58   S    
C6    N42   S    
H6    N16   S    
C29   O77   S    
C62   O27   A    
O19   Zn4   S    
C44   O5    A    
C45   O8    A    
C27   C35   A    
C101  C110  A    
N1    N5    A    
C15   C108  A    
C55   C92   S    
H61   N35   S    
C25   O56   A    
C47   O4    A    
C68   C72   S    
O38   Zn10  S    
C31   O80   S    
O9    Zn12  S    
H88   O75   S    
H19   N22   S    
C83   C100  D    
C53   C89   S    
H15   N20   S    
O23   Zn7   S    
H36   O58   S    
C30   O79   S    
C75   C93   D    
C41   C69   S    
C5    C107  A    
C51   O31   A    
C79   C97   D    
C67   N10   S    
H80   O66   S    
H85   O72   S    
H69   N39   S    
O36   Zn1   S    
C107  N32   S    
C29   C35   A    
C33   C38   A    
O3    Zn5   S    
H81   O68   S    
H4    N15   S    
C12   C44   S    
N6    N12   A    
C61   O26   A    
C46   O9    A    
H71   N40   S    
O34   Zn8   S    
H12   N9    S    
H73   N41   S    
C71   C88   D    
H34   N10   S    
C77   N20   S    
H48   N28   S    
C82   N25   S    
C60   O25   A    
C50   O35   A    
H95   O82   S    
H28   O50   S    
O17   Zn4   S    
C44   O7    A    
C58   N3    A    
O23   Zn12  S    
C78   N21   S    
C55   O20   A    
O47   Zn14  S    
C15   C106  A    
C73   C90   D    
C54   C90   S    
C66   N9    S    
O40   Zn14  S    
H32   O54   S    
C56   C88   S    
C34   O83   S    
C47   O2    A    
C66   C74   S    
C70   N13   S    
H74   N41   S    
C63   C99   S    
C14   C105  A    
O1    Zn10  S    
H57   N32   S    
C108  N33   S    
H79   N43   S    
O23   Zn5   S    
H62   N36   S    
C57   O22   A    
O78   Zn2   S    
C63   O48   A    
C51   O16   A    
H24   N25   S    
H90   O76   S    
C36   O84   A    
C70   C87   D    
C26   O74   S    
C63   O28   A    
O35   Zn9   S    
O1    Zn1   S    
H63   N36   S    
O25   Zn7   S    
C61   O41   A    
C34   C39   A    
C76   C82   S    
C104  C112  A    
C87   O52   S    
C4    C106  A    
C7    N43   S    
O34   Zn6   S    
N2    N45   A    
C3    C9    A    
C8    C110  A    
O32   Zn11  S    
O28   Zn8   S    
O2    Zn8   S    
C19   C28   A    
C2    N34   A    
C53   O18   A    
C57   C94   S    
H96   O83   S    
O12   Zn9   S    
N3    N46   A    
C53   O38   A    
O29   Zn7   S    
O21   Zn2   S    
C56   O21   A    
C36   C39   S    
C52   O32   A    
C102  N1    A    
O14   Zn16  S    
C80   N5    A    
H43   O65   S    
O12   Zn2   S    
H86   O73   S    
H21   N24   S    
C12   C101  A    
H91   O77   S    
C14   C103  A    
C28   C37   A    
C27   O75   S    
C13   N46   A    
O22   Zn5   S    
C50   O15   A    
H93   O80   S    
H5    N16   S    
H40   O62   S    
C69   N2    A    
C15   C46   S    
H25   N26   S    
C59   O24   A    
C2    C9    S    
C85   O50   S    
C64   O29   A    
O1    Zn3   S    
H87   O74   S    
H16   N21   S    
C24   C42   A    
C82   C99   D    
H58   N33   S    
H83   O70   S    
C89   O54   S    
C19   O68   S    
H94   O81   S    
C88   O53   S    
O11   Zn14  S    
H3    N15   S    
O45   Zn3   S    
C5    C11   A    
C8    C112  A    
C61   C93   S    
C20   O69   S    
O56   Zn4   S    
H49   N29   S    
C81   C98   D    
H18   N22   S    
O26   Zn8   S    
H10   N18   S    
O20   Zn3   S    
C22   O71   S    
C103  C111  A    
C32   C39   A    
O7    Zn10  S    
C16   C107  A    
C92   O57   S    
H65   N37   S    
O12   Zn11  S    
C70   C71   S    
C67   C73   S    
O84   Zn7   S    
C21   O70   S    
O5    Zn1   S    
C49   O14   A    
C71   N14   S    
H59   N33   S    
C76   N19   S    
C3    N39   S    
H31   O53   S    
C55   O36   A    
C80   N7    A    
C104  N29   S    
O12   Zn4   S    
C5    N41   S    
C68   N11   S    
H50   N29   S    
H54   N31   S    
C72   N15   S    
H9    N18   S    
C30   C37   A    
C65   O30   A    
O13   Zn15  S    
C112  N38   S    
C91   N8    A    
C48   O10   A    
C111  N37   S    
O34   Zn15  S    
C69   N4    A    
H2    N14   S    
C32   O81   S    
O67   Zn16  S    
C25   C35   S    
C59   O43   A    
C60   C96   S    
C86   O51   S    
H52   N30   S    
C102  N23   A    
H26   N26   S    
C90   O55   S    
C11   C17   S    
O43   Zn13  S    
O24   Zn6   S    
C96   O61   S    
C6    C10   A    
H64   N37   S    
O31   Zn10  S    
C21   C30   A    
C24   C33   A    
C31   C38   A    
H77   N43   S    
C23   C32   A    
H23   N10   S    
N8    N34   A    
C75   C83   S    
N4    N47   A    
C97   O62   S    
H56   N11   S    
C99   O64   S    
H30   O52   S    
C25   O78   A    
C64   C100  S    
O23   Zn14  S    
H13   N19   S    
C19   C41   A    
C56   O37   A    
C9    C111  A    
O46   Zn15  S    
C42   C80   S    
C68   C86   D    
C49   O33   A    
H45   N11   S    
O30   Zn6   S    
C16   C48   S    
C22   C42   A    
C7    C11   A    
O48   Zn13  S    
C17   N45   A    
H84   O71   S    
N7    N23   A    
C91   N6    A    
C109  N35   S    
H17   N21   S    
C95   O60   S    
H39   O61   S    
O34   Zn13  S    
O37   Zn11  S    
O33   Zn1   S    
O39   Zn9   S    
C62   C98   S    
C23   O72   S    
C26   C34   A    
C4    N40   S    
C54   O19   A    
C81   N24   S    
C101  N27   S    
O16   Zn3   S    
C105  N30   S    
O41   Zn15  S    
C77   C81   S    
C18   O66   S    
C54   O39   A    
N44   N48   A    
C1    O45   A    
O8    Zn11  S    
C59   C95   S    
H89   N14   S    
H20   N24   S    
H1    N9    S    
C1    O67   A    
C26   C43   A    
H37   O59   S    
O4    Zn6   S    
C20   C29   A    
H53   N31   S    
H82   O69   S    
C22   C31   A    
C49   C85   S    
C57   O42   A    
H41   O63   S    
H78   N13   S    
C51   C87   S    
H42   O64   S    
C78   C79   S    
H29   O51   S    
C77   C95   D    
C43   C91   S    
C7    C109  A    
C98   O63   S    
O10   Zn13  S    
C79   N22   S    
O44   Zn12  S    
H46   N27   S    
H33   O55   S    
C83   N26   S    
O6    Zn9   S    
C93   O58   S    
H76   N42   S    
C38   C47   S    
H51   N30   S    
O15   Zn2   S    
H55   N32   S    
C48   O13   A    
C21   C41   A    
C24   O73   S    
C4    C10   A    
H7    N17   S    
C13   N44   A    
C17   N47   A    
C73   N16   S    
C75   N18   S    
H14   N20   S    
C18   C27   A    
C10   C13   S    
C52   O17   A    
H27   O49   S    
C65   O46   A    
C33   O82   S    
C106  N31   S    
H75   N42   S    
C65   C97   S    
H70   N39   S    
C72   C89   D    
C45   O6    A    
C60   O40   A    
H22   N25   S    
O27   Zn5   S    
C50   C86   S    
C66   C84   D    
C110  N36   S    
C6    C108  A    
C8    C102  S    
H8    N17   S    
H35   O57   S    
H68   N38   S    
