data_mof_unit_18930.cif
_audit_creation_date              2013-03-05T16:41:45-0500
_audit_creation_method            fapswitch 2.2
_symmetry_space_group_name_H-M    P1
_symmetry_Int_Tables_number       1
_space_group_crystal_system       triclinic
_cell_length_a                    10.7268
_cell_length_b                    10.742265
_cell_length_c                    9.85109
_cell_angle_alpha                 88.801489
_cell_angle_beta                  89.88076
_cell_angle_gamma                 90.043373
_cell_volume                      1134.89120409

loop_
_atom_site_label
_atom_site_type_symbol
_atom_site_description
_atom_site_fract_x
_atom_site_fract_y
_atom_site_fract_z
_atom_type_partial_charge
O1    O     O_R   0.500020 0.316790 0.614690 -0.581288
O2    O     O_R   0.500000 0.316760 0.385350 -0.629511
C1    C     C_R   0.504101 0.259703 0.500444 0.874459
O3    O     O_R   0.316770 0.500020 0.614690 -0.579288
O4    O     O_R   0.316760 0.499980 0.385350 -0.630750
C2    C     C_R   0.260334 0.513174 0.500553 0.933517
Zn1   Zn    Zn3+2 0.500010 0.500020 0.653130 1.005939
Zn2   Zn    Zn3+2 0.499990 0.499980 0.346870 0.952448
O5    O     O_R   0.500000 0.683240 0.614650 -0.611110
O6    O     O_R   0.499980 0.683210 0.385310 -0.632241
O7    O     O_R   0.683240 0.500020 0.614650 -0.641040
O8    O     O_R   0.683230 0.499980 0.385310 -0.632221
C3    C     C_R   0.504194 0.739968 0.498732 0.911101
C4    C     C_R   0.740086 0.489318 0.500768 0.864028
H1    H     H_    0.111542 0.522182 0.283544 0.161730
C5    C     C_R   0.108779 0.573279 0.751475 0.635544
C6    C     C_R   0.049276 0.545082 0.874494 -0.268992
H2    H     H_    0.087668 0.577806 0.968863 0.154209
C7    C     C_R   0.943340 0.470567 0.876059 -0.268663
H3    H     H_    0.901126 0.442081 0.971695 0.164432
C8    C     C_R   0.888197 0.438091 0.753763 -0.158933
H4    H     H_    0.805848 0.380033 0.758623 0.175945
C9    C     C_R   0.939508 0.480224 0.628360 0.035438
C10   C     C_R   0.060423 0.528289 0.627825 -0.015894
C11   C     C_R   0.126701 0.527922 0.503210 -0.087586
C12   C     C_R   0.063518 0.516838 0.380226 -0.213005
H5    H     H_    0.889357 0.496786 0.283608 0.159489
C13   C     C_R   0.937237 0.497870 0.380333 -0.204551
C14   C     C_R   0.874087 0.480693 0.503511 -0.087929
C15   C     C_R   0.556004 0.060804 0.613976 0.053012
C16   C     C_R   0.524030 0.128128 0.497219 -0.080050
C17   C     C_R   0.516944 0.066547 0.372754 -0.195663
H6    H     H_    0.501772 0.116541 0.277566 0.177978
C18   C     C_R   0.517236 0.937783 0.371854 -0.212618
H7    H     H_    0.502428 0.891687 0.276425 0.170172
C19   C     C_R   0.523937 0.871062 0.495400 -0.060678
C20   C     C_R   0.554456 0.933357 0.613721 0.109780
C21   C     C_3   0.506021 0.924273 0.756784 -0.334841
C22   C     C_3   0.504418 0.065512 0.754039 -0.368834
H8    H     H_    0.575971 0.884095 0.828426 0.136560
H9    H     H_    0.408879 0.104729 0.751217 0.283430
H10   H     H_    0.570714 0.107507 0.826640 0.220349
C23   C     C_R   0.391728 0.481229 0.072777 0.104719
N1    N     N_R   0.499160 0.499140 0.142800 -0.088573
C24   C     C_R   0.603253 0.533808 0.070880 -0.116680
H11   H     H_    0.687297 0.559116 0.124054 0.142556
C25   C     C_R   0.602765 0.535056 0.926908 -0.147225
H12   H     H_    0.685637 0.563181 0.872059 0.161267
N2    N     N_R   0.499160 0.499180 0.857150 -0.083629
C26   C     C_R   0.392347 0.478402 0.930029 0.180532
C27   C     C_3   0.317365 0.361249 0.934137 0.419822
C28   C     C_3   0.310587 0.369793 0.086916 -0.521762
H13   H     H_    0.226370 0.367066 0.881525 0.090133
H14   H     H_    0.215866 0.393407 0.123894 0.147934
H15   H     H_    0.356400 0.291175 0.142506 0.243110
F1    F     F_    0.388652 0.261462 0.897811 -0.685412
F2    F     F_    0.207090 0.652145 0.753343 -0.677063
C29   C     C_2   0.377719 0.868950 0.774278 0.585825
H16   H     H_    0.359690 0.806423 0.860010 0.086672
O9    O     O_2   0.293389 0.895495 0.695608 -0.526102

loop_
_geom_bond_atom_site_label_1
_geom_bond_atom_site_label_2
_geom_bond_distance
_ccdc_geom_bond_type
C7    C8    1.394009 A    
O4    Zn2   2.000918 S    
C1    C16   1.430653 S    
C9    C10   1.395629 A    
C23   C26   1.407188 A    
C20   C21   1.502259 S    
C27   H13   1.107295 S    
C12   C13   1.369674 A    
C16   C17   1.407475 A    
C28   H15   1.112211 S    
Zn2   O8    2.002496 S    
C17   H6    1.083457 S    
C24   C25   1.418086 A    
C6    H2    1.082790 S    
C29   H16   1.085002 S    
C5    C10   1.418887 A    
O1    Zn1   2.012163 S    
C24   H11   1.081020 S    
C10   C11   1.417403 A    
C21   H8    1.112357 S    
Zn1   N2    2.009653 S    
O4    C2    1.295524 A    
O3    Zn1   2.002497 S    
C9    C14   1.417203 A    
C8    H4    1.081337 S    
C13   C14   1.397268 A    
C6    C7    1.389351 A    
C28   H14   1.110001 S    
C15   C22   1.487388 S    
Zn1   O7    2.000917 S    
C22   H10   1.111701 S    
C18   C19   1.401448 A    
C5    F2    1.352608 S    
C8    C9    1.416793 A    
C23   N1    1.359926 A    
C15   C16   1.389540 A    
C18   H7    1.083592 S    
O7    C4    1.283065 A    
C23   C28   1.483548 S    
C2    C11   1.442547 S    
C4    C14   1.440731 S    
C29   O9    1.222393 D    
C27   C28   1.511360 S    
C25   H12   1.078995 S    
Zn1   O5    1.996568 S    
C21   C22   1.517015 S    
N1    C24   1.368376 A    
C22   H9    1.108507 S    
C3    C19   1.423613 S    
C25   N2    1.367287 A    
C27   F1    1.370392 S    
H5    C13   1.083668 S    
N2    C26   1.366569 A    
O5    C3    1.283737 A    
C19   C20   1.395525 A    
H1    C12   1.082315 S    
O2    C1    1.278394 A    
C26   C27   1.492836 S    
C11   C12   1.396659 A    
C21   C29   1.506819 S    
O3    C2    1.283344 A    
O6    C3    1.284866 A    
Zn2   O6    2.012164 S    
O2    Zn2   1.996568 S    
C7    H3    1.082688 S    
C15   C20   1.369209 A    
O8    C4    1.294708 A    
C5    C6    1.396034 A    
O1    C1    1.293571 A    
Zn2   N1    2.010559 S    
C17   C18   1.383445 A    
