data_mof_unit_18120.cif
_audit_creation_date              2013-03-05T16:12:13-0500
_audit_creation_method            fapswitch 2.2
_symmetry_space_group_name_H-M    P1
_symmetry_Int_Tables_number       1
_space_group_crystal_system       triclinic
_cell_length_a                    10.717456
_cell_length_b                    9.40473
_cell_length_c                    27.771782
_cell_angle_alpha                 89.736178
_cell_angle_beta                  89.998098
_cell_angle_gamma                 89.987564
_cell_volume                      2799.22091379

loop_
_atom_site_label
_atom_site_type_symbol
_atom_site_description
_atom_site_fract_x
_atom_site_fract_y
_atom_site_fract_z
_atom_type_partial_charge
O1    O     O_R   0.317570 0.620260 0.500030 -0.595673
O2    O     O_R   0.317570 0.379740 0.500030 -0.596233
C1    C     C_R   0.259638 0.499804 0.500073 0.768284
O3    O     O_R   0.499900 0.620250 0.430280 -0.592454
O4    O     O_R   0.499900 0.379750 0.430280 -0.593340
C2    C     C_R   0.500307 0.500360 0.407402 0.817245
Cu1   Cu    Cu3+1 0.499860 0.642410 0.500020 0.897105
Cu2   Cu    Cu3+1 0.499860 0.357590 0.500020 0.896670
O5    O     O_R   0.682190 0.620260 0.500010 -0.595844
O6    O     O_R   0.682190 0.379740 0.500010 -0.595864
O7    O     O_R   0.499860 0.620280 0.569750 -0.589435
O8    O     O_R   0.499860 0.379720 0.569750 -0.589677
C3    C     C_R   0.740120 0.499785 0.500058 0.767570
C4    C     C_R   0.499845 0.499568 0.592610 0.803327
C5    C     C_R   0.402239 0.513605 0.177019 0.587487
O9    O     O_2   0.295030 0.535986 0.201320 -0.529950
N1    N     N_R   0.512014 0.498448 0.201651 -0.449394
C6    C     C_R   0.622397 0.475215 0.178229 0.597067
C7    C     C_R   0.509061 0.374689 0.278733 -0.110353
C8    C     C_R   0.505120 0.373415 0.328778 -0.202031
C9    C     C_R   0.504239 0.631064 0.328925 -0.265961
C10   C     C_R   0.508909 0.634256 0.278330 0.021813
C11   C     C_R   0.510937 0.503477 0.253246 0.284849
C12   C     C_R   0.513292 0.481243 0.101717 -0.046333
C13   C     C_R   0.400813 0.505656 0.126576 -0.021670
C14   C     C_R   0.290379 0.524727 0.100508 -0.133028
C15   C     C_R   0.625321 0.467511 0.127782 -0.019385
C16   C     C_R   0.502697 0.501506 0.354343 -0.072759
H1    H     H_    0.503216 0.730155 0.348657 0.178606
H2    H     H_    0.203594 0.550260 0.118504 0.188568
C17   C     C_R   0.500359 0.497456 0.645635 -0.044475
C18   C     C_R   0.399178 0.448834 0.974843 -0.025569
C19   C     C_R   0.628397 0.469822 0.974654 0.031128
C20   C     C_R   0.513793 0.461557 0.949319 0.066309
C21   C     C_R   0.289453 0.412287 0.948634 -0.031858
C22   C     C_R   0.290211 0.421329 0.898410 -0.162467
C23   C     C_R   0.399949 0.451441 0.873136 -0.041388
C24   C     C_R   0.513505 0.466299 0.898214 -0.044276
C25   C     C_R   0.626013 0.486581 0.872159 -0.091875
C26   C     C_R   0.618497 0.502150 0.821433 0.556416
N2    N     N_R   0.506994 0.485900 0.798212 -0.469799
C27   C     C_R   0.399117 0.460143 0.822779 0.555997
C28   C     C_R   0.493921 0.364088 0.720660 -0.100781
C29   C     C_R   0.492334 0.367232 0.670527 -0.223453
C30   C     C_R   0.509680 0.624497 0.671897 -0.226161
C31   C     C_R   0.511666 0.620942 0.722167 -0.093793
C32   C     C_R   0.503862 0.490670 0.746620 0.358948
O10   O     O_2   0.291053 0.444125 0.798411 -0.535964
C33   C     C_R   0.399448 0.474497 0.025256 0.066100
C34   C     C_R   0.513761 0.471449 0.050770 0.075985
C35   C     C_R   0.628472 0.460673 0.025747 0.055585
C36   C     C_R   0.290150 0.511820 0.050637 -0.141979
H3    H     H_    0.484916 0.267616 0.651321 0.147038
H4    H     H_    0.205305 0.397607 0.878805 0.212135
H5    H     H_    0.203759 0.535258 0.032217 0.148390
O11   O     O_2   0.728884 0.460654 0.203712 -0.527446
C37   C     C_R   0.737282 0.446092 0.103002 -0.138484
H6    H     H_    0.504038 0.271983 0.347396 0.158649
H7    H     H_    0.510229 0.274831 0.259460 0.161538
H8    H     H_    0.824479 0.432597 0.122226 0.190523
C38   C     C_R   0.739399 0.488229 0.948166 -0.222030
C39   C     C_R   0.740206 0.493924 0.897900 -0.017809
O12   O     O_2   0.720464 0.535263 0.795281 -0.509442
C40   C     C_R   0.739218 0.443556 0.052917 -0.195217
H9    H     H_    0.828206 0.500291 0.965944 0.179757
H10   H     H_    0.516098 0.726275 0.653660 0.146314
H11   H     H_    0.519329 0.719157 0.742141 0.141517
H12   H     H_    0.828741 0.424159 0.036497 0.157524
C41   C     C_3   0.071848 0.576786 0.545328 -0.375374
C42   C     C_3   0.071282 0.344139 0.500632 -0.376417
H13   H     H_    0.106205 0.688464 0.545930 0.161359
H14   H     H_    0.105394 0.285532 0.468455 0.165085
H15   H     H_    0.106725 0.523251 0.578530 0.160379
H16   H     H_    0.105478 0.286550 0.533187 0.161328
C43   C     C_3   0.927846 0.576820 0.545315 -0.374680
C44   C     C_3   0.928532 0.344125 0.500657 -0.376094
H17   H     H_    0.892925 0.523370 0.578524 0.160819
H18   H     H_    0.894445 0.286656 0.533249 0.161340
H19   H     H_    0.893491 0.688515 0.545888 0.161225
H20   H     H_    0.894364 0.285397 0.468517 0.165085
H21   H     H_    0.106175 0.687147 0.453130 0.164642
H22   H     H_    0.106801 0.521057 0.421561 0.162549
H23   H     H_    0.893446 0.687042 0.453079 0.164325
H24   H     H_    0.893049 0.520881 0.421553 0.162023
C45   C     C_3   0.071861 0.575478 0.454420 -0.372854
C46   C     C_3   0.121716 0.499085 0.500116 0.153367
C47   C     C_3   0.878037 0.499058 0.500110 0.153873
C48   C     C_3   0.927880 0.575407 0.454406 -0.374349
C49   C     C_3   0.609700 0.083476 0.527207 -0.189640
C50   C     C_3   0.609718 0.915773 0.527207 -0.188771
H25   H     H_    0.610847 0.122729 0.564921 0.141422
H26   H     H_    0.610837 0.875587 0.564931 0.140818
H27   H     H_    0.697686 0.120872 0.510228 0.139185
H28   H     H_    0.697758 0.878696 0.510263 0.139627
C51   C     C_3   0.387180 0.083514 0.524774 -0.190052
C52   C     C_3   0.387185 0.915892 0.524787 -0.189393
C53   C     C_3   0.503912 0.084188 0.451515 -0.178273
C54   C     C_3   0.503902 0.916954 0.451517 -0.178803
N3    N     N_3   0.500250 0.143650 0.501060 -0.115739
N4    N     N_3   0.500250 0.856350 0.501060 -0.116428
H29   H     H_    0.421986 0.122946 0.430634 0.145622
H30   H     H_    0.421996 0.878665 0.430652 0.147257
H31   H     H_    0.301841 0.120745 0.505835 0.139801
H32   H     H_    0.301770 0.879042 0.505910 0.140128
C55   C     C_2   0.864214 0.499622 0.874387 0.977587
O13   O     O_2   0.937509 0.594457 0.884680 -0.568258
O14   O     O_R   0.899435 0.392605 0.842328 -0.704405
H33   H     H_    0.986892 0.406965 0.829256 0.353406
C56   C     C_2   0.512645 0.774437 0.253010 0.871262
O15   O     O_2   0.487731 0.883307 0.274977 -0.617087
O16   O     O_R   0.546068 0.783679 0.204432 -0.753251
H34   H     H_    0.545037 0.884941 0.191754 0.341389
H35   H     H_    0.380418 0.122956 0.562382 0.139732
H36   H     H_    0.380533 0.875569 0.562415 0.141664
H37   H     H_    0.588581 0.123259 0.432410 0.143413
H38   H     H_    0.588540 0.878230 0.432422 0.143722
H39   H     H_    0.488073 0.263143 0.739442 0.139455
C57   C     C_2   0.179237 0.342959 0.971274 0.828299
O17   O     O_2   0.074643 0.363894 0.955090 -0.602642
O18   O     O_R   0.195609 0.249788 0.010169 -0.743171
H40   H     H_    0.113847 0.208978 0.022315 0.339703

loop_
_geom_bond_atom_site_label_1
_geom_bond_atom_site_label_2
_geom_bond_distance
_ccdc_geom_bond_type
C47   C48   1.550414 S    
N2    C27   1.363616 A    
C21   C22   1.397024 A    
C12   C15   1.407622 A    
C4    C17   1.472654 S    
C53   C54   1.572790 S    
Cu1   Cu2   2.678654 S    
C39   C55   1.481647 S    
C45   C46   1.550384 S    
Cu1   O7    1.946725 S    
C55   O14   1.398656 S    
N1    C11   1.433946 S    
C26   O12   1.347874 S    
C49   N3    1.489818 S    
C40   H12   1.078166 S    
C22   C23   1.397992 A    
Cu2   N3    2.012126 S    
C44   H18   1.113739 S    
C56   O16   1.398152 S    
O4    C2    1.297582 A    
O7    C4    1.298169 A    
C51   N3    1.489606 S    
C5    C13   1.403302 A    
C5    O9    1.349511 S    
N1    C6    1.368045 A    
C23   C27   1.400532 A    
C41   H13   1.113249 S    
O5    C3    1.291862 A    
C57   O17   1.223317 D    
C54   H38   1.112790 S    
C29   H3    1.083119 S    
C2    C16   1.473752 S    
C51   C52   1.576432 S    
C42   H16   1.113765 S    
O14   H33   1.013993 S    
C41   H15   1.113158 S    
C53   H37   1.112784 S    
C36   H5    1.080019 S    
C6    O11   1.349527 S    
C33   C36   1.412175 A    
H23   C48   1.113243 S    
O1    Cu1   1.964805 S    
C9    C10   1.406199 A    
C1    C46   1.478188 S    
C52   H36   1.112302 S    
O3    Cu1   1.948938 S    
C50   N4    1.490014 S    
C53   N3    1.488145 S    
C51   H31   1.110853 S    
H21   C45   1.113241 S    
C50   H28   1.111159 S    
C12   C34   1.418299 A    
C17   C29   1.406215 A    
C6    C15   1.403551 A    
C18   C21   1.425969 A    
C44   H20   1.113774 S    
C12   C13   1.408485 A    
O3    C2    1.296779 A    
C15   C37   1.398259 A    
C25   C26   1.417963 A    
C37   H8    1.083435 S    
C8    C16   1.401355 A    
C7    H7    1.083169 S    
C13   C14   1.398531 A    
C54   H30   1.112711 S    
C9    H1    1.083324 S    
O1    C1    1.291955 A    
C18   C20   1.422999 A    
C7    C11   1.400208 A    
C28   C29   1.392587 A    
C23   C24   1.409540 A    
C14   C36   1.390877 A    
C50   H26   1.112159 S    
Cu2   O8    1.948631 S    
C10   C56   1.491855 S    
C3    C47   1.478133 S    
C34   C35   1.416043 A    
N2    C32   1.433677 S    
C27   O10   1.350228 S    
C43   H17   1.113161 S    
C44   C47   1.554256 S    
C28   H39   1.082932 S    
C43   C47   1.550665 S    
C26   N2    1.366893 A    
C9    C16   1.405450 A    
O8    C4    1.296181 A    
C14   H2    1.083304 S    
C54   N4    1.487357 S    
C52   H32   1.111226 S    
C42   C44   1.529919 S    
C49   H25   1.112199 S    
C8    H6    1.083027 S    
C42   C46   1.554358 S    
O18   H40   1.013852 S    
C37   C40   1.391424 A    
C45   C48   1.543114 S    
Cu1   O5    1.965141 S    
C25   C39   1.419207 A    
C31   C32   1.400570 A    
O16   H34   1.013881 S    
C20   C24   1.419773 A    
O2    Cu2   1.964716 S    
C35   C40   1.415243 A    
H24   C48   1.113182 S    
O6    C3    1.288571 A    
O4    Cu2   1.947030 S    
C5    N1    1.368037 A    
Cu1   N4    2.012393 S    
C19   C35   1.421169 A    
H22   C45   1.113170 S    
C55   O13   1.223493 D    
C7    C8    1.390476 A    
O2    C1    1.288501 A    
C31   H11   1.082773 S    
C56   O15   1.223694 D    
C24   C25   1.418698 A    
C43   H19   1.113233 S    
C51   H35   1.112322 S    
C19   C38   1.408982 A    
C52   N4    1.489712 S    
C19   C20   1.417845 A    
C41   C43   1.543335 S    
C38   H9    1.078483 S    
C49   H27   1.110790 S    
C38   C39   1.396806 A    
C57   O18   1.398790 S    
C18   C33   1.421816 A    
C22   H4    1.084210 S    
C30   C31   1.396497 A    
Cu2   O6    1.965231 S    
C33   C34   1.415535 A    
C17   C30   1.406244 A    
C30   H10   1.083069 S    
C10   C11   1.416461 A    
C21   C57   1.487373 S    
C42   H14   1.113760 S    
C49   C50   1.577200 S    
C28   C32   1.398684 A    
C53   H29   1.112696 S    
C41   C46   1.550618 S    
