data_mof_unit_32361.cif
_audit_creation_date              2012-12-11T15:35:54-0500
_audit_creation_method            fapswitch 2.2
_symmetry_space_group_name_H-M    P1
_symmetry_Int_Tables_number       1
_space_group_crystal_system       triclinic
_cell_length_a                    7.072626
_cell_length_b                    11.795968
_cell_length_c                    35.755472
_cell_angle_alpha                 90.033411
_cell_angle_beta                  90.373044
_cell_angle_gamma                 89.857002
_cell_volume                      2982.95132578

loop_
_atom_site_label
_atom_site_type_symbol
_atom_type_description
_atom_site_fract_x
_atom_site_fract_y
_atom_site_fract_z
_atom_type_partial_charge
O1    O     O_R   0.379730 0.148600 0.662710 -0.542022
O2    O     O_R   0.620270 0.851400 0.337290 -0.534887
O3    O     O_R   0.120270 0.648600 0.337290 -0.541919
O4    O     O_R   0.879730 0.351400 0.662710 -0.536901
O5    O     O_R   0.722480 0.134490 0.741330 -0.537982
O6    O     O_R   0.277520 0.865510 0.258670 -0.521207
O7    O     O_R   0.777520 0.634490 0.258670 -0.537257
O8    O     O_R   0.222480 0.365510 0.741330 -0.521859
O9    O     O_R   0.892880 0.345890 0.741600 -0.525531
O10   O     O_R   0.107120 0.654110 0.258400 -0.539285
O11   O     O_R   0.607120 0.845890 0.258400 -0.524163
O12   O     O_R   0.392880 0.154110 0.741600 -0.537002
C1    C     C_R   0.552644 0.107160 0.752219 0.708104
C2    C     C_R   0.445253 0.878971 0.243444 0.724638
C3    C     C_R   0.948520 0.605672 0.248318 0.709082
C4    C     C_R   0.053825 0.379540 0.756455 0.723795
O13   O     O_R   0.709490 0.135560 0.662990 -0.543492
O14   O     O_R   0.290510 0.864440 0.337010 -0.539618
O15   O     O_R   0.790510 0.635560 0.337010 -0.544571
O16   O     O_R   0.209490 0.364440 0.662990 -0.537640
C5    C     C_R   0.540833 0.106906 0.651269 0.677286
C6    C     C_R   0.459155 0.893033 0.348752 0.704298
C7    C     C_R   0.959428 0.607003 0.348747 0.675411
C8    C     C_R   0.040582 0.392967 0.651244 0.703050
O17   O     O_3   0.552800 0.316610 0.702160 -0.354766
O18   O     O_3   0.447200 0.683390 0.297840 -0.377059
O19   O     O_3   0.947200 0.816610 0.297840 -0.353074
O20   O     O_3   0.052800 0.183390 0.702160 -0.375809
V1    V     V_3+5 0.827630 0.234380 0.702160 1.468258
V2    V     V_3+5 0.172370 0.765620 0.297840 1.486505
V3    V     V_3+5 0.672370 0.734380 0.297840 1.469734
V4    V     V_3+5 0.327630 0.265620 0.702160 1.487267
C9    C     C_R   0.025268 0.588557 0.932991 0.554810
C10   C     C_R   0.873695 0.248903 0.115769 0.607194
C11   C     C_R   0.494157 0.083027 0.066213 0.553857
C12   C     C_R   0.420462 0.752613 0.885756 0.585897
O21   O     O_2   0.079119 0.479821 0.936880 -0.553335
O22   O     O_2   0.786209 0.349363 0.110283 -0.536266
O23   O     O_2   0.549426 0.974355 0.062990 -0.552838
O24   O     O_2   0.328281 0.851721 0.890707 -0.536024
N1    N     N_R   0.991828 0.634924 0.897687 -0.537748
N2    N     N_R   0.930610 0.216056 0.151220 -0.503606
N3    N     N_R   0.446438 0.128349 0.100893 -0.535856
N4    N     N_R   0.484793 0.721325 0.850785 -0.508260
C13   C     C_R   0.926511 0.744265 0.897309 0.635923
C14   C     C_R   0.983444 0.103727 0.156146 0.661707
C15   C     C_R   0.377083 0.236657 0.100479 0.631525
C16   C     C_R   0.542707 0.609720 0.846166 0.663182
C17   C     C_R   0.046154 0.625938 0.825418 0.341556
C18   C     C_R   0.925526 0.299206 0.218458 0.340951
C19   C     C_R   0.478466 0.121530 0.173420 0.329690
C20   C     C_R   0.497421 0.803806 0.783303 0.346058
C21   C     C_R   0.053525 0.561631 0.792242 -0.086816
C22   C     C_R   0.921736 0.398209 0.240301 -0.198082
C23   C     C_R   0.469984 0.059294 0.206982 -0.073846
C24   C     C_R   0.506376 0.901580 0.760972 -0.197334
C25   C     C_R   0.008934 0.390130 0.826387 -0.226946
C26   C     C_R   0.024559 0.511633 0.188527 -0.217517
C27   C     C_R   0.436910 0.886063 0.172892 -0.233622
C28   C     C_R   0.577967 0.018108 0.814313 -0.218080
C29   C     C_R   0.992368 0.452189 0.859939 -0.131057
C30   C     C_R   0.024251 0.415578 0.166107 -0.019556
C31   C     C_R   0.435726 0.946436 0.138836 -0.134734
C32   C     C_R   0.567865 0.923146 0.837020 -0.017637
C33   C     C_R   0.013339 0.572085 0.861478 0.242128
C34   C     C_R   0.964353 0.307030 0.179161 0.382489
C35   C     C_R   0.457170 0.066116 0.137299 0.234453
C36   C     C_R   0.518681 0.813265 0.823215 0.394946
C37   C     C_R   0.980781 0.773392 0.963102 -0.058413
C38   C     C_R   0.953741 0.065771 0.089514 -0.023808
C39   C     C_R   0.461083 0.269028 0.036338 -0.056805
C40   C     C_R   0.493635 0.568453 0.912035 -0.029801
C41   C     C_R   0.007287 0.655847 0.966243 -0.019953
C42   C     C_R   0.912514 0.180875 0.084519 -0.042542
C43   C     C_R   0.489672 0.151623 0.033064 -0.022823
C44   C     C_R   0.451523 0.683345 0.917073 -0.052086
C45   C     C_R   0.021678 0.609754 0.002325 -0.126225
C46   C     C_R   0.918067 0.227213 0.048678 -0.164713
C47   C     C_R   0.520322 0.107358 0.997158 -0.118631
C48   C     C_R   0.443623 0.727711 0.953183 -0.161379
C49   C     C_R   0.945559 0.817620 0.927728 0.008231
C50   C     C_R   0.974047 0.024930 0.126055 -0.056091
C51   C     C_R   0.408410 0.311473 0.071023 0.013813
C52   C     C_R   0.526274 0.529505 0.875677 -0.060687
C53   C     C_R   0.041630 0.444453 0.792249 -0.061259
C54   C     C_R   0.964370 0.504169 0.225133 -0.067757
C55   C     C_R   0.453015 0.942191 0.207303 -0.052315
C56   C     C_R   0.541035 0.008226 0.776478 -0.062266
H1    H     H_    0.991370 0.298951 0.827042 0.123043
H2    H     H_    0.064117 0.592755 0.176728 0.111210
H3    H     H_    0.418313 0.794950 0.172341 0.121922
H4    H     H_    0.613082 0.099686 0.826452 0.107555
H5    H     H_    0.952473 0.403870 0.884121 0.187707
H6    H     H_    0.063421 0.429498 0.137378 0.162710
H7    H     H_    0.406432 0.897376 0.114095 0.188358
H8    H     H_    0.598726 0.937603 0.866242 0.154136
H9    H     H_    0.037765 0.519142 0.006120 0.158753
H10   H     H_    0.899010 0.317460 0.044324 0.161322
H11   H     H_    0.538802 0.016982 0.993181 0.156798
H12   H     H_    0.423144 0.817725 0.957785 0.161910
C57   C     C_R   0.993461 0.873259 0.063387 0.071689
C58   C     C_R   0.964801 0.965633 0.989954 0.032495
C59   C     C_R   0.521706 0.374391 0.937521 0.072058
C60   C     C_R   0.459978 0.462694 0.010625 0.033934
C61   C     C_R   0.965150 0.039020 0.021486 0.035470
C62   C     C_R   0.999430 0.799323 0.031441 0.036137
C63   C     C_R   0.476624 0.537845 0.979812 0.041148
C64   C     C_R   0.512478 0.298607 0.968937 0.032279
C65   C     C_R   0.972428 0.992257 0.058016 0.109432
C66   C     C_R   0.982890 0.846330 0.995025 0.059633
C67   C     C_R   0.499456 0.493150 0.943265 0.114320
C68   C     C_R   0.479012 0.343643 0.005126 0.059513
C69   C     C_R   0.004789 0.833390 0.100758 -0.178901
C70   C     C_R   0.936719 0.007164 0.953266 -0.195338
C71   C     C_R   0.548980 0.336652 0.900269 -0.177754
C72   C     C_R   0.413774 0.502274 0.046755 -0.193445
C73   C     C_R   0.997807 0.907910 0.131322 -0.139571
C74   C     C_R   0.922702 0.934342 0.923038 -0.095200
C75   C     C_R   0.553408 0.412833 0.870153 -0.146907
C76   C     C_R   0.382951 0.427831 0.075942 -0.089930
O25   O     O_2   0.058145 0.068072 0.188598 -0.504187
O26   O     O_2   0.827827 0.781708 0.868472 -0.542133
O27   O     O_2   0.629146 0.576232 0.814802 -0.500729
O28   O     O_2   0.264744 0.271456 0.127511 -0.550732
C77   C     C_R   0.016059 0.679519 0.034213 -0.190466
C78   C     C_R   0.951939 0.158504 0.017885 -0.168833
C79   C     C_R   0.529517 0.178878 0.965739 -0.186635
C80   C     C_R   0.463805 0.657129 0.984002 -0.164066
H13   H     H_    0.882324 0.392944 0.269503 0.131881
H14   H     H_    0.065384 0.604002 0.765527 0.173554
H15   H     H_    0.484731 0.894718 0.731002 0.130573
H16   H     H_    0.474271 0.103286 0.233558 0.171564
H17   H     H_    0.011641 0.873266 0.159263 0.158991
H18   H     H_    0.899192 0.970590 0.895568 0.160139
H19   H     H_    0.577589 0.379661 0.842327 0.160229
H20   H     H_    0.345478 0.462550 0.102946 0.156307
H21   H     H_    0.022178 0.744882 0.107377 0.112046
H22   H     H_    0.918070 0.095527 0.946792 0.125417
H23   H     H_    0.569145 0.248495 0.893446 0.111037
H24   H     H_    0.392884 0.590338 0.053379 0.125989
H25   H     H_    0.026853 0.636781 0.060759 0.124673
H26   H     H_    0.960646 0.201995 0.991509 0.142654
H27   H     H_    0.552487 0.137626 0.939263 0.124815
H28   H     H_    0.462118 0.698995 0.010750 0.143590
C81   C     C_R   0.965682 0.527138 0.379748 -0.035827
C82   C     C_R   0.034402 0.472813 0.620232 -0.041573
C83   C     C_R   0.535114 0.027054 0.620249 -0.036355
C84   C     C_R   0.464805 0.972837 0.379793 -0.040442
C85   C     C_R   0.900680 0.341789 0.404875 -0.163538
C86   C     C_R   0.100192 0.658035 0.595083 -0.169484
C87   C     C_R   0.600433 0.841562 0.595055 -0.163627
C88   C     C_R   0.398830 0.158212 0.405017 -0.169799
C89   C     C_R   0.913591 0.414285 0.374336 -0.173288
C90   C     C_R   0.087162 0.585563 0.625623 -0.163477
C91   C     C_R   0.587479 0.914098 0.625623 -0.173212
C92   C     C_R   0.411859 0.085709 0.374447 -0.160107
C93   C     C_R   0.004302 0.567982 0.415585 -0.218359
C94   C     C_R   0.995419 0.432015 0.584401 -0.222323
C95   C     C_R   0.496216 0.067965 0.584438 -0.218424
C96   C     C_R   0.504017 0.931945 0.415597 -0.223208
C97   C     C_R   0.985905 0.497499 0.447279 0.079361
C98   C     C_R   0.014218 0.502426 0.552697 0.081286
C99   C     C_R   0.514581 0.997440 0.552722 0.079448
C100  C     C_R   0.485331 0.002404 0.447326 0.081374
C101  C     C_R   0.934107 0.382595 0.441204 0.122955
C102  C     C_R   0.066415 0.617272 0.558763 0.125121
C103  C     C_R   0.566678 0.882425 0.558746 0.123433
C104  C     C_R   0.432904 0.117374 0.441314 0.125044
C105  C     C_R   0.012755 0.537909 0.484633 0.051769
C106  C     C_R   0.987417 0.462003 0.515342 0.051954
C107  C     C_R   0.487338 0.037902 0.515394 0.051785
C108  C     C_R   0.512545 0.961927 0.484654 0.052169
C109  C     C_R   0.937626 0.348117 0.507664 -0.195245
C110  C     C_R   0.062809 0.651755 0.492307 -0.195979
C111  C     C_R   0.562652 0.847932 0.492277 -0.195345
C112  C     C_R   0.437026 0.151867 0.507776 -0.196037
C113  C     C_R   0.912168 0.309621 0.471369 -0.196591
C114  C     C_R   0.088475 0.690222 0.528598 -0.196231
C115  C     C_R   0.588509 0.809392 0.528551 -0.196605
C116  C     C_R   0.410994 0.190387 0.471509 -0.196091
H29   H     H_    0.872828 0.221792 0.466913 0.141121
H30   H     H_    0.128112 0.778006 0.533049 0.141074
H31   H     H_    0.628076 0.721481 0.532965 0.141182
H32   H     H_    0.371189 0.278262 0.467101 0.141144
H33   H     H_    0.958281 0.343763 0.582411 0.098623
H34   H     H_    0.040810 0.656326 0.417587 0.099193
H35   H     H_    0.541383 0.843618 0.417544 0.098588
H36   H     H_    0.459377 0.156367 0.582479 0.099122
H37   H     H_    0.120117 0.616919 0.653394 0.135430
H38   H     H_    0.881038 0.382867 0.346557 0.121926
H39   H     H_    0.378858 0.117149 0.346690 0.130806
H40   H     H_    0.620105 0.882629 0.653395 0.122594
H41   H     H_    0.859931 0.254348 0.400197 0.134444
H42   H     H_    0.141365 0.745410 0.599750 0.132055
H43   H     H_    0.641401 0.754035 0.599696 0.133752
H44   H     H_    0.357499 0.245686 0.400389 0.131631
H45   H     H_    0.915955 0.285505 0.529050 0.129920
H46   H     H_    0.084753 0.714328 0.470921 0.129928
H47   H     H_    0.584285 0.785269 0.470863 0.129951
H48   H     H_    0.415174 0.214504 0.529189 0.129913
Br1   Br    Br    0.855755 0.166571 0.246292 -0.540527
Br2   Br    Br    0.079005 0.784798 0.813663 -0.510997
Br3   Br    Br    0.438601 0.670600 0.754582 -0.540238
Br4   Br    Br    0.515859 0.280921 0.183764 -0.520410

loop_
_geom_bond_atom_site_label_1
_geom_bond_atom_site_label_2
_ccdc_geom_bond_type
C26   C30   A    
C103  C115  A    
C107  C108  A    
C94   H33   S    
O1    C5    A    
C96   C100  A    
O13   V1    S    
C105  C106  A    
C69   C73   A    
O3    C7    A    
C10   N2    A    
C40   C44   A    
C73   H17   S    
C11   N3    A    
C16   O27   S    
C28   C56   A    
C7    C81   S    
C62   C77   A    
C11   C43   A    
C18   C22   A    
C17   C33   A    
C61   C78   A    
C32   C36   A    
C47   H11   S    
O20   V1    S    
O9    C4    A    
C2    C55   S    
O10   C3    A    
N2    C14   A    
O4    C8    A    
O11   C2    A    
C87   C103  A    
C24   C56   A    
C57   C65   A    
C113  H29   S    
C86   C102  A    
C31   H7    S    
C101  C113  A    
C58   C61   A    
C59   C67   A    
C84   C96   A    
C87   H43   S    
C5    C83   S    
C85   C89   A    
C86   H42   S    
C61   C65   A    
C12   C44   A    
C85   H41   S    
C98   C102  A    
C88   C92   A    
C77   H25   S    
C82   C90   A    
C46   H10   S    
C105  C110  A    
C14   O25   S    
C45   H9    S    
C59   C64   A    
O14   V2    S    
C15   C51   A    
C83   C91   A    
C110  C114  A    
C115  H31   S    
O4    V1    S    
C20   C36   A    
C108  C111  A    
O9    V1    S    
C97   C105  A    
O17   V4    S    
O7    C3    A    
C40   C67   A    
O15   V3    S    
O18   V3    S    
O8    C4    A    
C60   C72   A    
O12   V4    S    
O19   V2    S    
C23   C55   A    
C112  H48   S    
C26   C54   A    
C12   N4    A    
C88   C104  A    
C95   H36   S    
O16   V4    S    
C39   C51   A    
C89   H38   S    
C28   H4    S    
O17   V1    S    
C48   H12   S    
C31   C35   A    
C40   C52   A    
O7    V3    S    
C88   H44   S    
C107  C112  A    
C109  H45   S    
O8    V4    S    
C14   C50   A    
C12   O24   S    
C85   C101  A    
C93   H34   S    
C32   H8    S    
C60   C68   A    
C30   C34   A    
O15   C7    A    
C19   C35   A    
C99   C107  A    
C48   C80   A    
C19   C23   A    
C104  C116  A    
O19   V3    S    
C49   C74   A    
C78   H26   S    
O1    V4    S    
O13   C5    A    
C16   C52   A    
O2    V3    S    
C76   H20   S    
C51   C76   A    
O3    V2    S    
C11   O23   S    
C38   C42   A    
C59   C71   A    
C58   C70   A    
C38   C65   A    
C29   C33   A    
O6    C2    A    
C18   C34   A    
C37   C66   A    
O10   V2    S    
C98   C106  A    
O20   V4    S    
C99   C103  A    
C39   C68   A    
C75   H19   S    
C58   C66   A    
C79   H27   S    
C37   C41   A    
C80   H28   S    
C111  H47   S    
C70   C74   A    
C25   H1    S    
C26   H2    S    
C3    C54   S    
C102  C114  A    
C100  C104  A    
C9    C41   A    
O6    V2    S    
C90   H37   S    
C10   C42   A    
O18   V2    S    
C110  H46   S    
C71   C75   A    
C30   H6    S    
C86   C90   A    
C4    C53   S    
C95   C99   A    
C27   H3    S    
N4    C36   S    
C46   C78   A    
O5    V1    S    
C93   C97   A    
C45   C77   A    
C19   Br4   S    
C22   C54   A    
C83   C95   A    
C62   C66   A    
C18   Br1   S    
C64   C68   A    
C57   C62   A    
C100  C108  A    
C47   C79   A    
C17   Br2   S    
N1    C13   A    
C10   O22   S    
C63   C67   A    
C22   H13   S    
C13   C49   A    
C44   C48   A    
C6    C84   S    
N3    C15   A    
C74   H18   S    
C63   C80   A    
C111  C115  A    
C25   C29   A    
C82   C94   A    
C13   O26   S    
C114  H30   S    
C81   C93   A    
C27   C31   A    
C87   C91   A    
C50   C73   A    
C28   C32   A    
C20   Br3   S    
C9    N1    A    
O14   C6    A    
C81   C89   A    
N4    C16   A    
C8    C82   S    
O2    C6    A    
C39   C43   A    
C15   O28   S    
C20   C24   A    
C52   C75   A    
C17   C21   A    
O5    C1    A    
C1    C56   S    
C25   C53   A    
C9    O21   S    
C69   H21   S    
C70   H22   S    
C64   C79   A    
N1    C33   S    
C57   C69   A    
C38   C50   A    
C27   C55   A    
C24   H15   S    
C37   C49   A    
C91   H40   S    
C94   C98   A    
O11   V3    S    
C92   H39   S    
C72   C76   A    
C112  C116  A    
O12   C1    A    
N3    C35   S    
C23   H16   S    
C42   C46   A    
N2    C34   S    
C41   C45   A    
C21   C53   A    
C21   H14   S    
C84   C92   A    
C96   H35   S    
C109  C113  A    
C71   H23   S    
C29   H5    S    
C43   C47   A    
O16   C8    A    
C60   C63   A    
C97   C101  A    
C116  H32   S    
C72   H24   S    
C106  C109  A    
