data_mof_unit_61336.cif
_audit_creation_date              2012-10-26T17:15:22-0400
_audit_creation_method            fapswitch 2.2
_symmetry_space_group_name_H-M    P1
_symmetry_Int_Tables_number       1
_space_group_crystal_system       triclinic
_cell_length_a                    21.969159
_cell_length_b                    21.979737
_cell_length_c                    22.168157
_cell_angle_alpha                 60.152221
_cell_angle_beta                  118.871592
_cell_angle_gamma                 90.158225
_cell_volume                      7722.63007799

loop_
_atom_site_label
_atom_site_type_symbol
_atom_type_description
_atom_site_fract_x
_atom_site_fract_y
_atom_site_fract_z
_atom_type_partial_charge
C1    C     C_R   0.617086 0.500006 0.499364 0.563020
C2    C     C_2   0.820799 0.511134 0.506512 -0.091696
C3    C     C_2   0.692244 0.558760 0.450440 -0.126324
C4    C     C_R   0.419871 0.580151 0.339718 0.556344
C5    C     C_2   0.683543 0.496534 0.499750 0.130780
C6    C     C_3   0.712262 0.250892 0.029728 0.190777
C7    C     C_3   0.724956 0.318639 0.973267 0.153851
C8    C     C_1   0.625198 0.374989 0.749890 -0.027821
C9    C     C_1   0.876696 0.124959 0.250058 -0.024407
C10   C     C_3   0.696068 0.222640 0.973805 -0.110576
C11   C     C_3   0.709058 0.291460 0.916851 0.033994
C12   C     C_3   0.290115 0.707660 0.082951 0.096134
C13   C     C_3   0.779247 0.179443 0.027823 -0.100765
C14   C     C_3   0.794098 0.208442 0.083102 0.007410
C15   C     C_3   0.790767 0.248911 0.970586 0.144533
C16   C     C_R   0.385192 0.497123 0.504940 0.555136
C17   C     C_3   0.807708 0.277234 0.026560 -0.114085
C18   C     C_1   0.663034 0.337298 0.825204 -0.050873
C19   C     C_1   0.839643 0.162623 0.174719 -0.054592
C20   C     C_2   0.242972 0.507348 0.553546 -0.109980
C21   C     C_2   0.179882 0.512834 0.491823 0.084248
C22   C     C_2   0.305967 0.518520 0.546160 -0.131309
C23   C     C_3   0.178034 0.751573 0.973254 -0.080912
C24   C     C_2   0.324689 0.488477 0.515425 -0.080220
C25   C     C_R   0.001745 0.880540 0.503876 0.566909
C26   C     C_R   0.079634 0.919842 0.660282 0.541824
C27   C     C_R   0.999045 0.118928 0.497139 0.579924
C28   C     C_R   0.580172 0.419856 0.660245 0.545588
C29   C     C_R   0.920390 0.080095 0.339739 0.549334
C30   C     C_R   0.002262 0.617749 0.499830 0.578303
C31   C     C_R   0.883235 0.503624 0.501050 0.542810
C32   C     C_R   0.994620 0.382681 0.500313 0.564160
C33   C     C_R   0.117011 0.503273 0.498667 0.564450
C34   C     C_3   0.206774 0.791409 0.917002 0.008767
C35   C     C_2   0.063239 0.685952 0.560767 0.094176
C36   C     C_2   0.007704 0.684898 0.497947 -0.087176
C37   C     C_2   0.066607 0.756821 0.552825 0.112636
C38   C     C_2   0.004168 0.810218 0.512061 -0.107312
C39   C     C_2   0.935866 0.315136 0.436541 0.146396
C40   C     C_3   0.271570 0.720921 0.970091 -0.083894
C41   C     C_2   0.983273 0.316076 0.503273 -0.104016
C42   C     C_2   0.935527 0.243311 0.446614 0.069135
C43   C     C_2   0.999171 0.189328 0.489445 0.122445
C44   C     C_3   0.316290 0.748002 0.025122 0.111661
C45   C     C_3   0.225714 0.777685 0.028200 0.111238
C46   C     C_1   0.374638 0.624942 0.249999 -0.016014
C47   C     C_1   0.123481 0.874904 0.750004 -0.036918
C48   C     C_3   0.243830 0.680571 0.028085 -0.131381
C49   C     C_3   0.761754 0.374776 0.627111 -0.309789
C50   C     C_3   0.722512 0.411721 0.002637 -0.313935
C51   C     C_3   0.593856 0.291177 0.004425 -0.297403
C52   C     C_3   0.907443 0.202842 0.996463 -0.305636
C53   C     C_3   0.165390 0.748220 0.676151 -0.297842
C54   C     C_3   0.820351 0.410526 0.349808 -0.263106
C55   C     C_3   0.126302 0.155927 0.601997 -0.300605
C56   C     C_3   0.252745 0.819557 0.970855 -0.106962
C57   C     C_1   0.336530 0.662315 0.174646 -0.019658
C58   C     C_1   0.160850 0.837187 0.825371 -0.065196
C59   C     C_2   0.753806 0.557249 0.440498 -0.147557
Cu1   Cu    Cu3+1 0.500050 0.438990 0.500010 0.934509
Cu2   Cu    Cu3+1 0.499950 0.561010 0.499990 0.937708
Cu3   Cu    Cu3+1 0.061010 0.999870 0.499990 0.925007
Cu4   Cu    Cu3+1 0.938990 0.999980 0.500010 0.926549
Cu5   Cu    Cu3+1 0.958560 0.541440 0.417120 0.934685
Cu6   Cu    Cu3+1 0.041440 0.458560 0.582880 0.940736
H1    H     H_    0.853614 0.299003 0.047912 0.101287
H2    H     H_    0.015424 0.264375 0.564473 0.084384
H3    H     H_    0.256703 0.876291 0.947986 0.098177
H4    H     H_    0.120153 0.754223 0.951367 0.119679
H5    H     H_    0.240420 0.623598 0.051886 0.109589
H6    H     H_    0.743963 0.595048 0.379138 0.139195
H7    H     H_    0.831600 0.479475 0.568868 0.145724
H8    H     H_    0.650258 0.611518 0.411450 0.111600
H9    H     H_    0.393601 0.778776 0.001536 0.225825
H10   H     H_    0.407888 0.768742 0.087935 0.225469
H11   H     H_    0.707602 0.402204 0.505643 0.262011
H12   H     H_    0.802825 0.121980 0.050771 0.114512
H13   H     H_    0.803225 0.325181 0.652631 0.143872
H14   H     H_    0.718953 0.356984 0.638682 0.165920
H15   H     H_    0.789238 0.400984 0.660491 0.141776
H16   H     H_    0.693440 0.432085 0.888828 0.251947
H17   H     H_    0.691648 0.469174 0.972815 0.143368
H18   H     H_    0.781234 0.407155 0.028079 0.134226
H19   H     H_    0.716206 0.374183 0.054442 0.154700
H20   H     H_    0.695994 0.259253 0.110974 0.246203
H21   H     H_    0.566303 0.281767 0.037709 0.137526
H22   H     H_    0.567868 0.272597 0.962169 0.150499
H23   H     H_    0.650193 0.200948 0.952098 0.109940
H24   H     H_    0.586200 0.351163 0.966967 0.170293
H25   H     H_    0.825701 0.301540 0.890996 0.246954
H26   H     H_    0.933205 0.203790 0.963644 0.141314
H27   H     H_    0.910925 0.144856 0.037140 0.156938
H28   H     H_    0.938005 0.223504 0.035513 0.136407
H29   H     H_    0.151763 0.499690 0.398482 0.228321
H30   H     H_    0.128578 0.588664 0.366734 0.250607
H31   H     H_    0.170754 0.626431 0.636984 0.245251
H32   H     H_    0.127226 0.611989 0.686180 0.229609
H33   H     H_    0.148835 0.806984 0.557052 0.273593
H34   H     H_    0.247385 0.498150 0.608600 0.117551
H35   H     H_    0.165029 0.800070 0.673252 0.166300
H36   H     H_    0.222627 0.710910 0.719791 0.139069
H37   H     H_    0.132711 0.720913 0.701296 0.140127
H38   H     H_    0.870587 0.377999 0.307563 0.254620
H39   H     H_    0.786046 0.464495 0.288540 0.132712
H40   H     H_    0.836245 0.419270 0.399989 0.168458
H41   H     H_    0.787395 0.371951 0.353699 0.154965
H42   H     H_    0.861462 0.220551 0.366080 0.237701
H43   H     H_    0.857661 0.194091 0.450835 0.252291
H44   H     H_    0.067747 0.258022 0.484285 0.250535
H45   H     H_    0.338280 0.548583 0.568958 0.134433
H46   H     H_    0.176638 0.172044 0.612666 0.141984
H47   H     H_    0.138934 0.097600 0.622234 0.175431
H48   H     H_    0.110936 0.160141 0.640971 0.125842
H49   H     H_    0.157301 0.856219 0.009577 0.226261
H50   H     H_    0.243095 0.822765 0.093527 0.227695
H51   H     H_    0.291226 0.698158 0.945535 0.113087
H52   H     H_    0.297159 0.451328 0.502240 0.138817
H53   H     H_    0.967198 0.736322 0.439690 0.063613
H54   H     H_    0.952158 0.799248 0.489693 0.068768
N1    N     N_3   0.392209 0.744813 0.054311 -0.629994
N2    N     N_3   0.864888 0.235016 0.405734 -0.645588
N3    N     N_2   0.067926 0.204053 0.514178 -0.529858
N4    N     N_3   0.200650 0.807599 0.060829 -0.623292
N5    N     N_2   0.730189 0.425673 0.538415 -0.528434
N6    N     N_2   0.694008 0.394322 0.941163 -0.520814
N7    N     N_2   0.670830 0.249887 0.064719 -0.506991
N8    N     N_2   0.831926 0.249046 0.935631 -0.511541
N9    N     N_3   0.169635 0.537547 0.413023 -0.633669
N10   N     N_3   0.122326 0.619440 0.633463 -0.586420
N11   N     N_2   0.137039 0.764121 0.594019 -0.510880
N12   N     N_2   0.884391 0.381437 0.357093 -0.473690
O1    O     O_R   0.589060 0.448490 0.499990 -0.510595
O2    O     O_R   0.034920 0.554020 0.569980 -0.467645
O3    O     O_R   0.875990 0.534990 0.430030 -0.516403
O4    O     O_R   0.588980 0.551530 0.499980 -0.519969
O5    O     O_R   0.945970 0.465000 0.570010 -0.515628
O6    O     O_R   0.965080 0.445980 0.430020 -0.469354
O7    O     O_R   0.035060 0.375990 0.570000 -0.517902
O8    O     O_R   0.054030 0.535000 0.429990 -0.511750
O9    O     O_R   0.124010 0.465010 0.569970 -0.513534
O10   O     O_R   0.439580 0.508940 0.379080 -0.502098
O11   O     O_R   0.439510 0.611990 0.379070 -0.502038
O12   O     O_R   0.948460 0.910940 0.500030 -0.506334
O13   O     O_R   0.411020 0.448470 0.500020 -0.510678
O14   O     O_R   0.410940 0.551510 0.500010 -0.499573
O15   O     O_R   0.560490 0.388010 0.620930 -0.508228
O16   O     O_R   0.560420 0.491060 0.620920 -0.506995
O17   O     O_R   0.051510 0.910850 0.500010 -0.507010
O18   O     O_R   0.111980 0.939430 0.620910 -0.520741
O19   O     O_R   0.008930 0.939520 0.620930 -0.499040
O20   O     O_R   0.051540 0.088910 0.499970 -0.484764
O21   O     O_R   0.948490 0.089000 0.499990 -0.532956
O22   O     O_R   0.991070 0.060330 0.379070 -0.504002
O23   O     O_R   0.888020 0.060420 0.379090 -0.504848
O24   O     O_R   0.964940 0.624010 0.430000 -0.520936

loop_
_geom_bond_atom_site_label_1
_geom_bond_atom_site_label_2
_ccdc_geom_bond_type
C11   C18   S    
C34   C56   S    
C27   O21   A    
C23   C45   S    
Cu3   O18   S    
C55   H47   S    
C23   H4    S    
C35   C36   D    
H43   N2    S    
C12   C48   S    
C1    O1    A    
Cu1   O1    S    
C50   H19   S    
C39   C41   D    
C4    C46   S    
C45   N4    S    
C7    C11   S    
C54   N12   S    
C5    N5    S    
C10   H23   S    
C24   H52   S    
C37   C38   D    
C1    C5    S    
C54   H39   S    
C35   C37   S    
H31   N10   S    
C20   C22   S    
C4    O11   A    
C25   C38   S    
H44   N3    S    
C21   C33   S    
C44   N1    S    
C33   O9    A    
C49   H13   S    
C40   C48   S    
Cu2   O14   S    
Cu6   O9    S    
C11   C15   S    
H30   N9    S    
C9    C19   T    
C45   C56   S    
C53   H36   S    
C22   H45   S    
C37   N11   S    
H25   N8    S    
C36   H53   S    
C35   N10   S    
C9    C29   S    
H16   N6    S    
C30   O2    A    
C55   N3    S    
C16   C24   S    
C15   N8    S    
C13   C14   S    
C14   C17   S    
H20   N7    S    
C25   O12   A    
Cu1   O15   S    
C31   O3    A    
C2    H7    S    
C51   H21   S    
C52   N8    S    
C50   H18   S    
C39   C42   S    
Cu5   O3    S    
Cu5   O6    S    
C2    C31   S    
C53   H35   S    
C13   H12   S    
H50   N4    S    
Cu3   O20   S    
C54   H41   S    
H11   N5    S    
C26   O19   A    
C6    N7    S    
C41   H2    S    
C51   H22   S    
C4    O10   A    
C2    C59   D    
C12   C45   S    
C55   H48   S    
C7    C17   S    
C56   H3    S    
C49   N5    S    
C8    C18   T    
C49   H14   S    
Cu1   Cu2   S    
Cu4   O19   S    
C32   O7    A    
Cu3   Cu4   S    
Cu1   O10   S    
C6    C14   S    
C44   C56   S    
Cu5   O24   S    
C53   H37   S    
C32   C41   S    
C23   C34   S    
H33   N11   S    
C17   H1    S    
C52   H28   S    
C50   N6    S    
C7    N6    S    
C21   N9    S    
C16   O13   A    
C43   N3    S    
H49   N4    S    
C26   C47   S    
C12   C57   S    
C30   O24   A    
Cu6   O7    S    
C13   C15   S    
C46   C57   T    
C8    C28   S    
C34   C40   S    
C52   H27   S    
C42   C43   D    
H42   N2    S    
C50   H17   S    
C38   H54   S    
C15   C17   S    
C28   O16   A    
C27   O20   A    
C23   C48   S    
C54   H40   S    
C55   H46   S    
C51   N7    S    
C14   C19   S    
C26   O18   A    
H10   N1    S    
Cu4   O23   S    
C48   H5    S    
C31   O5    A    
C3    C5    D    
C10   C13   S    
C6    C10   S    
C49   H15   S    
C6    C7    S    
H29   N9    S    
H9    N1    S    
C28   O15   A    
Cu3   O22   S    
C30   C36   S    
Cu5   Cu6   S    
Cu2   O16   S    
C29   O22   A    
H32   N10   S    
C32   O6    A    
C12   C44   S    
Cu1   O13   S    
C47   C58   T    
C40   H51   S    
C20   H34   S    
C39   N12   S    
C33   O8    A    
C25   O17   A    
C22   C24   D    
C3    H8    S    
Cu6   O2    S    
Cu4   O21   S    
Cu6   O5    S    
C10   C11   S    
C27   C43   S    
Cu2   O11   S    
C40   C44   S    
C20   C21   D    
C34   C58   S    
Cu4   O12   S    
C16   O14   A    
C52   H26   S    
Cu3   O17   S    
C53   N11   S    
C1    O4    A    
H38   N12   S    
Cu2   O4    S    
C51   H24   S    
C42   N2    S    
C59   H6    S    
C29   O23   A    
Cu5   O8    S    
C3    C59   S    
