data_mof_unit_11878.cif
_audit_creation_date              2012-10-26T20:40:15-0400
_audit_creation_method            fapswitch 2.2
_symmetry_space_group_name_H-M    P1
_symmetry_Int_Tables_number       1
_space_group_crystal_system       triclinic
_cell_length_a                    15.07604
_cell_length_b                    10.862679
_cell_length_c                    9.583038
_cell_angle_alpha                 90.109428
_cell_angle_beta                  89.91168
_cell_angle_gamma                 92.74457
_cell_volume                      1567.57285758

loop_
_atom_site_label
_atom_site_type_symbol
_atom_type_description
_atom_site_fract_x
_atom_site_fract_y
_atom_site_fract_z
_atom_type_partial_charge
C1    C     C_R   0.506798 0.263045 0.500620 0.559525
C2    C     C_R   0.184805 0.473833 0.624025 -0.124070
C3    C     C_R   0.231822 0.500417 0.500612 -0.015947
C4    C     C_R   0.328710 0.499874 0.500119 0.562943
C5    C     C_R   0.186310 0.527786 0.378136 -0.125905
C6    C     C_R   0.552936 0.120594 0.757085 -0.085887
C7    C     C_R   0.540356 0.061736 0.885087 -0.122114
C8    C     C_R   0.496148 0.946834 0.890399 -0.114114
C9    C     C_R   0.472811 0.885604 0.766905 -0.087969
C10   C     C_R   0.494358 0.938566 0.635026 0.026956
C11   C     C_R   0.521245 0.064471 0.631788 0.033767
C12   C     C_R   0.908216 0.529223 0.377545 0.015547
C13   C     C_R   0.514226 0.129137 0.503820 -0.004535
C14   C     C_R   0.502263 0.063513 0.378883 -0.157802
C15   C     C_R   0.494646 0.936271 0.379871 -0.160864
C16   C     C_R   0.494777 0.737464 0.501292 0.533515
C17   C     C_R   0.490693 0.872036 0.506451 -0.007373
C18   C     C_R   0.617761 0.664812 0.144168 -0.098228
C19   C     C_R   0.675202 0.745503 0.071897 -0.183787
C20   C     C_R   0.675369 0.745297 0.928119 -0.166227
C21   C     C_R   0.618020 0.664500 0.855769 -0.088812
C22   C     C_R   0.557889 0.581075 0.925104 0.133404
C23   C     C_R   0.950486 0.446484 0.748022 -0.137178
C24   C     C_R   0.557817 0.581104 0.074775 0.149885
C25   C     C_R   0.445288 0.422597 0.074733 -0.014592
C26   C     C_R   0.445113 0.422192 0.926866 0.072826
C27   C     C_R   0.671270 0.500614 0.499968 0.532080
C28   C     C_R   0.815740 0.528232 0.377521 -0.138459
C29   C     C_R   0.768103 0.501395 0.500345 -0.011377
C30   C     C_R   0.813161 0.475347 0.623937 -0.137878
C31   C     C_R   0.905565 0.474738 0.625321 -0.002880
C32   C     C_R   0.953452 0.501889 0.501859 0.059122
C33   C     C_1   0.385252 0.335653 0.856712 0.244339
C34   C     C_R   0.043080 0.444741 0.749577 -0.009451
C35   C     C_1   0.085919 0.411336 0.878042 0.177428
C36   C     C_R   0.091899 0.473151 0.626637 -0.001130
C37   C     C_R   0.046502 0.501452 0.502420 0.047567
C38   C     C_R   0.094001 0.529086 0.378233 0.018669
C39   C     C_R   0.048498 0.557567 0.255914 -0.111195
C40   C     C_R   0.956105 0.557125 0.255373 -0.127710
Cu1   Cu    Cu3+1 0.499990 0.499990 0.640660 0.930670
Cu2   Cu    Cu3+1 0.500010 0.500010 0.359340 0.926412
H1    H     H_    0.781010 0.549189 0.282102 0.124608
H2    H     H_    0.776331 0.454164 0.718898 0.128314
H3    H     H_    0.913284 0.424887 0.842616 0.112106
H4    H     H_    0.221021 0.453018 0.717802 0.159796
H5    H     H_    0.222708 0.549039 0.282796 0.137725
H6    H     H_    0.922116 0.578694 0.159524 0.111215
H7    H     H_    0.498936 0.110448 0.279499 0.135812
H8    H     H_    0.623693 0.672069 0.254156 0.184289
H9    H     H_    0.720121 0.808468 0.128202 0.122455
H10   H     H_    0.084411 0.580167 0.160642 0.134530
H11   H     H_    0.589353 0.208687 0.757871 0.139509
H12   H     H_    0.562664 0.106905 0.980441 0.107845
H13   H     H_    0.481644 0.903724 0.990170 0.115086
H14   H     H_    0.435294 0.799084 0.777716 0.152831
H15   H     H_    0.490535 0.888260 0.280712 0.137042
H16   H     H_    0.400768 0.359419 0.131450 0.128148
H17   H     H_    0.720243 0.808327 0.871878 0.127660
H18   H     H_    0.623703 0.672113 0.745786 0.188958
N1    N     N_R   0.500860 0.501210 0.147910 -0.254692
N2    N     N_R   0.500890 0.501290 0.852040 -0.266826
N3    N     N_1   0.337024 0.265449 0.801184 -0.288508
N4    N     N_1   0.120361 0.384154 0.980560 -0.313066
O1    O     O_R   0.499990 0.319640 0.618810 -0.497048
O2    O     O_R   0.500000 0.319660 0.381240 -0.503924
O3    O     O_R   0.370250 0.499960 0.618800 -0.494636
O4    O     O_R   0.370260 0.499980 0.381230 -0.500337
O5    O     O_R   0.500000 0.680340 0.618760 -0.538523
O6    O     O_R   0.500010 0.680360 0.381190 -0.523900
O7    O     O_R   0.629740 0.500020 0.618770 -0.533572
O8    O     O_R   0.629750 0.500040 0.381200 -0.522072

loop_
_geom_bond_atom_site_label_1
_geom_bond_atom_site_label_2
_ccdc_geom_bond_type
C24   N1    A    
C23   H3    S    
C27   C29   S    
Cu1   Cu2   S    
C19   C20   A    
C7    C8    A    
Cu1   O3    S    
C2    H4    S    
C5    H5    S    
C37   C38   A    
C12   C28   A    
C18   C24   A    
C28   C29   A    
C18   C19   A    
C38   C39   A    
C14   H7    S    
C10   C17   A    
Cu2   O6    S    
C40   H6    S    
C34   C35   S    
C8    C9    A    
C1    O1    A    
C35   N4    T    
C9    C10   A    
Cu1   O7    S    
C39   H10   S    
C21   C22   A    
C12   C32   A    
Cu2   O4    S    
C15   H15   S    
C30   H2    S    
Cu1   N2    S    
C8    H13   S    
C5    C38   A    
C21   H18   S    
C39   C40   A    
C4    O4    A    
C16   C17   S    
Cu1   O1    S    
C25   C26   A    
C23   C31   A    
C12   C40   A    
C29   C30   A    
C22   N2    A    
C26   C33   S    
C31   C32   A    
C33   N3    T    
C23   C34   A    
Cu2   O8    S    
C1    O2    A    
C16   O6    A    
C9    H14   S    
C25   N1    A    
C32   C37   A    
C20   H17   S    
Cu2   N1    S    
C22   C24   A    
C1    C13   S    
C25   H16   S    
C6    H11   S    
C3    C4    S    
C6    C11   A    
C27   O7    A    
C18   H8    S    
Cu1   O5    S    
C2    C36   A    
C15   C17   A    
C36   C37   A    
C16   O5    A    
C3    C5    A    
C4    O3    A    
C6    C7    A    
C28   H1    S    
C2    C3    A    
C26   N2    A    
C11   C13   A    
C30   C31   A    
C34   C36   A    
C10   C11   A    
C19   H9    S    
C20   C21   A    
Cu2   O2    S    
C14   C15   A    
C7    H12   S    
C13   C14   A    
C27   O8    A    
