data_mof_unit_19988.cif
_audit_creation_date              2012-12-10T18:10:45-0500
_audit_creation_method            fapswitch 2.2
_symmetry_space_group_name_H-M    P1
_symmetry_Int_Tables_number       1
_space_group_crystal_system       triclinic
_cell_length_a                    12.71904
_cell_length_b                    13.113172
_cell_length_c                    15.702185
_cell_angle_alpha                 92.107607
_cell_angle_beta                  102.16193
_cell_angle_gamma                 81.589309
_cell_volume                      2532.55860757

loop_
_atom_site_label
_atom_site_type_symbol
_atom_type_description
_atom_site_fract_x
_atom_site_fract_y
_atom_site_fract_z
_atom_type_partial_charge
C1    C     C_R   0.439141 0.690753 0.483811 0.838139
C2    C     C_R   0.598026 0.196257 0.516693 -0.162436
C3    C     C_R   0.294307 0.840748 0.468675 -0.175700
C4    C     C_R   0.500831 0.500567 0.661093 0.882596
C5    C     C_R   0.261702 0.946297 0.465540 -0.131704
C6    C     C_R   0.337378 0.012151 0.464168 -0.177590
C7    C     C_R   0.446366 0.972244 0.460862 0.064614
C8    C     C_R   0.471621 0.866161 0.444276 0.035596
C9    C     C_R   0.531709 0.033011 0.475937 0.039223
C10   C     C_R   0.637163 0.989972 0.465768 0.071459
C11   C     C_R   0.653419 0.891310 0.429260 0.044798
C12   C     C_3   0.386566 0.512619 0.027832 -0.072733
C13   C     C_R   0.568299 0.831506 0.413271 0.068204
C14   C     C_R   0.515674 0.134563 0.504430 -0.240252
C15   C     C_R   0.706436 0.149115 0.521302 0.017787
C16   C     C_R   0.561421 0.308278 0.513028 0.895415
C17   C     C_R   0.400252 0.799578 0.461572 -0.122126
C18   C     C_R   0.118342 0.306841 0.429913 -0.291814
C19   C     C_R   0.794466 0.634896 0.599724 0.008571
C20   C     C_R   0.899023 0.656764 0.631539 -0.247266
C21   C     C_R   0.985513 0.598417 0.603143 -0.098233
C22   C     C_R   0.967663 0.520277 0.539715 0.040741
C23   C     C_3   0.504797 0.506291 0.084351 0.219114
C24   C     C_R   0.860969 0.494574 0.514011 0.098296
C25   C     C_R   0.051812 0.464899 0.501628 -0.041191
C26   C     C_R   0.037748 0.366052 0.465769 0.110074
C27   C     C_R   0.938294 0.331953 0.456101 -0.193549
C28   C     C_R   0.499177 0.499502 0.338971 0.918621
C29   C     C_R   0.847769 0.402741 0.463113 -0.056954
C30   C     C_R   0.146437 0.504507 0.492460 0.094652
C31   C     C_R   0.210765 0.348016 0.425627 0.000619
C32   C     C_3   0.388949 0.522239 0.930536 -0.551503
C33   C     C_3   0.570177 0.594778 0.964627 0.204679
C34   C     C_3   0.574792 0.403901 0.060503 -0.181247
C35   C     C_3   0.561561 0.601293 0.065809 0.106217
C36   C     C_1   0.497365 0.500808 0.249986 -0.179216
C37   C     C_3   0.508857 0.503007 0.918594 0.239820
C38   C     C_2   0.801322 0.200021 0.563167 0.417039
C39   C     C_2   0.160268 0.612424 0.512106 0.379402
C40   C     C_2   0.761424 0.396089 0.386397 0.500035
C41   C     C_3   0.563347 0.393520 0.958637 0.154390
C42   C     C_1   0.499408 0.503129 0.175158 0.000911
C43   C     C_1   0.506036 0.502297 0.826198 0.023213
C44   C     C_1   0.503362 0.501500 0.750389 -0.186020
C45   C     C_R   0.724155 0.046917 0.491902 -0.127145
H1    H     H_    0.339836 0.466584 0.891625 0.184841
H2    H     H_    0.275006 0.301987 0.400100 0.145861
H3    H     H_    0.927157 0.259316 0.422076 0.197707
H4    H     H_    0.108688 0.230482 0.403319 0.148039
H5    H     H_    0.727169 0.678802 0.622962 0.148440
H6    H     H_    0.066226 0.612669 0.634175 0.121121
H7    H     H_    0.913289 0.717401 0.679446 0.150409
H8    H     H_    0.231027 0.576842 0.034387 0.183060
H9    H     H_    0.310741 0.665230 0.027788 0.215121
H10   H     H_    0.791006 0.271778 0.598753 0.093244
H11   H     H_    0.787626 0.784297 0.439907 0.207662
H12   H     H_    0.356332 0.438914 0.035892 0.150844
H13   H     H_    0.742019 0.837253 0.339517 0.207642
H14   H     H_    0.502466 0.715554 0.337010 0.175088
H15   H     H_    0.637398 0.688519 0.384909 0.225919
H16   H     H_    0.227809 0.631216 0.561788 0.081942
H17   H     H_    0.743987 0.457172 0.338490 0.052384
H18   H     H_    0.720532 0.642716 0.966279 0.173821
H19   H     H_    0.732286 0.521243 0.998133 0.214133
H20   H     H_    0.442578 0.718095 0.928369 0.189163
H21   H     H_    0.566824 0.751093 0.940212 0.174007
H22   H     H_    0.488163 0.700028 0.150153 0.203061
H23   H     H_    0.661118 0.411157 0.089278 0.190840
H24   H     H_    0.539010 0.760734 0.080518 0.174534
H25   H     H_    0.664199 0.601308 0.188671 0.189908
H26   H     H_    0.706526 0.659422 0.112394 0.180223
H27   H     H_    0.425371 0.316796 0.943336 0.175181
H28   H     H_    0.539963 0.239765 0.934945 0.179032
H29   H     H_    0.664904 0.347135 0.872459 0.205628
H30   H     H_    0.710583 0.297650 0.972459 0.174694
H31   H     H_    0.604059 0.246980 0.085282 0.193179
H32   H     H_    0.473526 0.299691 0.084364 0.185923
H33   H     H_    0.806264 0.011115 0.490982 0.202279
H34   H     H_    0.437921 0.168489 0.516425 0.164208
H35   H     H_    0.237386 0.791853 0.479196 0.204153
H36   H     H_    0.307694 0.093410 0.464912 0.126815
H37   H     H_    0.179150 0.977390 0.469463 0.164822
H38   H     H_    0.346113 0.597289 0.903201 0.183548
N1    N     N_R   0.222200 0.444690 0.455710 -0.135278
N2    N     N_3   0.496617 0.313197 0.919936 -0.464700
N3    N     N_3   0.672122 0.364846 0.938758 -0.475553
N4    N     N_3   0.554406 0.311969 0.102241 -0.443907
N5    N     N_R   0.776960 0.554780 0.543830 -0.139167
N6    N     N_3   0.309659 0.594953 0.056541 -0.440861
N7    N     N_3   0.755615 0.853066 0.406376 -0.454155
N8    N     N_3   0.575892 0.745172 0.354758 -0.474922
N9    N     N_3   0.684469 0.575483 0.954089 -0.437127
N10   N     N_3   0.520433 0.692136 0.918175 -0.452815
N11   N     N_3   0.496977 0.699099 0.085408 -0.474798
N12   N     N_3   0.670627 0.595602 0.123326 -0.509456
O1    O     O_R   0.366740 0.627160 0.478850 -0.627998
O2    O     O_2   0.093374 0.681364 0.474593 -0.596808
O3    O     O_2   0.717628 0.318591 0.370708 -0.585400
O4    O     O_R   0.544830 0.662520 0.507140 -0.623549
O5    O     O_R   0.410920 0.482310 0.608710 -0.629456
O6    O     O_R   0.589010 0.517670 0.637000 -0.608059
O7    O     O_R   0.455170 0.337480 0.492860 -0.622757
O8    O     O_R   0.633260 0.372840 0.521150 -0.608960
O9    O     O_R   0.410990 0.482330 0.363000 -0.595496
O10   O     O_R   0.589080 0.517690 0.391290 -0.655247
O11   O     O_2   0.893845 0.159379 0.562306 -0.594708
Zn1   Zn    Zn3+2 0.381090 0.476390 0.481110 0.945684
Zn2   Zn    Zn3+2 0.618910 0.523610 0.518890 0.929473

loop_
_geom_bond_atom_site_label_1
_geom_bond_atom_site_label_2
_ccdc_geom_bond_type
C27   H3    S    
C38   O11   D    
C8    C13   A    
C27   C29   A    
C36   C42   T    
C19   C20   A    
C18   C26   A    
C43   C44   T    
C1    O4    A    
H27   N2    S    
C7    C8    A    
O4    Zn2   S    
C12   C23   S    
C26   C27   A    
C23   C42   S    
C40   O3    D    
C5    C6    A    
N5    Zn2   S    
C39   O2    D    
H26   N12   S    
N1    Zn1   S    
C40   H17   S    
C24   C29   A    
C16   O8    A    
C38   H10   S    
C22   C25   A    
H18   N9    S    
H22   N11   S    
C45   H33   S    
C2    C16   S    
C9    C10   A    
O6    Zn2   S    
H20   N10   S    
C6    H36   S    
C31   H2    S    
C21   C22   A    
C12   C32   S    
C30   N1    A    
C34   C41   S    
C3    H35   S    
C39   H16   S    
O10   Zn2   S    
C12   N6    S    
H9    N6    S    
H24   N11   S    
C33   N9    S    
C34   H23   S    
C4    C44   S    
C25   C26   A    
C14   H34   S    
C33   C37   S    
C31   N1    A    
C37   C43   S    
C9    C14   A    
C15   C38   S    
C41   N3    S    
C24   N5    A    
C28   O9    A    
H30   N3    S    
C28   O10   A    
C23   C34   S    
C4    O6    A    
C10   C45   A    
O7    Zn1   S    
H14   N8    S    
C32   C37   S    
H29   N3    S    
C2    C15   A    
H13   N7    S    
H31   N4    S    
H28   N2    S    
O8    Zn2   S    
H21   N10   S    
C12   H12   S    
C16   O7    A    
O1    Zn1   S    
C19   N5    A    
C23   C35   S    
C4    O5    A    
H8    N6    S    
C22   C24   A    
C15   C45   A    
C21   H6    S    
H15   N8    S    
C25   C30   A    
C7    C9    A    
C32   H38   S    
O5    Zn1   S    
H32   N4    S    
C32   H1    S    
C3    C5    A    
C33   N10   S    
C6    C7    A    
C35   N12   S    
C41   N2    S    
C1    C17   S    
C8    C17   A    
C35   N11   S    
H25   N12   S    
C20   H7    S    
C11   N7    S    
C5    H37   S    
C11   C13   A    
C19   H5    S    
C1    O1    A    
C29   C40   S    
H11   N7    S    
C33   C35   S    
C30   C39   S    
C3    C17   A    
C34   N4    S    
C37   C41   S    
C2    C14   A    
C10   C11   A    
C20   C21   A    
C28   C36   S    
H19   N9    S    
C18   C31   A    
O9    Zn1   S    
C13   N8    S    
C18   H4    S    
