data_mof_unit_28857.cif
_audit_creation_date              2012-12-11T16:08:40-0500
_audit_creation_method            fapswitch 2.2
_symmetry_space_group_name_H-M    P1
_symmetry_Int_Tables_number       1
_space_group_crystal_system       triclinic
_cell_length_a                    12.938586
_cell_length_b                    13.291334
_cell_length_c                    27.694864
_cell_angle_alpha                 95.150016
_cell_angle_beta                  89.621808
_cell_angle_gamma                 119.169322
_cell_volume                      4138.1536922

loop_
_atom_site_label
_atom_site_type_symbol
_atom_type_description
_atom_site_fract_x
_atom_site_fract_y
_atom_site_fract_z
_atom_type_partial_charge
C1    C     C_R   0.627637 0.896934 0.426636 0.538081
C2    C     C_R   0.305491 0.879453 0.293480 0.002647
C3    C     C_3   0.404278 0.382750 0.346834 -0.444880
C4    C     C_3   0.912119 0.424901 0.875607 -0.226157
C5    C     C_3   0.016831 0.432906 0.846460 -0.334736
C6    C     C_3   0.135396 0.526178 0.870233 -0.447262
C7    C     C_2   0.471788 0.225048 0.888030 0.566824
C8    C     C_3   0.377005 0.330105 0.810519 -0.233531
C9    C     C_3   0.251885 0.228606 0.796768 -0.260443
C10   C     C_3   0.157515 0.252735 0.819071 -0.448906
C11   C     C_2   0.007981 0.919143 0.799429 0.544838
C12   C     C_3   0.316468 0.850957 0.104514 -0.249710
C13   C     C_R   0.256208 0.856767 0.193186 0.018479
C14   C     C_3   0.331975 0.743417 0.096848 -0.304365
C15   C     C_3   0.411567 0.751977 0.054722 -0.433556
C16   C     C_R   0.601434 0.221788 0.440448 0.544118
C17   C     C_R   0.369548 0.884172 0.211166 -0.144402
C18   C     C_R   0.393350 0.894863 0.260767 -0.143482
C19   C     C_R   0.226537 0.837493 0.142764 -0.026051
C20   C     C_R   0.110004 0.807554 0.128314 0.022604
C21   C     C_R   0.129984 0.853064 0.359942 -0.148711
C22   C     C_R   0.105661 0.846284 0.310387 0.015312
C23   C     C_R   0.193516 0.858107 0.276907 0.058145
C24   C     C_R   0.653411 0.238197 0.218600 -0.105982
C25   C     C_R   0.994826 0.826159 0.293687 -0.138094
C26   C     C_R   0.969573 0.813973 0.244124 -0.142753
C27   C     C_R   0.055228 0.822485 0.210934 -0.001226
C28   C     C_R   0.270309 0.876835 0.425793 0.535775
C29   C     C_R   0.168681 0.846526 0.226930 0.045348
C30   C     C_R   0.027339 0.803624 0.161884 -0.121364
C31   C     C_R   0.239502 0.868905 0.375433 0.019033
C32   C     C_R   0.734905 0.956008 0.352112 -0.141569
C33   C     C_R   0.731289 0.949324 0.301689 0.011006
C34   C     C_R   0.719612 0.933582 0.200024 -0.034688
C35   C     C_R   0.644423 0.220828 0.267892 -0.108255
C36   C     C_R   0.793793 0.039340 0.226981 -0.122738
C37   C     C_R   0.805744 0.047273 0.277223 0.004965
C38   C     C_R   0.724777 0.921395 0.149249 0.045772
C39   C     C_R   0.670029 0.808848 0.125143 -0.034931
C40   C     C_R   0.626645 0.899163 0.565212 0.545835
C41   C     C_R   0.568246 0.762972 0.350851 -0.151864
C42   C     C_R   0.566530 0.748447 0.299762 0.003735
C43   C     C_R   0.646437 0.844538 0.275250 0.013726
C44   C     C_R   0.481538 0.643730 0.272880 0.019543
C45   C     C_R   0.472966 0.639342 0.221374 0.016053
C46   C     C_R   0.675573 0.314502 0.303287 0.032180
C47   C     C_R   0.563351 0.730605 0.197629 -0.007735
C48   C     C_R   0.643002 0.836065 0.224397 0.003211
C49   C     C_R   0.583897 0.716361 0.148326 -0.179751
C50   C     C_R   0.648727 0.867393 0.376620 -0.023200
C51   C     C_R   0.722838 0.263228 0.654114 -0.132994
C52   C     C_R   0.601329 0.224375 0.579269 0.545664
C53   C     C_R   0.730145 0.271935 0.704558 0.011146
C54   C     C_R   0.754126 0.305283 0.805999 0.027624
C55   C     C_R   0.821713 0.265567 0.778821 -0.135567
C56   C     C_R   0.812426 0.252435 0.728421 -0.150887
C57   C     C_R   0.693682 0.349533 0.204560 0.033066
C58   C     C_R   0.783188 0.355945 0.854723 -0.048187
C59   C     C_R   0.689280 0.359282 0.882022 -0.027532
C60   C     C_R   0.552948 0.294574 0.657239 -0.132497
C61   C     C_R   0.558345 0.301359 0.707764 -0.002787
C62   C     C_R   0.647843 0.291468 0.731576 0.060963
C63   C     C_R   0.472553 0.313078 0.734516 -0.129035
C64   C     C_R   0.271930 0.879772 0.563562 0.544607
C65   C     C_R   0.471055 0.310910 0.785124 0.017474
C66   C     C_R   0.564177 0.304537 0.809648 0.003076
C67   C     C_R   0.655203 0.300683 0.782429 0.014401
C68   C     C_1   0.697682 0.368934 0.154086 -0.052373
C69   C     C_R   0.574000 0.305641 0.860384 0.017746
C70   C     C_R   0.631992 0.270780 0.630187 -0.004349
C71   C     C_1   0.226086 0.865343 0.611112 -0.010079
C72   C     C_R   0.249629 0.818852 0.732057 -0.108328
C73   C     C_R   0.235562 0.814780 0.781875 -0.129007
C74   C     C_R   0.092036 0.883443 0.777196 0.063875
C75   C     C_R   0.107217 0.886431 0.726793 -0.120007
C76   C     C_1   0.634962 0.267763 0.394473 -0.028039
C77   C     C_R   0.184433 0.853107 0.704366 0.009636
C78   C     C_R   0.156817 0.845737 0.804712 0.035108
C79   C     C_1   0.656735 0.293733 0.353554 -0.073615
C80   C     C_1   0.134339 0.824970 0.854838 0.014738
C81   C     C_1   0.201742 0.858318 0.653149 -0.053316
C82   C     C_1   0.106412 0.801524 0.895583 0.016876
C83   C     C_1   0.639925 0.867831 0.612113 -0.015600
C84   C     C_R   0.654122 0.921858 0.739075 -0.091750
C85   C     C_R   0.656062 0.909387 0.788617 -0.086342
C86   C     C_R   0.641917 0.721327 0.769278 -0.080935
C87   C     C_R   0.640411 0.734032 0.719694 -0.087808
C88   C     C_R   0.718657 0.426138 0.289262 -0.118455
C89   C     C_R   0.647501 0.834822 0.704491 0.044720
C90   C     C_1   0.703642 0.394836 0.113124 -0.004838
C91   C     C_R   0.650260 0.809184 0.803860 0.052340
C92   C     C_1   0.663603 0.800215 0.854627 -0.058212
C93   C     C_1   0.645213 0.849397 0.653644 -0.060792
C94   C     C_1   0.682400 0.791008 0.896148 -0.012473
C95   C     C_R   0.064697 0.773117 0.078703 0.530531
C96   C     C_R   0.716717 0.441055 0.067223 0.563905
C97   C     C_R   0.718170 0.783485 0.080238 0.542007
C98   C     C_R   0.057588 0.766705 0.941548 0.535697
C99   C     C_R   0.711273 0.432593 0.928912 0.579074
C100  C     C_R   0.727538 0.443559 0.240022 -0.115941
C101  C     C_R   0.327505 0.884056 0.342702 -0.116658
C102  C     C_R   0.716284 0.776311 0.943100 0.550119
C103  C     C_2   0.792222 0.023151 0.121460 0.576878
C104  C     C_3   0.900950 0.161409 0.302778 -0.250718
C105  C     C_3   0.009992 0.153344 0.319017 -0.297699
C106  C     C_3   0.077987 0.138981 0.275993 -0.411953
C107  C     C_3   0.363191 0.543368 0.192538 -0.260279
C108  C     C_3   0.251225 0.551485 0.205509 -0.303643
C109  C     C_3   0.140706 0.451685 0.179113 -0.447366
C110  C     C_3   0.404550 0.536067 0.298992 -0.260246
C111  C     C_3   0.478590 0.484797 0.317742 -0.303505
Cr1   Cr    Cr6+3 0.416430 0.829200 0.492370 1.018638
Cr2   Cr    Cr6+3 0.674630 0.087020 0.504170 1.015284
Cr3   Cr    Cr6+3 0.408920 0.083740 0.503490 1.022722
Cr4   Cr    Cr6+3 0.914010 0.832750 0.013970 1.069632
Cr5   Cr    Cr6+3 0.922310 0.578600 0.003000 1.002301
Cr6   Cr    Cr6+3 0.656280 0.574630 0.003870 1.031708
H1    H     H_    0.742690 0.499092 0.316235 0.107869
H2    H     H_    0.782887 0.242504 0.633629 0.134180
H3    H     H_    0.879813 0.241635 0.795845 0.118163
H4    H     H_    0.869284 0.226819 0.708213 0.117345
H5    H     H_    0.405527 0.323309 0.715693 0.102626
H6    H     H_    0.481340 0.298641 0.639009 0.130516
H7    H     H_    0.310782 0.794263 0.715022 0.121422
H8    H     H_    0.627353 0.164899 0.191596 0.123063
H9    H     H_    0.284403 0.784845 0.802521 0.111738
H10   H     H_    0.059293 0.915065 0.704845 0.146842
H11   H     H_    0.658499 0.999683 0.727708 0.120924
H12   H     H_    0.882496 0.796364 0.231696 0.120608
H13   H     H_    0.663906 0.978455 0.814932 0.116521
H14   H     H_    0.638672 0.643952 0.780665 0.108301
H15   H     H_    0.634521 0.665873 0.693346 0.107267
H16   H     H_    0.611358 0.134157 0.278409 0.115167
H17   H     H_    0.413469 0.899601 0.355848 0.122079
H18   H     H_    0.440380 0.895378 0.187560 0.123148
H19   H     H_    0.480485 0.914483 0.273642 0.121610
H20   H     H_    0.938434 0.781153 0.149527 0.125864
H21   H     H_    0.950417 0.157505 0.107770 0.333484
H22   H     H_    0.020626 0.058782 0.252164 0.191542
H23   H     H_    0.927238 0.818018 0.318843 0.115110
H24   H     H_    0.110958 0.214704 0.254525 0.146711
H25   H     H_    0.154817 0.132307 0.289471 0.141376
H26   H     H_    0.983653 0.079871 0.341335 0.163522
H27   H     H_    0.070511 0.234138 0.341986 0.145508
H28   H     H_    0.930601 0.232338 0.278681 0.141491
H29   H     H_    0.864300 0.189741 0.334163 0.126925
H30   H     H_    0.149484 0.452685 0.139206 0.156138
H31   H     H_    0.126857 0.367540 0.189816 0.159100
H32   H     H_    0.061980 0.460670 0.188849 0.157573
H33   H     H_    0.237351 0.551068 0.245044 0.165010
H34   H     H_    0.064070 0.844035 0.386149 0.097788
H35   H     H_    0.261116 0.634244 0.195037 0.176484
H36   H     H_    0.369760 0.548390 0.152952 0.134655
H37   H     H_    0.352417 0.457155 0.198116 0.141207
H38   H     H_    0.369330 0.411129 0.378847 0.152131
H39   H     H_    0.329178 0.313210 0.323831 0.152477
H40   H     H_    0.459858 0.347276 0.359725 0.165565
H41   H     H_    0.555371 0.550815 0.341088 0.162418
H42   H     H_    0.513241 0.454335 0.286238 0.176076
H43   H     H_    0.357881 0.556778 0.328673 0.134105
H44   H     H_    0.332232 0.465628 0.275584 0.143369
H45   H     H_    0.797803 0.035119 0.372900 0.141005
H46   H     H_    0.144039 0.613105 0.869296 0.161603
H47   H     H_    0.143292 0.510734 0.908461 0.164744
H48   H     H_    0.209155 0.524562 0.850095 0.136548
H49   H     H_    0.017466 0.350096 0.846560 0.154890
H50   H     H_    0.011702 0.454485 0.809042 0.179533
H51   H     H_    0.930876 0.515891 0.882294 0.195025
H52   H     H_    0.916823 0.390817 0.910269 0.172352
H53   H     H_    0.405338 0.170174 0.952680 0.337792
H54   H     H_    0.068257 0.177803 0.809361 0.175987
H55   H     H_    0.162987 0.330200 0.804496 0.137229
H56   H     H_    0.849091 0.115786 0.209131 0.159166
H57   H     H_    0.170093 0.267691 0.859228 0.170281
H58   H     H_    0.235564 0.214209 0.756781 0.149738
H59   H     H_    0.241579 0.147302 0.809074 0.237679
H60   H     H_    0.391645 0.344888 0.850461 0.165117
H61   H     H_    0.383349 0.411062 0.799149 0.121646
H62   H     H_    0.950593 0.970491 0.859709 0.340359
H63   H     H_    0.370387 0.755384 0.020277 0.157799
H64   H     H_    0.499589 0.830801 0.061352 0.186787
H65   H     H_    0.424179 0.674811 0.051045 0.145378
H66   H     H_    0.372383 0.734008 0.130067 0.163437
H67   H     H_    0.542972 0.630890 0.128985 0.136425
H68   H     H_    0.244284 0.664574 0.089093 0.184961
H69   H     H_    0.288462 0.866190 0.069317 0.148381
H70   H     H_    0.402813 0.929753 0.114531 0.148123
H71   H     H_    0.758873 0.530104 0.229564 0.112550
H72   H     H_    0.503596 0.696684 0.371359 0.130043
O1    O     O_R   0.296680 0.802170 0.437540 -0.516024
O2    O     O_R   0.637200 0.461990 0.052510 -0.500020
O3    O     O_R   0.664790 0.681920 0.057970 -0.519514
O4    O     O_R   0.525380 0.838530 0.443500 -0.503956
O5    O     O_R   0.815840 0.852920 0.961840 -0.490705
O6    O     O_R   0.012100 0.822630 0.963670 -0.470889
O7    O     O_R   0.037010 0.668460 0.953040 -0.544455
O8    O     O_R   0.813390 0.478970 0.949660 -0.527437
O9    O     O_R   0.632250 0.456930 0.945520 -0.465697
O10   O     O_R   0.660200 0.677230 0.958780 -0.506344
O11   O     O_3   0.830870 0.661990 0.006950 -0.255224
O12   O     O_R   0.662610 0.183990 0.557860 -0.504177
O13   O     O_R   0.702130 0.995190 0.446810 -0.521920
O14   O     O_R   0.661770 0.181390 0.458760 -0.496368
O15   O     O_R   0.499820 0.198480 0.455280 -0.508705
O16   O     O_R   0.311660 0.976250 0.449080 -0.496828
O17   O     O_R   0.297580 0.804960 0.544440 -0.507214
O18   O     O_R   0.526220 0.841130 0.542590 -0.493704
O19   O     O_R   0.703030 0.997990 0.553710 -0.510958
O20   O     O_2   0.740402 0.043532 0.090297 -0.533789
O21   O     O_R   0.914914 0.091775 0.129279 -0.710933
O22   O     O_2   0.383709 0.146299 0.866208 -0.535648
O23   O     O_R   0.500730 0.201280 0.562180 -0.517378
O24   O     O_R   0.479486 0.231833 0.938675 -0.676893
O25   O     O_2   0.936193 0.926594 0.773562 -0.544254
O26   O     O_R   0.011845 0.946962 0.849529 -0.689349
O27   O     O_R   0.312500 0.978850 0.548170 -0.495218
O28   O     O_3   0.499990 0.999990 0.500010 -0.244918
O29   O     O_R   0.820790 0.857990 0.068830 -0.471547
O30   O     O_R   0.016700 0.827330 0.062850 -0.497365
O31   O     O_R   0.041970 0.673520 0.060040 -0.517119
O32   O     O_R   0.817980 0.483660 0.048840 -0.489676

loop_
_geom_bond_atom_site_label_1
_geom_bond_atom_site_label_2
_ccdc_geom_bond_type
C10   H57   S    
C55   C56   A    
C63   C65   A    
C84   H11   S    
C2    C18   A    
C59   C99   S    
C41   C42   A    
C109  H32   S    
C19   C20   A    
C76   C79   T    
C103  O20   D    
C105  H27   S    
C40   O19   A    
C14   H66   S    
C85   C91   A    
C47   C49   A    
H53   O24   S    
C20   C30   A    
C101  H17   S    
C21   C31   A    
C26   C27   A    
C38   C103  S    
Cr1   O28   S    
C62   C67   A    
C97   O29   A    
C23   C29   A    
C96   O2    A    
C13   C29   A    
C36   C37   A    
C100  H71   S    
C111  H41   S    
C9    H58   S    
C86   C91   A    
C46   C79   S    
Cr5   O11   S    
C78   C80   S    
C86   H14   S    
C39   C97   S    
C66   C69   A    
C27   C29   A    
C10   H55   S    
C73   H9    S    
C83   C93   T    
C15   H65   S    
C108  C109  S    
C12   C19   S    
C9    H59   S    
C52   O12   A    
C64   C71   S    
Cr3   O23   S    
Cr5   O32   S    
C61   C63   A    
C111  H42   S    
C110  C111  S    
Cr6   O2    S    
C108  H35   S    
C8    H60   S    
C97   O3    A    
C3    C111  S    
C8    C9    S    
C22   C25   A    
C32   H45   S    
C17   H18   S    
C95   O30   A    
C107  C108  S    
Cr4   O29   S    
C18   H19   S    
Cr4   O11   S    
C51   C70   A    
Cr2   O12   S    
C35   H16   S    
Cr5   O31   S    
C16   O14   A    
C1    C50   S    
C34   C36   A    
Cr6   O10   S    
C5    H50   S    
C66   C67   A    
C40   O18   A    
C8    C65   S    
C30   H20   S    
C34   C38   A    
C15   H63   S    
C72   H7    S    
C27   C30   A    
C28   O16   A    
C82   C98   S    
C40   C83   S    
Cr4   O30   S    
C109  H30   S    
C42   C44   A    
C1    O13   A    
C102  O5    A    
C103  O21   S    
Cr2   O28   S    
C104  C105  S    
C110  H44   S    
C64   O27   A    
C95   O31   A    
C46   C88   A    
C55   H3    S    
C45   C47   A    
C38   C39   A    
C26   H12   S    
C24   C35   A    
C4    H52   S    
C13   C19   A    
C33   C43   A    
Cr2   O19   S    
Cr3   O27   S    
C25   H23   S    
C84   C85   A    
C80   C82   T    
C74   C75   A    
C91   C92   S    
C14   H68   S    
C86   C87   A    
C72   C73   A    
C54   C67   A    
C2    C101  A    
C25   C26   A    
C5    H49   S    
C12   H70   S    
C64   O17   A    
H21   O21   S    
C33   C37   A    
C4    H51   S    
C60   C61   A    
C51   C53   A    
C87   H15   S    
C60   H6    S    
C1    O4    A    
C105  H26   S    
C72   C77   A    
Cr6   O3    S    
C104  H29   S    
C85   H13   S    
C49   H67   S    
C53   C62   A    
C51   H2    S    
C47   C48   A    
C60   C70   A    
C73   C78   A    
C43   C48   A    
C12   H69   S    
C99   O8    A    
C92   C94   T    
C17   C18   A    
C98   O7    A    
C88   C100  A    
Cr2   O13   S    
C106  H22   S    
C75   C77   A    
C3    H38   S    
C32   C50   A    
C7    O24   S    
Cr6   O11   S    
C59   C69   A    
C108  H33   S    
C39   C49   A    
Cr4   O5    S    
C12   C14   S    
C65   C66   A    
C87   C89   A    
C74   C78   A    
C24   H8    S    
Cr3   O15   S    
C109  H31   S    
C34   C48   A    
C42   C43   A    
C57   C68   S    
H62   O26   S    
Cr2   O14   S    
C31   C101  A    
C41   C50   A    
C63   H5    S    
C110  H43   S    
C44   C45   A    
C106  H24   S    
C3    H40   S    
C54   C58   A    
C53   C56   A    
C68   C90   T    
Cr4   O6    S    
C54   C55   A    
C106  H25   S    
C36   H56   S    
C16   C76   S    
C104  H28   S    
C20   C95   S    
C28   C31   S    
Cr1   O18   S    
C6    H47   S    
C4    C5    S    
C11   C74   S    
C28   O1    A    
C7    C69   S    
C37   C104  S    
C7    O22   D    
C90   C96   S    
C13   C17   A    
C105  C106  S    
C24   C57   A    
Cr3   O16   S    
C41   H72   S    
C56   H4    S    
C58   C59   A    
Cr1   O17   S    
C16   O15   A    
C102  O10   A    
C32   C33   A    
Cr5   O8    S    
C57   C100  A    
C22   C23   A    
C5    C6    S    
C15   H64   S    
C99   O9    A    
C3    H39   S    
C98   O6    A    
C9    C10   S    
C75   H10   S    
C21   H34   S    
C89   C93   S    
C61   C62   A    
C77   C81   S    
Cr1   O4    S    
C6    H48   S    
C107  H37   S    
C52   C70   S    
C11   O25   D    
Cr1   O1    S    
Cr5   O7    S    
C107  H36   S    
C8    H61   S    
C10   H54   S    
C6    H46   S    
C94   C102  S    
C96   O32   A    
C84   C89   A    
C4    C58   S    
C2    C23   A    
C52   O23   A    
C14   C15   S    
Cr3   O28   S    
C21   C22   A    
C35   C46   A    
C88   H1    S    
Cr6   O9    S    
C45   C107  S    
C11   O26   S    
C71   C81   T    
C44   C110  S    
