data_mof_unit_5454.cif
_audit_creation_date              2012-12-10T17:44:38-0500
_audit_creation_method            fapswitch 2.2
_symmetry_space_group_name_H-M    P1
_symmetry_Int_Tables_number       1
_space_group_crystal_system       triclinic
_cell_length_a                    9.935481
_cell_length_b                    10.647827
_cell_length_c                    15.463146
_cell_angle_alpha                 91.825024
_cell_angle_beta                  67.845592
_cell_angle_gamma                 89.957381
_cell_volume                      1514.17935688

loop_
_atom_site_label
_atom_site_type_symbol
_atom_type_description
_atom_site_fract_x
_atom_site_fract_y
_atom_site_fract_z
_atom_type_partial_charge
C1    C     C_R   0.499864 0.739258 0.500161 0.942031
C2    C     C_R   0.744202 0.525585 0.028954 0.053586
C3    C     C_R   0.597547 0.556176 0.084550 0.190350
C4    C     C_R   0.408901 0.501431 0.675979 0.896366
C5    C     C_R   0.843108 0.497883 0.071059 -0.132622
C6    C     C_R   0.795644 0.493527 0.167945 -0.088041
C7    C     C_R   0.550860 0.542925 0.180799 -0.086879
C8    C     C_R   0.535678 0.856940 0.328304 -0.193118
C9    C     C_R   0.554233 0.915782 0.245537 0.675387
C10   C     C_R   0.553695 0.046021 0.243655 -0.257395
C11   C     C_R   0.536143 0.118233 0.324103 0.628010
C12   C     C_R   0.429396 0.559784 0.907640 0.022884
C13   C     C_R   0.518698 0.060052 0.409037 -0.102959
C14   C     C_R   0.518101 0.928262 0.410715 -0.133078
C15   C     C_R   0.503126 0.871196 0.494757 -0.237753
C16   C     C_R   0.501635 0.260534 0.497306 1.099642
C17   C     C_R   0.492816 0.940008 0.575021 0.543463
C18   C     C_R   0.493748 0.068557 0.573803 0.536194
C19   C     C_R   0.504732 0.127814 0.492343 -0.307740
C20   C     C_R   0.791504 0.670602 0.619481 -0.077880
C21   C     C_R   0.827818 0.753234 0.678577 -0.160079
C22   C     C_R   0.966005 0.749631 0.680496 0.646576
C23   C     C_R   0.292547 0.617618 0.958743 -0.092360
C24   C     C_R   0.069410 0.664753 0.622148 -0.177338
C25   C     C_R   0.037561 0.582004 0.559793 -0.044054
C26   C     C_R   0.893546 0.583306 0.559099 0.037171
C27   C     C_R   0.962067 0.421020 0.442893 0.566908
C28   C     C_R   0.591150 0.502313 0.324111 0.956109
C29   C     C_R   0.105184 0.421227 0.442759 0.593102
C30   C     C_R   0.354238 0.523225 0.776993 -0.073398
C31   C     C_R   0.648173 0.512710 0.222771 -0.109864
C32   C     C_R   0.189407 0.629647 0.917211 -0.074503
C33   C     C_R   0.221718 0.585319 0.825656 -0.170510
C34   C     C_R   0.538962 0.557738 0.945531 -0.142631
C35   C     C_R   0.450803 0.502454 0.821037 -0.077267
C36   C     C_R   0.498696 0.587299 0.041960 -0.214856
C37   C     C_R   0.362256 0.647716 0.091602 0.587587
C38   C     C_R   0.262027 0.663927 0.049639 0.538759
C39   C     C_R   0.687958 0.531287 0.890586 0.660543
C40   C     C_R   0.788880 0.519056 0.932260 -0.253846
F1    F     F_    0.133646 0.723670 0.098887 -0.610866
F2    F     F_    0.741235 0.526373 0.795991 -0.699442
F3    F     F_    0.479528 0.882018 0.654871 -0.638654
F4    F     F_    0.574782 0.846341 0.166487 -0.611748
F5    F     F_    0.539242 0.244272 0.316726 -0.658117
F6    F     F_    0.481423 0.136098 0.652635 -0.620606
F7    F     F_    0.929430 0.340320 0.384295 -0.599379
F8    F     F_    0.000082 0.828346 0.739663 -0.633050
F9    F     F_    0.206468 0.340330 0.384164 -0.578617
F10   F     F_    0.329178 0.702687 0.177672 -0.604299
H1    H     H_    0.436662 0.548690 0.223690 0.219205
H2    H     H_    0.901530 0.498992 0.888617 0.168050
H3    H     H_    0.085963 0.676867 0.954151 0.208890
H4    H     H_    0.543798 0.442062 0.785443 0.225127
H5    H     H_    0.145807 0.603111 0.792252 0.176109
H6    H     H_    0.955844 0.475827 0.029083 0.150709
H7    H     H_    0.537111 0.755624 0.326879 0.148778
H8    H     H_    0.568262 0.091618 0.179188 0.204438
H9    H     H_    0.682178 0.677515 0.624195 0.234135
H10   H     H_    0.747118 0.818923 0.724354 0.209762
H11   H     H_    0.172919 0.665761 0.627895 0.212504
H12   H     H_    0.872690 0.470508 0.199495 0.197883
N1    N     N_R   0.856800 0.501200 0.500850 -0.190405
N2    N     N_R   0.142390 0.501280 0.500880 -0.187674
O1    O     O_R   0.385310 0.683220 0.500000 -0.641768
O2    O     O_R   0.614640 0.683250 0.500010 -0.636755
O3    O     O_R   0.319840 0.499980 0.632240 -0.643500
O4    O     O_R   0.549160 0.500000 0.632250 -0.619891
O5    O     O_R   0.385360 0.316750 0.499990 -0.548805
O6    O     O_R   0.614690 0.316780 0.500000 -0.552748
O7    O     O_R   0.450840 0.500000 0.367750 -0.557820
O8    O     O_R   0.680160 0.500020 0.367760 -0.586628
Zn1   Zn    Zn3+2 0.346880 0.499980 0.499990 1.044873
Zn2   Zn    Zn3+2 0.653120 0.500020 0.500010 1.053809

loop_
_geom_bond_atom_site_label_1
_geom_bond_atom_site_label_2
_ccdc_geom_bond_type
C33   H5    S    
C22   F8    S    
C24   H11   S    
C27   C29   A    
C5    H6    S    
C29   F9    S    
C12   C23   A    
C30   C35   A    
C36   C37   A    
C10   H8    S    
C3    C7    A    
C5    C6    A    
O4    Zn2   S    
O2    Zn2   S    
O1    Zn1   S    
C18   C19   A    
C8    C9    A    
O6    Zn2   S    
C1    O1    A    
N2    Zn1   S    
O5    Zn1   S    
C1    C15   S    
C9    C10   A    
C6    C31   A    
C29   N2    A    
C13   C14   A    
C35   H4    S    
C28   O8    A    
C18   F6    S    
C1    O2    A    
C39   F2    S    
C7    C31   A    
C13   C19   A    
C34   C39   A    
C16   O6    A    
C24   C25   A    
C38   F1    S    
O8    Zn2   S    
C39   C40   A    
C4    O4    A    
C25   C26   A    
C40   H2    S    
C12   C35   A    
C25   N2    A    
C26   N1    A    
C17   F3    S    
C37   C38   A    
C8    H7    S    
C17   C18   A    
C20   H9    S    
C27   N1    A    
C21   H10   S    
O3    Zn1   S    
C22   C24   A    
C11   F5    S    
C28   O7    A    
C12   C34   A    
C32   H3    S    
O7    Zn1   S    
C27   F7    S    
C15   C17   A    
C9    F4    S    
C8    C14   A    
C30   C33   A    
C28   C31   S    
C16   O5    A    
C4    O3    A    
N1    Zn2   S    
C23   C38   A    
C23   C32   A    
C6    H12   S    
C2    C3    A    
C7    H1    S    
C32   C33   A    
C37   F10   S    
C11   C13   A    
C20   C26   A    
C3    C36   A    
C16   C19   S    
C34   C36   A    
C10   C11   A    
C2    C5    A    
C2    C40   A    
C20   C21   A    
C14   C15   A    
C21   C22   A    
C4    C30   S    
