data_mof_unit_25766.cif
_audit_creation_date              2012-12-11T15:29:43-0500
_audit_creation_method            fapswitch 2.2
_symmetry_space_group_name_H-M    P1
_symmetry_Int_Tables_number       1
_space_group_crystal_system       triclinic
_cell_length_a                    21.607426
_cell_length_b                    7.338396
_cell_length_c                    14.838047
_cell_angle_alpha                 90.011405
_cell_angle_beta                  74.191534
_cell_angle_gamma                 89.964993
_cell_volume                      2263.78990193

loop_
_atom_site_label
_atom_site_type_symbol
_atom_type_description
_atom_site_fract_x
_atom_site_fract_y
_atom_site_fract_z
_atom_type_partial_charge
O1    O     O_R   0.464160 0.506670 0.130070 -0.520871
O2    O     O_R   0.535840 0.006670 0.869930 -0.517835
O3    O     O_R   0.589710 0.179080 0.006710 -0.522748
O4    O     O_R   0.410290 0.679080 0.993290 -0.521610
C1    C     C_R   0.615734 0.345002 0.004718 0.764021
C2    C     C_R   0.384261 0.845198 0.995448 0.719113
O5    O     O_R   0.467940 0.177220 0.138010 -0.554881
O6    O     O_R   0.532060 0.677220 0.861990 -0.549566
O7    O     O_R   0.413200 0.002810 0.002170 -0.555619
O8    O     O_R   0.586800 0.502810 0.997830 -0.552039
C3    C     C_R   0.456048 0.346573 0.174624 0.732089
C4    C     C_R   0.543933 0.846544 0.825273 0.740166
O9    O     O_3   0.482180 0.337850 0.955280 -0.396598
O10   O     O_3   0.517820 0.837850 0.044720 -0.398342
V1    V     V_3+5 0.503310 0.064600 0.008300 1.430200
V2    V     V_3+5 0.496690 0.564600 0.991700 1.438290
C5    C     C_R   0.569894 0.865310 0.722048 -0.138153
C6    C     C_R   0.429793 0.365463 0.277626 -0.137183
C7    C     C_R   0.927115 0.856503 0.274796 -0.118896
C8    C     C_R   0.072190 0.356246 0.724794 -0.119943
C9    C     C_R   0.566409 0.006496 0.574659 0.214227
C10   C     C_R   0.432325 0.508707 0.424726 0.212776
C11   C     C_R   0.538452 0.977069 0.670589 0.138216
C12   C     C_R   0.460786 0.478183 0.329144 0.137660
C13   C     C_R   0.631306 0.796606 0.677282 -0.157095
C14   C     C_R   0.368478 0.295913 0.321939 -0.161316
C15   C     C_R   0.665557 0.854967 0.585892 0.050187
C16   C     C_R   0.333587 0.354838 0.412905 0.052431
C17   C     C_R   0.629680 0.946097 0.532272 0.077974
C18   C     C_R   0.369018 0.448245 0.466553 0.077764
C19   C     C_R   0.733612 0.825916 0.545290 -0.013595
C20   C     C_R   0.265457 0.324649 0.453197 -0.019992
C21   C     C_R   0.761392 0.864520 0.447532 0.038875
C22   C     C_R   0.237428 0.366161 0.550769 0.038361
C23   C     C_R   0.721138 0.933440 0.395031 -0.170526
C24   C     C_R   0.277334 0.437781 0.603086 -0.171250
C25   C     C_R   0.657602 0.978224 0.437040 -0.152091
C26   C     C_R   0.340754 0.482451 0.561377 -0.152253
C27   C     C_R   0.776469 0.773179 0.598530 0.373106
C28   C     C_R   0.222691 0.267131 0.400335 0.382495
C29   C     C_R   0.840652 0.735897 0.555920 -0.159729
C30   C     C_R   0.158263 0.233071 0.443413 -0.159384
C31   C     C_R   0.867522 0.770142 0.461721 -0.011275
C32   C     C_R   0.131374 0.270182 0.537398 -0.014572
C33   C     C_R   0.829135 0.839763 0.406098 0.082340
C34   C     C_R   0.169794 0.340910 0.592575 0.082661
C35   C     C_R   0.933789 0.743260 0.424333 -0.140347
C36   C     C_R   0.065166 0.242783 0.575332 -0.139603
C37   C     C_R   0.963508 0.784481 0.331346 0.363255
C38   C     C_R   0.035681 0.283640 0.668547 0.363411
C39   C     C_R   0.860761 0.884132 0.311660 -0.219049
C40   C     C_R   0.138372 0.385024 0.687249 -0.223026
H1    H     H_    0.630253 0.039383 0.393603 0.160385
H2    H     H_    0.367723 0.545492 0.604798 0.160713
H3    H     H_    0.835437 0.936334 0.263893 0.144042
H4    H     H_    0.163724 0.437133 0.734961 0.141726
H5    H     H_    0.871431 0.692955 0.598906 0.185503
H6    H     H_    0.127475 0.187053 0.401068 0.188622
H7    H     H_    0.651421 0.699450 0.715718 0.192941
H8    H     H_    0.349352 0.196822 0.283510 0.184472
H9    H     H_    0.737661 0.960752 0.321091 0.131316
H10   H     H_    0.260681 0.467655 0.676724 0.128524
H11   H     H_    0.962712 0.689702 0.467641 0.164754
H12   H     H_    0.036160 0.188262 0.532398 0.164921
C41   C     C_3   0.227470 0.774430 0.906666 -0.391370
C42   C     C_3   0.772945 0.270998 0.092761 -0.381189
H13   H     H_    0.202490 0.646354 0.897040 0.192619
H14   H     H_    0.798085 0.141898 0.100339 0.190221
H15   H     H_    0.227650 0.857474 0.844022 0.176126
H16   H     H_    0.773077 0.350863 0.156335 0.180085
C43   C     C_3   0.298020 0.733274 0.911714 0.363225
C44   C     C_3   0.702097 0.231980 0.088759 0.357787
H17   H     H_    0.184430 0.622680 0.075341 0.219008
H18   H     H_    0.817391 0.126839 0.921427 0.228405
C45   C     C_3   0.196786 0.768144 0.082144 -0.313952
C46   C     C_3   0.803518 0.271556 0.916767 -0.376918
C47   C     C_3   0.216919 0.074570 0.995590 0.506691
C48   C     C_3   0.782601 0.574696 0.008543 0.507517
C49   C     C_3   0.187826 0.873974 0.995889 -0.168950
C50   C     C_3   0.812182 0.373965 0.004368 -0.161562
C51   C     C_3   0.312909 0.856869 0.994073 -0.077035
C52   C     C_3   0.687119 0.356019 0.006306 -0.073366
C53   C     C_3   0.266821 0.785377 0.091352 0.470853
C54   C     C_3   0.732933 0.284350 0.908863 0.495667
C55   C     C_3   0.293554 0.063108 0.974294 0.342343
C56   C     C_3   0.706080 0.562120 0.026543 0.323441
H19   H     H_    0.161489 0.817433 0.146713 0.203362
H20   H     H_    0.838170 0.324115 0.852468 0.196783
O11   O     O_R   0.913210 0.208550 0.002110 -0.538227
O12   O     O_R   0.086790 0.708550 0.997890 -0.535888
O13   O     O_R   0.032060 0.539960 0.861980 -0.549897
O14   O     O_R   0.967940 0.039960 0.138020 -0.550323
C57   C     C_R   0.044443 0.372012 0.826105 0.787000
C58   C     C_R   0.955276 0.872138 0.173749 0.788094
O15   O     O_R   0.910290 0.538020 0.993280 -0.519397
O16   O     O_R   0.089710 0.038020 0.006720 -0.518110
O17   O     O_R   0.964160 0.712340 0.130090 -0.513315
O18   O     O_R   0.035840 0.212340 0.869910 -0.513873
C59   C     C_R   0.883953 0.372067 0.000481 0.750340
C60   C     C_R   0.116054 0.872034 0.999597 0.742076
O19   O     O_3   0.017820 0.379210 0.044690 -0.374126
O20   O     O_3   0.982180 0.879210 0.955310 -0.376522
V3    V     V_3+5 0.996690 0.652500 0.991710 1.565573
V4    V     V_3+5 0.003310 0.152500 0.008290 1.565926
N1    N     N_3   0.343550 0.769769 0.819590 -0.681944
H21   H     H_    0.389251 0.721545 0.818615 0.205519
H22   H     H_    0.329391 0.698075 0.767569 0.223860
N2    N     N_3   0.657084 0.270104 0.181117 -0.686376
H23   H     H_    0.611097 0.223849 0.182508 0.204665
H24   H     H_    0.671148 0.197834 0.233049 0.225167
N3    N     N_3   0.301506 0.538791 0.930564 -0.576947
H25   H     H_    0.349511 0.504081 0.920406 0.236353
H26   H     H_    0.288267 0.467994 0.877768 0.257055
N4    N     N_3   0.697851 0.037265 0.071109 -0.578604
H27   H     H_    0.649661 0.004001 0.081832 0.234704
H28   H     H_    0.711514 0.966397 0.123562 0.257128
Cl1   Cl    Cl    0.291340 0.568930 0.125556 -0.587864
Cl2   Cl    Cl    0.708463 0.064279 0.880024 -0.561172
N5    N     N_3   0.190399 0.158753 0.088907 -0.552806
H29   H     H_    0.141126 0.137906 0.115812 0.247456
H30   H     H_    0.196811 0.299876 0.084078 0.323243
N6    N     N_3   0.810187 0.670207 0.918725 -0.606921
H31   H     H_    0.858575 0.642312 0.887861 0.248008
H32   H     H_    0.805821 0.811044 0.928474 0.323643
Cl3   Cl    Cl    0.194563 0.222258 0.910702 -0.761640
Cl4   Cl    Cl    0.803610 0.710875 0.098856 -0.764342
N7    N     N_3   0.327198 0.103758 0.874733 -0.649439
H33   H     H_    0.300414 0.086216 0.826693 0.292425
H34   H     H_    0.352238 0.226065 0.861385 0.229033
N8    N     N_3   0.670621 0.603576 0.125318 -0.650871
H35   H     H_    0.695814 0.582977 0.175129 0.298331
H36   H     H_    0.646569 0.727439 0.137965 0.228710
N9    N     N_3   0.313477 0.203843 0.032762 -0.542042
H37   H     H_    0.357348 0.265375 0.000760 0.267023
H38   H     H_    0.317507 0.159571 0.097000 0.300189
N10   N     N_3   0.687113 0.700814 0.966081 -0.539484
H39   H     H_    0.644031 0.766751 0.997955 0.271795
H40   H     H_    0.680921 0.652378 0.903652 0.293806
N11   N     N_3   0.266771 0.906736 0.169646 -0.612986
H41   H     H_    0.312186 0.902787 0.182066 0.230718
H42   H     H_    0.234629 0.857743 0.230991 0.300602
N12   N     N_3   0.729870 0.398525 0.828677 -0.667043
H43   H     H_    0.741734 0.323233 0.766408 0.298792
H44   H     H_    0.765263 0.497816 0.816399 0.289976
Cl5   Cl    Cl    0.046446 0.741759 0.287495 -0.683207
Cl6   Cl    Cl    0.952950 0.239107 0.713131 -0.682321
N13   N     N_3   0.531890 0.108039 0.521135 -0.679695
H45   H     H_    0.488216 0.042150 0.526006 0.255267
H46   H     H_    0.521820 0.237530 0.550937 0.256409
N14   N     N_3   0.466414 0.611188 0.478488 -0.679958
H47   H     H_    0.509964 0.545183 0.474564 0.255551
H48   H     H_    0.476709 0.740165 0.448226 0.256182
N15   N     N_3   0.477888 0.062350 0.713826 -0.670482
H49   H     H_    0.484620 0.161248 0.760876 0.251428
H50   H     H_    0.446254 0.964188 0.750561 0.249581
N16   N     N_3   0.521468 0.563033 0.286371 -0.671078
H51   H     H_    0.515088 0.661428 0.238858 0.250662
H52   H     H_    0.553283 0.464443 0.250318 0.248901
Cl7   Cl    Cl    0.760771 0.794045 0.719548 -0.624662
Cl8   Cl    Cl    0.239124 0.268408 0.278278 -0.607570

loop_
_geom_bond_atom_site_label_1
_geom_bond_atom_site_label_2
_ccdc_geom_bond_type
C42   H14   S    
C8    C57   S    
C10   N14   S    
C3    C6    S    
C41   C49   S    
C44   N4    S    
C15   C17   A    
C21   C33   A    
N13   H45   S    
O1    C3    A    
O2    C4    A    
C46   C54   S    
C2    O7    A    
C53   N11   S    
N4    H27   S    
C47   Cl3   S    
C27   C29   A    
O5    C3    A    
N1    H22   S    
C5    C11   A    
H18   C46   S    
O11   C59   A    
C6    C12   A    
C9    N13   S    
N16   H51   S    
C23   C25   A    
C35   H11   S    
C48   C50   S    
C36   H12   S    
C33   C39   A    
O15   C59   A    
C34   C40   A    
N2    H23   S    
C18   C26   A    
C8    C38   A    
N16   H52   S    
C42   C44   S    
C44   N2    S    
C32   C34   A    
C41   H13   S    
C43   N3    S    
C4    C5    S    
C19   C21   A    
C22   C34   A    
N15   H50   S    
C31   C35   A    
C46   H20   S    
C39   H3    S    
C25   H1    S    
C48   C56   S    
O5    V1    S    
C47   C55   S    
O6    V2    S    
C2    C51   S    
C29   C31   A    
C30   H6    S    
C30   C32   A    
C24   H10   S    
O12   C60   A    
C51   C53   S    
O15   V3    S    
N5    H30   S    
C9    C11   A    
N11   H41   S    
C15   C19   A    
C49   C60   S    
C16   C20   A    
C38   Cl6   S    
N10   H40   S    
C56   N8    S    
C58   O17   A    
O3    C1    A    
C52   C56   S    
C9    C17   A    
C54   Cl2   S    
C41   C43   S    
C20   C22   A    
O4    V2    S    
N8    H36   S    
N7    H34   S    
N14   H48   S    
O13   C57   A    
C7    C37   A    
C26   H2    S    
C54   N12   S    
O6    C4    A    
C6    C14   A    
O14   C58   A    
C47   C49   S    
C37   Cl5   S    
N3    H26   S    
O1    V2    S    
O2    V1    S    
C31   C33   A    
O17   V3    S    
C7    C58   S    
C12   N16   S    
C45   H19   S    
O19   V4    S    
C52   C54   S    
C11   N15   S    
O11   V4    S    
N9    H37   S    
C10   C12   A    
C55   N7    S    
O4    C2    A    
C13   C15   A    
H17   C45   S    
N6    H32   S    
N7    H33   S    
C48   Cl4   S    
N12   H44   S    
O3    V1    S    
N9    H38   S    
C56   N10   S    
O16   V4    S    
C10   C18   A    
N3    H25   S    
N13   H46   S    
O10   V1    S    
C27   Cl7   S    
C28   Cl8   S    
C46   C50   S    
O13   V3    S    
C28   C30   A    
C47   N5    S    
N4    H28   S    
N5    H29   S    
C35   C37   A    
C42   C50   S    
N1    H21   S    
C14   C16   A    
N14   H47   S    
C5    C13   A    
C53   Cl1   S    
C43   N1    S    
N8    H35   S    
O7    V1    S    
C29   H5    S    
C16   C18   A    
C50   C59   S    
C32   C36   A    
O8    V2    S    
C24   C26   A    
C1    C52   S    
N11   H42   S    
C45   C53   S    
C42   H16   S    
C14   H8    S    
C23   H9    S    
C41   H15   S    
O16   C60   A    
C36   C38   A    
C21   C23   A    
N2    H24   S    
C22   C24   A    
C20   C28   A    
O20   V3    S    
C48   N6    S    
C44   C52   S    
O12   V3    S    
O14   V4    S    
C7    C39   A    
C1    O8    A    
C8    C40   A    
O9    V2    S    
C17   C25   A    
C19   C27   A    
N12   H43   S    
N10   H39   S    
C13   H7    S    
C43   C51   S    
N6    H31   S    
C45   C49   S    
C57   O18   A    
O18   V4    S    
C51   C55   S    
C40   H4    S    
C55   N9    S    
N15   H49   S    
