data_mof_unit_14035.cif
_audit_creation_date              2012-12-10T17:25:21-0500
_audit_creation_method            fapswitch 2.2
_symmetry_space_group_name_H-M    P1
_symmetry_Int_Tables_number       1
_space_group_crystal_system       triclinic
_cell_length_a                    27.805549
_cell_length_b                    10.861139
_cell_length_c                    9.570056
_cell_angle_alpha                 90.427634
_cell_angle_beta                  90.005502
_cell_angle_gamma                 92.557067
_cell_volume                      2887.19779884

loop_
_atom_site_label
_atom_site_type_symbol
_atom_type_description
_atom_site_fract_x
_atom_site_fract_y
_atom_site_fract_z
_atom_type_partial_charge
C1    C     C_R   0.503881 0.263096 0.500279 0.809654
C2    C     C_R   0.278698 0.488431 0.626526 -0.099964
C3    C     C_R   0.253617 0.501155 0.501026 0.353280
C4    C     C_R   0.101950 0.503828 0.504379 -0.049683
C5    C     C_R   0.125412 0.393270 0.526195 -0.004522
C6    C     C_R   0.098110 0.284241 0.549138 -0.128653
C7    C     C_R   0.129680 0.613536 0.482448 -0.119912
C8    C     C_R   0.354505 0.499975 0.500185 -0.043043
C9    C     C_R   0.645510 0.502727 0.500194 -0.037610
C10   C     C_R   0.972660 0.397352 0.545062 0.045466
C11   C     C_R   0.976706 0.612408 0.463182 0.056790
C12   C     C_R   0.407484 0.499732 0.499992 0.809668
C13   C     C_R   0.949423 0.505015 0.504011 0.066844
C14   C     C_R   0.943998 0.295977 0.594575 -0.200535
C15   C     C_R   0.894076 0.298336 0.596954 -0.135795
C16   C     C_R   0.870790 0.401458 0.549543 -0.021255
C17   C     C_R   0.898327 0.504899 0.502475 -0.048069
C18   C     C_R   0.874687 0.607965 0.453101 -0.019047
C19   C     C_R   0.824163 0.606326 0.453331 0.540846
C20   C     C_R   0.820348 0.403664 0.548166 0.536346
C21   C     C_R   0.721301 0.505376 0.373879 -0.101325
C22   C     C_R   0.671131 0.504089 0.373514 -0.221064
C23   C     C_R   0.497406 0.737654 0.501616 0.786802
C24   C     C_R   0.671020 0.503518 0.627081 -0.224250
C25   C     C_R   0.721182 0.504833 0.627120 -0.100297
C26   C     C_R   0.746510 0.505485 0.500607 0.353451
C27   C     C_R   0.023541 0.394506 0.535348 0.067298
C28   C     C_R   0.050879 0.504734 0.505141 0.004105
C29   C     C_R   0.027706 0.615938 0.476712 -0.085760
C30   C     C_R   0.048186 0.284624 0.553848 -0.189130
C31   C     C_R   0.106661 0.724188 0.466317 -0.189580
C32   C     C_R   0.951876 0.710798 0.405398 -0.129785
C33   C     C_R   0.901873 0.709195 0.402216 -0.174085
C34   C     C_R   0.592518 0.500831 0.500049 0.776721
C35   C     C_R   0.056695 0.726584 0.465974 0.571991
C36   C     C_R   0.532040 0.123081 0.754353 -0.150612
C37   C     C_R   0.526759 0.065439 0.883289 -0.154261
C38   C     C_R   0.503019 0.950606 0.891161 -0.138004
C39   C     C_R   0.489069 0.888182 0.768931 -0.155712
C40   C     C_R   0.499167 0.939844 0.635629 0.094728
C41   C     C_R   0.513595 0.065679 0.630709 0.097251
C42   C     C_R   0.508287 0.129341 0.502903 -0.118637
C43   C     C_R   0.500560 0.062914 0.378522 -0.203262
C44   C     C_R   0.496451 0.935720 0.380159 -0.205632
C45   C     C_R   0.175915 0.394328 0.523968 0.536998
C46   C     C_R   0.495630 0.872381 0.507185 -0.111131
C47   C     C_R   0.564086 0.664041 0.145547 -0.165475
C48   C     C_R   0.595338 0.744110 0.073728 -0.217677
C49   C     C_R   0.595383 0.743852 0.929801 -0.192734
C50   C     C_R   0.564100 0.663715 0.856875 -0.155620
C51   C     C_R   0.531485 0.580628 0.925735 0.193295
C52   C     C_R   0.531473 0.580672 0.075501 0.208779
C53   C     C_R   0.470184 0.422976 0.073318 -0.071658
C54   C     C_R   0.470199 0.423009 0.925226 -0.068950
C55   C     C_R   0.180121 0.610578 0.481372 0.573314
C56   C     C_R   0.278914 0.513215 0.375062 -0.100933
C57   C     C_R   0.329062 0.512313 0.374430 -0.212457
C58   C     C_R   0.328837 0.488117 0.626322 -0.211883
Cu1   Cu    Cu3+1 0.500000 0.499990 0.640660 0.924146
Cu2   Cu    Cu3+1 0.500000 0.500010 0.359340 0.934294
H1    H     H_    0.347429 0.478256 0.724780 0.157015
H2    H     H_    0.259647 0.522938 0.277710 0.140362
H3    H     H_    0.127336 0.810637 0.456519 0.215999
H4    H     H_    0.970153 0.788175 0.355638 0.217164
H5    H     H_    0.652290 0.502992 0.726317 0.163304
H6    H     H_    0.884601 0.787553 0.358240 0.193665
H7    H     H_    0.740444 0.505381 0.725488 0.144040
H8    H     H_    0.497609 0.109195 0.279182 0.161779
H9    H     H_    0.551500 0.211427 0.752887 0.164078
H10   H     H_    0.539816 0.111539 0.977492 0.138653
H11   H     H_    0.259273 0.479239 0.724228 0.140126
H12   H     H_    0.496289 0.908507 0.991903 0.139798
H13   H     H_    0.468868 0.802036 0.782237 0.171133
H14   H     H_    0.493057 0.887040 0.281169 0.164143
H15   H     H_    0.445778 0.359890 0.128234 0.140552
H16   H     H_    0.567316 0.671861 0.255667 0.203900
H17   H     H_    0.619742 0.806827 0.130511 0.165256
H18   H     H_    0.619717 0.806597 0.873885 0.164538
H19   H     H_    0.566969 0.671900 0.746846 0.204525
H20   H     H_    0.445813 0.359910 0.869170 0.146601
H21   H     H_    0.115247 0.197630 0.563929 0.199037
H22   H     H_    0.652479 0.503882 0.274148 0.164459
H23   H     H_    0.740642 0.505581 0.275668 0.144419
H24   H     H_    0.873760 0.218306 0.635795 0.191751
H25   H     H_    0.959156 0.214153 0.635716 0.152127
H26   H     H_    0.029801 0.196231 0.568563 0.164426
H27   H     H_    0.347852 0.521770 0.275710 0.159091
N1    N     N_R   0.202087 0.501963 0.501642 -0.469014
N2    N     N_R   0.798121 0.505265 0.500866 -0.468835
N3    N     N_R   0.500460 0.501210 0.147910 -0.198121
N4    N     N_R   0.500480 0.501290 0.852040 -0.203781
O1    O     O_R   0.500000 0.319640 0.618810 -0.587064
O2    O     O_2   0.793688 0.304623 0.592432 -0.535580
O3    O     O_2   0.207037 0.715434 0.461193 -0.527270
O4    O     O_2   0.801234 0.705317 0.407660 -0.536323
O5    O     O_R   0.500000 0.319660 0.381240 -0.579015
O6    O     O_R   0.430260 0.500010 0.618770 -0.581943
O7    O     O_R   0.430270 0.500030 0.381200 -0.579165
O8    O     O_R   0.500000 0.680340 0.618760 -0.612907
O9    O     O_R   0.500000 0.680360 0.381190 -0.598252
O10   O     O_R   0.569730 0.499970 0.618800 -0.605119
O11   O     O_R   0.569740 0.499990 0.381230 -0.598720
O12   O     O_2   0.198721 0.288670 0.543408 -0.528312
F1    F     F_    0.037892 0.839635 0.467525 -0.686589

loop_
_geom_bond_atom_site_label_1
_geom_bond_atom_site_label_2
_ccdc_geom_bond_type
C10   C27   A    
C23   O8    A    
C21   C26   A    
Cu1   O8    S    
C41   C42   A    
C52   N3    A    
C25   H7    S    
C7    C55   A    
C20   O2    S    
C50   H19   S    
C53   C54   A    
C49   H18   S    
C26   N2    S    
C40   C46   A    
C28   C29   A    
C34   O11   A    
C22   H22   S    
C36   C37   A    
C47   H16   S    
Cu2   O7    S    
C4    C7    A    
C5    C6    A    
C9    C22   A    
C15   C16   A    
C56   C57   A    
C18   C19   A    
C55   N1    A    
C45   O12   S    
C8    C58   A    
C21   H23   S    
C16   C17   A    
C30   H26   S    
C12   O7    A    
C16   C20   A    
C51   N4    A    
C58   H1    S    
C23   O9    A    
Cu1   Cu2   S    
C23   C46   S    
C21   C22   A    
C27   C30   A    
C36   C41   A    
C53   H15   S    
C55   O3    S    
Cu2   O11   S    
C4    C28   A    
C44   C46   A    
C33   H6    S    
C17   C18   A    
C54   H20   S    
C38   H12   S    
C34   O10   A    
C7    C31   A    
C51   C52   A    
Cu1   O10   S    
C31   H3    S    
C45   N1    A    
C24   C25   A    
C32   H4    S    
C35   F1    S    
C10   C14   A    
C39   C40   A    
C43   H8    S    
C25   C26   A    
C5    C45   A    
C57   H27   S    
C48   H17   S    
C43   C44   A    
C37   C38   A    
C19   N2    A    
C8    C57   A    
C3    C56   A    
C47   C48   A    
C8    C12   S    
C50   C51   A    
Cu1   N4    S    
C44   H14   S    
C12   O6    A    
C15   H24   S    
C24   H5    S    
Cu2   O5    S    
C40   C41   A    
C6    C30   A    
C11   C32   A    
C1    O1    A    
C9    C34   S    
Cu1   O6    S    
C31   C35   A    
C42   C43   A    
C2    H11   S    
C53   N3    A    
C19   O4    S    
C36   H9    S    
C48   C49   A    
C3    N1    S    
C14   H25   S    
C4    C5    A    
Cu2   O9    S    
C10   C13   A    
C2    C58   A    
C9    C24   A    
C47   C52   A    
Cu2   N3    S    
C20   N2    A    
C29   C35   A    
C13   C17   A    
C32   C33   A    
C2    C3    A    
C54   N4    A    
C11   C13   A    
C38   C39   A    
C1    O5    A    
C56   H2    S    
Cu1   O1    S    
C39   H13   S    
C18   C33   A    
C1    C42   S    
C11   C29   A    
C49   C50   A    
C27   C28   A    
C6    H21   S    
C14   C15   A    
C37   H10   S    
