data_mof_unit_48706.cif
_audit_creation_date              2012-12-11T15:08:51-0500
_audit_creation_method            fapswitch 2.2
_symmetry_space_group_name_H-M    P1
_symmetry_Int_Tables_number       1
_space_group_crystal_system       triclinic
_cell_length_a                    19.448782
_cell_length_b                    11.34132
_cell_length_c                    18.684537
_cell_angle_alpha                 89.976567
_cell_angle_beta                  90.369572
_cell_angle_gamma                 90.142483
_cell_volume                      4121.24034129

loop_
_atom_site_label
_atom_site_type_symbol
_atom_type_description
_atom_site_fract_x
_atom_site_fract_y
_atom_site_fract_z
_atom_type_partial_charge
C1    C     C_R   0.272234 0.043669 0.853907 0.562387
C2    C     C_3   0.682787 0.527702 0.953834 0.170313
C3    C     C_R   0.227576 0.545537 0.353219 0.539032
C4    C     C_R   0.467958 0.822929 0.645055 0.546625
C5    C     C_R   0.530182 0.822730 0.353772 0.543992
C6    C     C_R   0.967937 0.322927 0.645052 0.546068
C7    C     C_R   0.030184 0.322730 0.353774 0.543068
C8    C     C_R   0.261046 0.641273 0.643294 0.542478
C9    C     C_R   0.739912 0.638276 0.355500 0.539441
C10   C     C_R   0.761046 0.141277 0.643293 0.542091
C11   C     C_R   0.239913 0.138275 0.355500 0.539033
C12   C     C_3   0.483781 0.925276 0.034360 -0.105992
C13   C     C_3   0.806480 0.004464 0.039982 0.167757
C14   C     C_3   0.522701 0.915645 0.962186 -0.107150
C15   C     C_3   0.995153 0.432141 0.029885 -0.115473
C16   C     C_3   0.031446 0.403709 0.958233 -0.109658
C17   C     C_3   0.431240 0.832004 0.008122 -0.155457
C18   C     C_3   0.567535 0.814958 0.993000 -0.136168
C19   C     C_3   0.935009 0.351204 0.008187 -0.166771
C20   C     C_3   0.067804 0.297174 0.993555 -0.129216
C21   C     C_3   0.470178 0.823308 0.936924 0.044387
C22   C     C_3   0.528665 0.825635 0.064034 0.037590
C23   C     C_3   0.971511 0.322699 0.937243 0.051353
C24   C     C_3   0.188988 0.019275 0.956788 0.165593
C25   C     C_3   0.031001 0.325954 0.063845 0.029189
C26   C     C_3   0.410548 0.447755 0.092979 -0.148548
C27   C     C_3   0.587503 0.485079 0.880829 -0.139051
C28   C     C_3   0.915773 0.947365 0.077955 -0.153938
C29   C     C_3   0.088073 0.965573 0.896845 -0.136802
C30   C     C_3   0.322250 0.552412 0.963394 -0.196058
C31   C     C_3   0.672469 0.558596 0.034413 -0.189647
C32   C     C_3   0.812949 0.018405 0.957373 -0.200151
C33   C     C_3   0.178413 0.046514 0.037266 -0.191693
C34   C     C_3   0.178327 0.522694 0.023824 -0.265519
C35   C     C_3   0.811904 0.513755 0.973546 -0.266370
C36   C     C_3   0.676626 0.036918 0.026273 -0.263441
C37   C     C_R   0.727616 0.042884 0.145458 0.547393
C38   C     C_3   0.320002 0.024136 0.973788 -0.260881
C39   C     C_3   0.243906 0.702787 0.056424 -0.254582
C40   C     C_3   0.759162 0.704426 0.943111 -0.247558
C41   C     C_3   0.754406 0.202415 0.055260 -0.235926
C42   C     C_3   0.256426 0.204940 0.944245 -0.253342
C43   C     C_3   0.240448 0.570307 0.069186 0.087109
C44   C     C_3   0.754771 0.573055 0.928544 0.093257
C45   C     C_3   0.742537 0.072130 0.069095 0.082267
C46   C     C_3   0.258012 0.073281 0.929791 0.086588
C47   C     C_3   0.256055 0.608351 0.931695 0.024611
C48   C     C_R   0.771454 0.544150 0.853291 0.563344
C49   C     C_3   0.740721 0.608697 0.066875 0.024054
C50   C     C_3   0.756471 0.103307 0.930338 0.031386
C51   C     C_3   0.244261 0.105192 0.068518 0.024694
C52   C     C_3   0.195094 0.524673 0.943276 -0.275444
C53   C     C_3   0.797670 0.519362 0.054467 -0.280272
C54   C     C_3   0.685778 0.049252 0.945500 -0.268429
C55   C     C_3   0.305069 0.022484 0.054911 -0.276853
C56   C     C_3   0.241112 0.722061 0.974845 -0.245448
C57   C     C_3   0.758846 0.720898 0.024626 -0.242827
C58   C     C_3   0.766930 0.217040 0.974242 -0.230038
C59   C     C_R   0.226535 0.540736 0.144904 0.566771
C60   C     C_3   0.258151 0.220334 0.026299 -0.240297
C61   C     C_3   0.494062 0.700705 0.457993 -0.235050
C62   C     C_3   0.492421 0.700530 0.538091 -0.227757
C63   C     C_3   0.994061 0.200705 0.457993 -0.235130
C64   C     C_3   0.992412 0.200531 0.538090 -0.227585
C65   C     C_R   0.443610 0.817426 0.862392 0.541337
C66   C     C_R   0.556130 0.817936 0.137745 0.537536
C67   C     C_R   0.944585 0.317469 0.862563 0.542115
C68   C     C_R   0.057245 0.317865 0.137927 0.535816
C69   C     C_3   0.568247 0.882633 0.473606 -0.225799
C70   C     C_3   0.514258 0.724044 0.967522 -0.084951
C71   C     C_3   0.437170 0.909365 0.526191 -0.215117
C72   C     C_3   0.068244 0.382634 0.473612 -0.225699
C73   C     C_3   0.937171 0.409384 0.526191 -0.215046
C74   C     C_3   0.445469 0.901107 0.444131 -0.255575
C75   C     C_3   0.558527 0.881980 0.555745 -0.262116
C76   C     C_3   0.945465 0.401100 0.444129 -0.255619
C77   C     C_3   0.058523 0.381968 0.555753 -0.262174
C78   C     C_3   0.508636 0.827277 0.430014 0.058814
C79   C     C_3   0.488233 0.828414 0.568580 0.064190
C80   C     C_3   0.008635 0.327277 0.430016 0.058874
C81   C     C_3   0.476638 0.734359 0.038492 -0.128884
C82   C     C_3   0.988223 0.328414 0.568580 0.064086
C83   C     C_3   0.184221 0.661652 0.456548 -0.234261
C84   C     C_3   0.822877 0.641352 0.539162 -0.228155
C85   C     C_3   0.684217 0.161650 0.456550 -0.234232
C86   C     C_3   0.322879 0.141359 0.539161 -0.228186
C87   C     C_3   0.185901 0.665827 0.536628 -0.227696
C88   C     C_3   0.820973 0.645096 0.459064 -0.235304
C89   C     C_3   0.685894 0.165820 0.536630 -0.227623
C90   C     C_3   0.320975 0.145103 0.459063 -0.235285
C91   C     C_3   0.240045 0.461060 0.472584 -0.224204
C92   C     C_3   0.007448 0.216885 0.972011 -0.069638
C93   C     C_3   0.744514 0.454676 0.527030 -0.213388
C94   C     C_3   0.740050 0.961061 0.472586 -0.224040
C95   C     C_3   0.244522 0.954680 0.527029 -0.213579
C96   C     C_3   0.309693 0.634976 0.442772 -0.257228
C97   C     C_3   0.698327 0.648473 0.557145 -0.263474
C98   C     C_3   0.809689 0.134986 0.442770 -0.257488
C99   C     C_3   0.198328 0.148475 0.557142 -0.263470
C100  C     C_3   0.240903 0.576903 0.428987 0.062369
C101  C     C_3   0.760479 0.570783 0.569393 0.067920
C102  C     C_3   0.740901 0.076905 0.428987 0.062497
C103  C     C_3   0.971573 0.246069 0.042409 -0.121906
C104  C     C_3   0.260482 0.070787 0.569392 0.067748
C105  C     C_3   0.252752 0.608310 0.567072 0.066550
C106  C     C_3   0.749364 0.603496 0.431412 0.061916
C107  C     C_3   0.752751 0.108316 0.567072 0.066819
C108  C     C_3   0.249367 0.103497 0.431411 0.062167
C109  C     C_3   0.244566 0.476956 0.554547 -0.264146
C110  C     C_3   0.743531 0.472314 0.445186 -0.257084
C111  C     C_3   0.744574 0.976958 0.554548 -0.264227
C112  C     C_3   0.243538 0.972316 0.445184 -0.257064
C113  C     C_R   0.262483 0.642078 0.854899 0.541562
C114  C     C_3   0.308652 0.515456 0.041647 0.166445
C115  C     C_R   0.736796 0.642634 0.144443 0.537772
C116  C     C_R   0.761627 0.137810 0.853460 0.536874
C117  C     C_R   0.238187 0.139226 0.145762 0.536695
C118  C     C_3   0.318767 0.644142 0.524733 -0.215486
C119  C     C_3   0.692452 0.664358 0.475277 -0.226758
C120  C     C_3   0.818762 0.144163 0.524731 -0.215213
C121  C     C_3   0.192453 0.164356 0.475274 -0.226816
C122  C     C_R   0.273513 0.042330 0.645386 0.542971
C123  C     C_R   0.727575 0.045535 0.353220 0.537785
C124  C     C_R   0.773512 0.542330 0.645387 0.542894
Cr1   Cr    Cr6+3 0.229620 0.836040 0.749110 0.987340
Cr2   Cr    Cr6+3 0.613980 0.676590 0.250790 0.991093
Cr3   Cr    Cr6+3 0.886020 0.176590 0.749210 0.988544
Cr4   Cr    Cr6+3 0.113980 0.176590 0.250790 0.991405
Cr5   Cr    Cr6+3 0.770380 0.836040 0.250890 0.998409
Cr6   Cr    Cr6+3 0.729620 0.336040 0.749110 0.979723
Cr7   Cr    Cr6+3 0.270380 0.336040 0.250890 0.996802
Cr8   Cr    Cr6+3 0.387630 0.990680 0.750730 0.992783
Cr9   Cr    Cr6+3 0.612370 0.990680 0.249270 0.992102
Cr10  Cr    Cr6+3 0.887630 0.490680 0.750730 0.993899
Cr11  Cr    Cr6+3 0.112370 0.490680 0.249270 0.992214
Cr12  Cr    Cr6+3 0.386020 0.676590 0.749210 0.984132
H1    H     H_    0.377292 0.820245 0.022398 0.109220
H2    H     H_    0.716097 0.751992 0.916806 0.149011
H3    H     H_    0.141261 0.135374 0.456601 0.129846
H4    H     H_    0.281311 0.401466 0.454610 0.129978
H5    H     H_    0.691389 0.430580 0.541695 0.120720
H6    H     H_    0.781316 0.901470 0.454610 0.129997
H7    H     H_    0.191397 0.930582 0.541694 0.120873
H8    H     H_    0.288990 0.427447 0.576959 0.110821
H9    H     H_    0.694224 0.440171 0.421920 0.115637
H10   H     H_    0.789004 0.927456 0.576958 0.110807
H11   H     H_    0.194232 0.940169 0.421919 0.115784
H12   H     H_    0.299216 0.422477 0.040884 0.109087
H13   H     H_    0.799547 0.233751 0.086704 0.147322
H14   H     H_    0.682284 0.431966 0.951869 0.101295
H15   H     H_    0.796278 0.915459 0.052820 0.125256
H16   H     H_    0.195542 0.925054 0.952182 0.107494
H17   H     H_    0.365308 0.616773 0.961149 0.150108
H18   H     H_    0.630305 0.622673 0.041066 0.150881
H19   H     H_    0.864927 0.053029 0.944005 0.157279
H20   H     H_    0.133173 0.103978 0.045098 0.155641
H21   H     H_    0.337576 0.473877 0.931614 0.086212
H22   H     H_    0.656768 0.477994 0.064225 0.083570
H23   H     H_    0.807577 0.932614 0.930141 0.069727
H24   H     H_    0.210034 0.243206 0.919126 0.150898
H25   H     H_    0.167185 0.963269 0.066519 0.079404
H26   H     H_    0.662213 0.947050 0.040982 0.094267
H27   H     H_    0.334405 0.939468 0.951473 0.097398
H28   H     H_    0.162277 0.435546 0.041892 0.093932
H29   H     H_    0.816351 0.423916 0.954267 0.092162
H30   H     H_    0.681122 0.961891 0.918988 0.112879
H31   H     H_    0.291994 0.932900 0.073445 0.108776
H32   H     H_    0.207720 0.435714 0.923592 0.110367
H33   H     H_    0.781260 0.432693 0.075315 0.107367
H34   H     H_    0.430658 0.422368 0.039545 0.085138
H35   H     H_    0.187551 0.747770 0.961264 0.128379
H36   H     H_    0.385727 0.370975 0.119381 0.149745
H37   H     H_    0.454898 0.473915 0.127100 0.140533
H38   H     H_    0.558736 0.439833 0.924230 0.079030
H39   H     H_    0.616741 0.418975 0.849734 0.154905
H40   H     H_    0.549771 0.525244 0.843391 0.156978
H41   H     H_    0.927080 0.913322 0.023467 0.086672
H42   H     H_    0.897617 0.874609 0.113041 0.143567
H43   H     H_    0.964668 0.980951 0.101123 0.141115
H44   H     H_    0.065059 0.926531 0.945828 0.079975
H45   H     H_    0.114803 0.896331 0.865537 0.150148
H46   H     H_    0.721227 0.788796 0.038943 0.087615
H47   H     H_    0.045917 0.999469 0.862351 0.148305
H48   H     H_    0.732458 0.282744 0.953116 0.122156
H49   H     H_    0.221404 0.286880 0.043265 0.094635
H50   H     H_    0.277468 0.790050 0.959167 0.096919
H51   H     H_    0.812671 0.742807 0.040206 0.129223
H52   H     H_    0.820679 0.243279 0.965394 0.112949
H53   H     H_    0.621993 0.800954 0.980984 0.118992
H54   H     H_    0.311594 0.246208 0.040660 0.127873
H55   H     H_    0.632313 0.093126 0.042048 0.147526
H56   H     H_    0.366370 0.080276 0.965186 0.144856
H57   H     H_    0.132390 0.579214 0.032786 0.142781
H58   H     H_    0.862495 0.556891 0.963406 0.149225
H59   H     H_    0.150031 0.557055 0.912554 0.133202
H60   H     H_    0.845590 0.545119 0.083492 0.136798
H61   H     H_    0.644166 0.106490 0.923863 0.138670
H62   H     H_    0.351526 0.051707 0.085096 0.135521
H63   H     H_    0.532228 0.633731 0.441975 0.135795
H64   H     H_    0.884021 0.356505 0.031254 0.109829
H65   H     H_    0.451716 0.642121 0.555642 0.137038
H66   H     H_    0.032230 0.133735 0.441979 0.135970
H67   H     H_    0.951710 0.142120 0.555639 0.137105
H68   H     H_    0.444979 0.669488 0.435587 0.118625
H69   H     H_    0.539451 0.656678 0.559021 0.113464
H70   H     H_    0.944981 0.169483 0.435582 0.118457
H71   H     H_    0.039441 0.156676 0.559022 0.113943
H72   H     H_    0.608892 0.824436 0.461417 0.111401
H73   H     H_    0.384029 0.897822 0.542603 0.111438
H74   H     H_    0.108891 0.324441 0.461421 0.111433
H75   H     H_    0.121688 0.274974 0.985357 0.124668
H76   H     H_    0.884023 0.397879 0.542618 0.111426
H77   H     H_    0.598978 0.829464 0.582936 0.107224
H78   H     H_    0.399384 0.861420 0.418644 0.104235
H79   H     H_    0.098971 0.329433 0.582940 0.107273
H80   H     H_    0.899377 0.361397 0.418650 0.103870
H81   H     H_    0.472078 0.009279 0.062080 0.111987
H82   H     H_    0.540570 0.991458 0.929748 0.115926
H83   H     H_    0.990519 0.521482 0.053595 0.114178
H84   H     H_    0.052207 0.469350 0.920504 0.117280
H85   H     H_    0.453799 0.989905 0.420602 0.116019
H86   H     H_    0.200168 0.749392 0.081963 0.115631
H87   H     H_    0.561617 0.972791 0.577760 0.111315
H88   H     H_    0.953789 0.489893 0.420587 0.116181
H89   H     H_    0.061622 0.472775 0.577777 0.111332
H90   H     H_    0.452003 0.000313 0.540534 0.119814
H91   H     H_    0.578442 0.973238 0.455018 0.129641
H92   H     H_    0.952029 0.500336 0.540526 0.119888
H93   H     H_    0.078435 0.473243 0.455027 0.129684
H94   H     H_    0.131187 0.637123 0.440697 0.136234
H95   H     H_    0.872730 0.609151 0.556528 0.136834
H96   H     H_    0.631183 0.137122 0.440697 0.136131
H97   H     H_    0.807824 0.740363 0.921045 0.115246
H98   H     H_    0.372733 0.109167 0.556529 0.136778
H99   H     H_    0.192498 0.750119 0.433735 0.116610
H100  H     H_    0.821968 0.732952 0.560392 0.113247
H101  H     H_    0.692493 0.250119 0.433739 0.116467
H102  H     H_    0.321968 0.232958 0.560391 0.113201
H103  H     H_    0.177980 0.756174 0.553554 0.136259
H104  H     H_    0.834992 0.736108 0.443352 0.135690
H105  H     H_    0.677963 0.256167 0.553558 0.136201
H106  H     H_    0.334993 0.236114 0.443351 0.135629
H107  H     H_    0.140186 0.618951 0.558015 0.113612
H108  H     H_    0.708961 0.255042 0.071820 0.104943
H109  H     H_    0.861108 0.588511 0.436289 0.117547
H110  H     H_    0.640183 0.118930 0.558015 0.113513
H111  H     H_    0.361112 0.088520 0.436289 0.117464
H112  H     H_    0.690827 0.927583 0.459623 0.111995
H113  H     H_    0.277083 0.881168 0.543112 0.111769
H114  H     H_    0.190822 0.427584 0.459616 0.111953
H115  H     H_    0.777072 0.381161 0.543111 0.111967
H116  H     H_    0.697857 0.943081 0.581344 0.106696
H117  H     H_    0.286232 0.924081 0.419508 0.103179
H118  H     H_    0.197846 0.443089 0.581339 0.106727
H119  H     H_    0.301514 0.250532 0.920279 0.111573
H120  H     H_    0.786224 0.424075 0.419510 0.103016
H121  H     H_    0.350230 0.578430 0.419226 0.117200
H122  H     H_    0.651154 0.606858 0.578974 0.112137
H123  H     H_    0.850228 0.078441 0.419227 0.116961
H124  H     H_    0.151155 0.106858 0.578971 0.112813
H125  H     H_    0.312073 0.722975 0.417154 0.104000
H126  H     H_    0.704942 0.734442 0.584737 0.105873
H127  H     H_    0.812066 0.222983 0.417148 0.103488
H128  H     H_    0.204941 0.234445 0.584732 0.105914
H129  H     H_    0.517721 0.636272 0.943984 0.173047
H130  H     H_    0.291894 0.737654 0.080554 0.149068
H131  H     H_    0.461423 0.659556 0.071611 0.200330
H132  H     H_    0.007745 0.126028 0.951312 0.153644
H133  H     H_    0.947886 0.186746 0.081458 0.208078
H134  H     H_    0.339265 0.729538 0.540880 0.112345
H135  H     H_    0.702226 0.754318 0.464195 0.112402
H136  H     H_    0.839255 0.229568 0.540871 0.112295
H137  H     H_    0.202221 0.254316 0.464189 0.112476
H138  H     H_    0.357462 0.577117 0.539104 0.120649
H139  H     H_    0.641259 0.635385 0.456603 0.129803
H140  H     H_    0.857459 0.077143 0.539104 0.120709
O1    O     O_R   0.214130 0.708570 0.829890 -0.538573
O2    O     O_R   0.542830 0.717300 0.331620 -0.528720
O3    O     O_R   0.957170 0.217300 0.668380 -0.529640
O4    O     O_R   0.042830 0.217300 0.331620 -0.528904
O5    O     O_R   0.320870 0.624890 0.673130 -0.511330
O6    O     O_R   0.679130 0.624890 0.326870 -0.511375
O7    O     O_R   0.820870 0.124890 0.673130 -0.511710
O8    O     O_R   0.179130 0.124890 0.326870 -0.511238
O9    O     O_3   0.334430 0.834430 0.749680 -0.288897
O10   O     O_3   0.665570 0.834430 0.250320 -0.287468
O11   O     O_3   0.834430 0.334430 0.749680 -0.285685
O12   O     O_R   0.785870 0.708570 0.170110 -0.533259
O13   O     O_3   0.165570 0.334430 0.250320 -0.288984
O14   O     O_R   0.236050 0.959150 0.825270 -0.498480
O15   O     O_R   0.763950 0.959150 0.174730 -0.490183
O16   O     O_R   0.736050 0.459150 0.825270 -0.509219
O17   O     O_R   0.263950 0.459150 0.174730 -0.481308
O18   O     O_R   0.332100 0.076650 0.832310 -0.542671
O19   O     O_R   0.667900 0.076650 0.167690 -0.542161
O20   O     O_R   0.832100 0.576650 0.832310 -0.541620
O21   O     O_R   0.167900 0.576650 0.167690 -0.545450
O22   O     O_R   0.446500 0.918620 0.826240 -0.502015
O23   O     O_R   0.714130 0.208570 0.829890 -0.539129
O24   O     O_R   0.553500 0.918620 0.173760 -0.502357
O25   O     O_R   0.946500 0.418620 0.826240 -0.503329
O26   O     O_R   0.053500 0.418620 0.173760 -0.502500
O27   O     O_R   0.457310 0.715830 0.831280 -0.526087
O28   O     O_R   0.542690 0.715830 0.168720 -0.524326
O29   O     O_R   0.957310 0.215830 0.831280 -0.520008
O30   O     O_R   0.042690 0.215830 0.168720 -0.525873
O31   O     O_R   0.321000 0.623520 0.824130 -0.521568
O32   O     O_R   0.679000 0.623520 0.175870 -0.521202
O33   O     O_R   0.821000 0.123520 0.824130 -0.522993
O34   O     O_R   0.285870 0.208570 0.170110 -0.537583
O35   O     O_R   0.179000 0.123520 0.175870 -0.521087
O36   O     O_R   0.213990 0.710040 0.667000 -0.534645
O37   O     O_R   0.786010 0.710040 0.333000 -0.533742
O38   O     O_R   0.713990 0.210040 0.667000 -0.535250
O39   O     O_R   0.286010 0.210040 0.333000 -0.534660
O40   O     O_R   0.235920 0.960520 0.674260 -0.511274
O41   O     O_R   0.764080 0.960520 0.325740 -0.510628
O42   O     O_R   0.735920 0.460520 0.674260 -0.512931
O43   O     O_R   0.264080 0.460520 0.325740 -0.510387
O44   O     O_R   0.331960 0.078120 0.669410 -0.534975
O45   O     O_R   0.446360 0.919990 0.675230 -0.507657
O46   O     O_R   0.668040 0.078120 0.330590 -0.534366
O47   O     O_R   0.831960 0.578120 0.669410 -0.534723
O48   O     O_R   0.168040 0.578120 0.330590 -0.534357
O49   O     O_3   0.364559 0.543954 0.087457 -0.582404
O50   O     O_3   0.630188 0.575418 0.909542 -0.584499
O51   O     O_3   0.867254 0.040232 0.075892 -0.591502
O52   O     O_3   0.132699 0.059989 0.914751 -0.576217
O53   O     O_R   0.553640 0.919990 0.324770 -0.507780
O54   O     O_R   0.946360 0.419990 0.675230 -0.508172
O55   O     O_R   0.053640 0.419990 0.324770 -0.507747
O56   O     O_R   0.457170 0.717300 0.668380 -0.531001

loop_
_geom_bond_atom_site_label_1
_geom_bond_atom_site_label_2
_ccdc_geom_bond_type
C63   H66   S    
C35   C53   S    
C36   H55   S    
C73   C82   S    
C73   H76   S    
C115  O32   A    
C117  O35   A    
C69   C78   S    
C33   H20   S    
C76   H88   S    
C95   H7    S    
C20   C92   S    
C19   H64   S    
C1    O18   A    
C14   C21   S    
C1    C46   S    
C41   H13   S    
C94   C111  S    
Cr7   O17   S    
C3    C100  S    
C38   C55   S    
C110  H120  S    
C96   H121  S    
C40   H2    S    
C3    O43   A    
C91   C100  S    
C110  H9    S    
C93   C110  S    
C99   C121  S    
C26   H36   S    
C74   H78   S    
C11   O8    A    
C88   C106  S    
C5    O53   A    
Cr3   O33   S    
Cr1   O9    S    
Cr4   O30   S    
C41   H108  S    
Cr3   O11   S    
C13   H15   S    
C86   C90   S    
C93   C101  S    
C26   H37   S    
Cr11  O48   S    
C98   C102  S    
C17   C21   S    
C33   H25   S    
C62   H65   S    
C71   C74   S    
Cr2   O2    S    
C30   C47   S    
C39   C56   S    
C16   C20   S    
C90   H111  S    
C50   C54   S    
Cr4   O35   S    
C49   C115  S    
C83   H99   S    
C83   C100  S    
C56   H35   S    
C105  C118  S    
C37   C45   S    
C102  C123  S    
C107  C120  S    
C69   H72   S    
C84   C88   S    
C40   H97   S    
C27   H40   S    
C98   C120  S    
C47   C52   S    
C83   H94   S    
C119  H135  S    
C120  H136  S    
C24   C46   S    
C61   H68   S    
C13   C45   S    
C77   C82   S    
C49   C53   S    
C66   O24   A    
C86   H102  S    
C6    O54   A    
C109  H8    S    
C51   C55   S    
Cr10  O20   S    
C57   H51   S    
C91   H4    S    
C92   H132  S    
C26   H34   S    
C60   H54   S    
Cr9   O10   S    
C53   H60   S    
C41   C45   S    
C14   H82   S    
C17   H1    S    
C13   O51   S    
C75   C79   S    
C44   C48   S    
Cr9   O46   S    
C91   H114  S    
C2    H14   S    
C122  O44   A    
C123  O41   A    
C13   C32   S    
C86   C104  S    
C8    C105  S    
C61   H63   S    
C71   C79   S    
Cr12  O27   S    
C74   H85   S    
C27   O50   S    
Cr8   O22   S    
C67   O25   A    
C68   O30   A    
C41   C58   S    
C34   H28   S    
Cr9   O53   S    
C15   C25   S    
C104  C122  S    
C12   C22   S    
C109  H118  S    
C49   C57   S    
C23   C67   S    
C35   H58   S    
C2    C44   S    
C71   H73   S    
C63   H70   S    
C39   H86   S    
C17   C81   S    
C48   O20   A    
C43   C59   S    
C116  O33   A    
C37   O19   A    
Cr12  O9    S    
C27   H38   S    
C57   H46   S    
C97   H122  S    
C120  H140  S    
C9    O37   A    
C63   C80   S    
C64   H71   S    
C101  C124  S    
C87   H103  S    
Cr7   O13   S    
C94   H6    S    
Cr12  O56   S    
C111  H10   S    
C111  H116  S    
C75   H77   S    
C97   C119  S    
Cr8   O9    S    
C87   C105  S    
C64   C82   S    
C8    O36   A    
C94   C102  S    
C124  O47   A    
C38   H27   S    
C16   C23   S    
Cr2   O10   S    
C4    O45   A    
Cr4   O8    S    
C15   H83   S    
Cr11  O26   S    
C118  H138  S    
C31   H18   S    
C67   O29   A    
C68   O26   A    
C18   C22   S    
C107  C111  S    
C42   H24   S    
C5    O2    A    
C76   C80   S    
Cr5   O37   S    
C112  H11   S    
C29   O52   S    
C121  H3    S    
C90   H106  S    
C90   C108  S    
C72   C80   S    
C42   H119  S    
C96   C100  S    
Cr10  O47   S    
C51   C117  S    
Cr9   O24   S    
C9    O6    A    
C16   H84   S    
C61   C62   S    
C38   C46   S    
C36   C54   S    
C63   C64   S    
C40   C44   S    
Cr2   O28   S    
C11   C108  S    
C81   H131  S    
C23   C92   S    
C7    O55   A    
C51   C60   S    
Cr3   O3    S    
C94   H112  S    
Cr4   O4    S    
C85   C102  S    
C47   C56   S    
C118  H134  S    
C98   H123  S    
C30   H21   S    
C83   C87   S    
Cr6   O38   S    
C77   H89   S    
C60   H49   S    
Cr7   O43   S    
C106  C119  S    
Cr8   O44   S    
C55   H31   S    
C108  C121  S    
C123  O46   A    
C65   O27   A    
C15   C19   S    
C52   H59   S    
C66   O28   A    
C86   H98   S    
C54   H61   S    
C103  H133  S    
C84   H100  S    
C54   H30   S    
C95   C112  S    
Cr11  O21   S    
C43   C114  S    
C28   O51   S    
C20   C25   S    
C88   H104  S    
C58   H48   S    
C42   C46   S    
C105  C109  S    
C24   H16   S    
C116  O23   A    
C12   C17   S    
Cr10  O25   S    
C28   H41   S    
C53   H33   S    
C32   H23   S    
C99   C104  S    
C36   H26   S    
C25   C68   S    
C31   C49   S    
Cr1   O40   S    
C6    O3    A    
Cr8   O45   S    
C4    O56   A    
C34   C43   S    
C50   C58   S    
C22   C81   S    
C27   H39   S    
C26   O49   S    
C85   C89   S    
C108  C112  S    
C10   O7    A    
Cr2   O32   S    
C48   O16   A    
C76   H80   S    
C65   O22   A    
C37   O15   A    
C89   C107  S    
Cr10  O11   S    
Cr12  O5    S    
C97   H126  S    
C34   H57   S    
C10   O38   A    
C64   H67   S    
C56   H50   S    
C99   H128  S    
Cr10  O54   S    
C73   C76   S    
C7    O4    A    
C113  O1    A    
C12   H81   S    
C93   H5    S    
C77   H79   S    
C30   C114  S    
C47   C113  S    
C40   C57   S    
C21   C65   S    
Cr6   O11   S    
C73   H92   S    
C33   C51   S    
C34   C52   S    
C24   C33   S    
Cr6   O23   S    
C114  H12   S    
C2    O50   S    
Cr1   O1    S    
Cr2   O6    S    
C1    O14   A    
C69   C75   S    
C85   H101  S    
C28   H43   S    
C121  H137  S    
C31   H22   S    
C119  H139  S    
C74   C78   S    
Cr6   O16   S    
C5    C78   S    
C7    C80   S    
Cr5   O41   S    
C18   C70   S    
C18   H53   S    
C96   H125  S    
C6    C82   S    
C14   C18   S    
C19   C23   S    
C95   H113  S    
C39   H130  S    
C29   H45   S    
C96   C118  S    
Cr5   O10   S    
C55   H62   S    
C15   C16   S    
Cr3   O29   S    
C89   H110  S    
C24   O52   S    
C20   H75   S    
Cr3   O7    S    
C84   H95   S    
C70   C81   S    
C22   C66   S    
C92   C103  S    
C113  O31   A    
C88   H109  S    
C59   O21   A    
C19   C103  S    
C98   H127  S    
C30   H17   S    
C72   H74   S    
Cr6   O42   S    
C29   H44   S    
Cr7   O39   S    
C115  O12   A    
C62   H69   S    
Cr1   O14   S    
C75   H87   S    
C84   C101  S    
C10   C107  S    
C85   H96   S    
C69   H91   S    
Cr7   O34   S    
C72   H93   S    
C58   H52   S    
C62   C79   S    
C71   H90   S    
C4    C79   S    
C42   C60   S    
C25   C103  S    
C39   C43   S    
C9    C106  S    
C2    C31   S    
C114  O49   S    
C72   C77   S    
C32   H19   S    
Cr11  O13   S    
C87   H107  S    
C3    O48   A    
C59   O17   A    
C61   C78   S    
C36   C45   S    
Cr1   O36   S    
C35   C44   S    
C32   C50   S    
Cr4   O13   S    
C12   C14   S    
C38   H56   S    
C89   H105  S    
C95   C104  S    
C70   H129  S    
C106  C110  S    
C117  O34   A    
Cr11  O55   S    
C29   H47   S    
Cr5   O12   S    
C122  O40   A    
C21   C70   S    
C91   C109  S    
C124  O42   A    
C52   H32   S    
C8    O5    A    
Cr12  O31   S    
C112  H117  S    
C99   H124  S    
C11   O39   A    
C35   H29   S    
Cr8   O18   S    
C50   C116  S    
Cr9   O19   S    
Cr5   O15   S    
C28   H42   S    
C97   C101  S    
C93   H115  S    
