data_mof_unit_44853.cif
_audit_creation_date              2012-12-10T17:51:23-0500
_audit_creation_method            fapswitch 2.2
_symmetry_space_group_name_H-M    P1
_symmetry_Int_Tables_number       1
_space_group_crystal_system       triclinic
_cell_length_a                    9.919308
_cell_length_b                    10.66025
_cell_length_c                    16.626136
_cell_angle_alpha                 93.634619
_cell_angle_beta                  85.828846
_cell_angle_gamma                 89.809898
_cell_volume                      1749.84677803

loop_
_atom_site_label
_atom_site_type_symbol
_atom_type_description
_atom_site_fract_x
_atom_site_fract_y
_atom_site_fract_z
_atom_type_partial_charge
C1    C     C_R   0.500096 0.738135 0.490159 0.830737
C2    C     C_R   0.529507 0.484309 0.257599 -0.328028
C3    C     C_R   0.250825 0.884857 0.458018 -0.152397
C4    C     C_R   0.481908 0.493592 0.652879 0.867012
C5    C     C_R   0.128118 0.947484 0.477759 -0.232390
C6    C     C_R   0.125025 0.058646 0.526351 -0.234555
C7    C     C_R   0.246046 0.113772 0.548039 0.518220
C8    C     C_R   0.371836 0.061335 0.515075 -0.040074
C9    C     C_R   0.373403 0.937460 0.482746 0.049337
C10   C     C_R   0.497653 0.870843 0.479466 -0.108478
C11   C     C_R   0.619938 0.934506 0.483027 -0.232974
C12   C     C_R   0.351980 0.464261 0.783344 -0.213762
C13   C     C_R   0.619221 0.062249 0.497069 -0.233757
C14   C     C_R   0.496191 0.126677 0.512439 -0.106944
C15   C     C_R   0.856760 0.694488 0.600433 0.516192
C16   C     C_R   0.498837 0.260588 0.506725 0.895453
C17   C     C_R   0.935746 0.789584 0.637393 -0.312208
C18   C     C_R   0.072873 0.778333 0.637050 -0.268248
C19   C     C_R   0.136706 0.676516 0.596859 -0.139963
C20   C     C_R   0.068770 0.589882 0.547610 0.107778
C21   C     C_R   0.923594 0.593695 0.548249 0.045934
C22   C     C_R   0.934154 0.412385 0.455707 -0.126713
C23   C     C_R   0.412760 0.450738 0.134386 0.390631
C24   C     C_R   0.077023 0.413031 0.455304 -0.072018
C25   C     C_R   0.518503 0.499981 0.346175 0.928136
C26   C     C_R   0.472395 0.449661 0.734007 -0.041939
C27   C     C_R   0.578072 0.375487 0.757502 -0.214055
C28   C     C_R   0.565261 0.319727 0.830587 -0.193065
C29   C     C_R   0.447931 0.339979 0.881811 0.159105
C30   C     C_R   0.340057 0.409766 0.857337 -0.145334
C31   C     C_3   0.255773 0.159513 0.683635 0.070778
C32   C     C_3   0.124358 0.178380 0.737161 -0.328982
C33   C     C_3   0.133778 0.120705 0.818299 -0.984371
C34   C     C_R   0.414527 0.501374 0.214566 0.304668
C35   C     C_3   0.654877 0.795076 0.663559 0.103233
C36   C     C_3   0.653887 0.794750 0.755843 -0.382645
C37   C     C_3   0.586897 0.913966 0.796363 -0.965221
C38   C     C_3   0.307863 0.693596 0.223464 0.109005
C39   C     C_3   0.422696 0.772908 0.257367 -0.401011
C40   C     C_3   0.401236 0.912832 0.247804 -0.940493
C41   C     C_3   0.835199 0.568671 0.234492 0.108447
C42   C     C_3   0.934318 0.604283 0.297460 -0.786124
C43   C     C_3   0.194055 0.387086 0.123996 0.121839
C44   C     C_3   0.081540 0.377821 0.066434 -0.885962
C45   C     C_R   0.652544 0.446029 0.215284 0.429584
C46   C     C_R   0.653345 0.403776 0.134494 -0.376426
C47   C     C_R   0.534296 0.401729 0.094596 -0.034211
C48   C     C_2   0.449511 0.315868 0.966887 -0.191520
C49   C     C_2   0.547652 0.369518 0.007640 -0.121145
H1    H     H_    0.670006 0.358910 0.718922 0.161145
H2    H     H_    0.129986 0.846878 0.671235 0.167747
H3    H     H_    0.240465 0.669148 0.606601 0.215789
H4    H     H_    0.135332 0.341999 0.418436 0.141825
H5    H     H_    0.637168 0.404906 0.974913 0.144970
H6    H     H_    0.249863 0.427601 0.897191 0.155632
H7    H     H_    0.268162 0.518423 0.764996 0.151258
H8    H     H_    0.359488 0.279798 0.997832 0.177566
H9    H     H_    0.649297 0.266014 0.849137 0.135553
H10   H     H_    0.337999 0.211022 0.712810 0.179209
H11   H     H_    0.285624 0.057824 0.680085 0.106696
H12   H     H_    0.748193 0.373884 0.102423 0.176668
H13   H     H_    0.102034 0.280609 0.747692 0.229336
H14   H     H_    0.039801 0.133496 0.705995 0.211436
H15   H     H_    0.149671 0.017436 0.809066 0.262521
H16   H     H_    0.038263 0.139053 0.856396 0.263481
H17   H     H_    0.218619 0.162479 0.850536 0.268747
H18   H     H_    0.547531 0.790625 0.648926 0.148514
H19   H     H_    0.692278 0.884257 0.639185 0.120873
H20   H     H_    0.596950 0.711628 0.776513 0.228532
H21   H     H_    0.758098 0.787269 0.775279 0.224191
H22   H     H_    0.644027 0.998232 0.777963 0.261893
H23   H     H_    0.716436 0.885516 0.476998 0.163469
H24   H     H_    0.585720 0.910756 0.863028 0.270973
H25   H     H_    0.481049 0.921905 0.779364 0.259257
H26   H     H_    0.210129 0.739227 0.245012 0.157027
H27   H     H_    0.313977 0.693172 0.156300 0.163297
H28   H     H_    0.428704 0.757454 0.322279 0.223614
H29   H     H_    0.520687 0.743462 0.224962 0.196442
H30   H     H_    0.486376 0.966666 0.272397 0.273067
H31   H     H_    0.305740 0.946215 0.281552 0.265287
H32   H     H_    0.397105 0.930822 0.182949 0.260153
H33   H     H_    0.761018 0.647994 0.235500 0.114185
H34   H     H_    0.248265 0.796460 0.422587 0.184792
H35   H     H_    0.891085 0.559111 0.173981 0.142449
H36   H     H_    0.984723 0.693461 0.282701 0.186457
H37   H     H_    0.879445 0.619105 0.357877 0.259331
H38   H     H_    0.011836 0.529324 0.298866 0.264470
H39   H     H_    0.149832 0.428566 0.182967 0.196040
H40   H     H_    0.230865 0.289971 0.131992 0.117108
H41   H     H_    0.118515 0.328767 0.008110 0.242386
H42   H     H_    0.996118 0.323730 0.093405 0.221032
H43   H     H_    0.044981 0.473230 0.055123 0.255803
H44   H     H_    0.034780 0.905654 0.459695 0.157922
H45   H     H_    0.028884 0.100698 0.548625 0.146665
H46   H     H_    0.715435 0.110230 0.495654 0.168126
H47   H     H_    0.885247 0.341105 0.419089 0.165888
H48   H     H_    0.893509 0.869010 0.674218 0.156382
N1    N     N_R   0.857140 0.501200 0.500750 -0.110251
N2    N     N_R   0.142740 0.501280 0.500770 -0.099714
O1    O     O_R   0.385310 0.683220 0.500000 -0.655683
O2    O     O_3   0.721154 0.686138 0.625540 -0.589599
O3    O     O_3   0.305428 0.570278 0.250982 -0.636484
O4    O     O_3   0.773209 0.453101 0.251981 -0.583155
O5    O     O_3   0.298629 0.463576 0.091972 -0.616027
O6    O     O_R   0.614640 0.683250 0.500010 -0.581233
O7    O     O_R   0.371780 0.500010 0.615800 -0.627308
O8    O     O_R   0.601110 0.500030 0.615800 -0.550280
O9    O     O_R   0.385360 0.316750 0.499990 -0.579168
O10   O     O_R   0.614690 0.316780 0.500000 -0.638731
O11   O     O_R   0.398890 0.499970 0.384200 -0.579452
O12   O     O_R   0.628220 0.499990 0.384200 -0.573732
O13   O     O_3   0.240527 0.210132 0.607916 -0.629814
Zn1   Zn    Zn3+2 0.346870 0.499980 0.499990 0.966580
Zn2   Zn    Zn3+2 0.653130 0.500020 0.500010 0.977772

loop_
_geom_bond_atom_site_label_1
_geom_bond_atom_site_label_2
_ccdc_geom_bond_type
C31   H11   S    
C37   H25   S    
C22   N1    A    
C24   N2    A    
C41   C42   S    
C35   C36   S    
C33   H16   S    
C7    C8    A    
C47   C49   S    
C38   H27   S    
C45   C46   A    
C26   C27   A    
C34   O3    S    
C13   H46   S    
C43   H39   S    
C39   H28   S    
C28   C29   A    
C38   C39   S    
N1    Zn2   S    
C49   H5    S    
C7    O13   S    
C18   C19   A    
C31   H10   S    
C43   O5    S    
C45   O4    S    
C19   H3    S    
C23   O5    S    
C8    C9    A    
C6    H45   S    
C33   H17   S    
C31   O13   S    
C40   H31   S    
C42   H37   S    
C2    C25   S    
C9    C10   A    
C44   H43   S    
C27   H1    S    
C2    C34   A    
C13   C14   A    
C1    O1    A    
C36   H21   S    
C16   O10   A    
C38   H26   S    
C2    C45   A    
C46   H12   S    
C4    O8    A    
C23   C47   A    
C1    C10   S    
C29   C48   S    
C39   H29   S    
O6    Zn2   S    
C48   H8    S    
C39   C40   S    
C25   O12   A    
C11   H23   S    
O7    Zn1   S    
C3    C5    A    
C24   H4    S    
C41   H35   S    
C4    O7    A    
C41   O4    S    
C12   C26   A    
O9    Zn1   S    
C43   C44   S    
O8    Zn2   S    
C29   C30   A    
C3    C9    A    
C5    H44   S    
C31   C32   S    
C35   H18   S    
C23   C34   A    
C17   C18   A    
C40   H30   S    
C42   H36   S    
C43   H40   S    
C15   O2    S    
O11   Zn1   S    
C12   H7    S    
C44   H42   S    
O10   Zn2   S    
C25   O11   A    
C48   C49   D    
C37   H22   S    
C3    H34   S    
C14   C16   S    
C44   H41   S    
C36   H20   S    
C15   C17   A    
C37   H24   S    
C46   C47   A    
C36   C37   S    
C8    C14   A    
C12   C30   A    
C22   H47   S    
C40   H32   S    
O1    Zn1   S    
C32   H14   S    
C35   O2    S    
N2    Zn1   S    
C4    C26   S    
C6    C7    A    
C28   H9    S    
C18   H2    S    
C30   H6    S    
C32   C33   S    
C19   C20   A    
C32   H13   S    
C38   O3    S    
C21   N1    A    
C11   C13   A    
C5    C6    A    
C20   N2    A    
C35   H19   S    
C33   H15   S    
C41   H33   S    
O12   Zn2   S    
C22   C24   A    
C10   C11   A    
C16   O9    A    
C15   C21   A    
C20   C21   A    
C27   C28   A    
C42   H38   S    
C17   H48   S    
C1    O6    A    
