data_mof_unit_32996.cif
_audit_creation_date              2013-03-05T15:48:21-0500
_audit_creation_method            fapswitch 2.2
_symmetry_space_group_name_H-M    P1
_symmetry_Int_Tables_number       1
_space_group_crystal_system       triclinic
_cell_length_a                    8.276565
_cell_length_b                    19.107248
_cell_length_c                    18.991127
_cell_angle_alpha                 98.813784
_cell_angle_beta                  94.958509
_cell_angle_gamma                 92.123595
_cell_volume                      2952.8691697

loop_
_atom_site_label
_atom_site_type_symbol
_atom_site_description
_atom_site_fract_x
_atom_site_fract_y
_atom_site_fract_z
_atom_type_partial_charge
P1    P     P_3+3 0.945400 0.662120 0.569160 0.469084
O1    O     O_2   0.116570 0.673370 0.549300 -0.346006
O2    O     O_3   0.869340 0.584760 0.542960 -0.407886
O3    O     O_3   0.352540 0.630870 0.419750 -0.355368
O4    O     O_2   0.283160 0.751702 0.487989 -0.406291
O5    O     O_3   0.961836 0.679944 0.662774 -0.568224
O6    O     O_3   0.276191 0.748245 0.348685 -0.513103
H1    H     H_    0.365302 0.669256 0.275929 0.104494
C1    C     C_3   0.301369 0.761637 0.226367 -0.300673
H2    H     H_    0.180157 0.736041 0.202828 0.221119
H3    H     H_    0.289505 0.819755 0.243673 0.182474
P2    P     P_3+3 0.355390 0.445380 0.336430 0.474788
P3    P     P_3+3 0.912925 0.593248 0.289215 0.495878
O7    O     O_2   0.181320 0.466870 0.327560 -0.379383
O8    O     O_3   0.937730 0.595370 0.381630 -0.380013
O9    O     O_2   0.047432 0.548668 0.256273 -0.329259
O10   O     O_3   0.345293 0.352917 0.311572 -0.565945
O11   O     O_3   0.959871 0.678206 0.271451 -0.506552
C2    C     C_3   0.860182 0.725824 0.308561 0.471786
H4    H     H_    0.891815 0.731334 0.367537 0.102479
H5    H     H_    0.730797 0.707430 0.296090 0.002488
C3    C     C_3   0.884182 0.798070 0.284897 -0.928203
H6    H     H_    0.006475 0.822232 0.306029 0.261136
H7    H     H_    0.873366 0.791692 0.225440 0.280185
C4    C     C_3   0.822948 0.371906 0.300799 0.193563
H8    H     H_    0.690622 0.378331 0.291875 0.112679
H9    H     H_    0.881768 0.422752 0.329403 0.124429
C5    C     C_3   0.893416 0.352808 0.228386 -0.114185
H10   H     H_    0.860613 0.296122 0.206272 0.146961
H11   H     H_    0.028548 0.358524 0.236742 0.147184
Ba1   Ba    Ba6+2 0.152000 0.534910 0.469330 1.563395
C6    C     C_3   0.011237 0.620632 0.691771 0.420725
H12   H     H_    0.135208 0.608885 0.678229 0.090536
H13   H     H_    0.928570 0.573290 0.671889 0.128758
C7    C     C_3   0.010513 0.637728 0.772914 -0.935061
H14   H     H_    0.100929 0.683020 0.794625 0.265071
H15   H     H_    0.041077 0.589879 0.797763 0.224724
H16   H     H_    0.885582 0.653814 0.786247 0.265371
C8    C     C_3   0.294315 0.319677 0.366990 0.443749
H17   H     H_    0.168472 0.333187 0.376148 0.075113
H18   H     H_    0.374528 0.335369 0.417502 0.134443
C9    C     C_3   0.298062 0.239576 0.344846 -0.981601
H19   H     H_    0.216523 0.222004 0.295054 0.262308
H20   H     H_    0.258183 0.211398 0.387743 0.217260
H21   H     H_    0.423525 0.224994 0.334186 0.273180
P4    P     P_3+3 0.864900 0.337880 0.430780 0.473055
O12   O     O_2   0.693730 0.326590 0.450680 -0.346318
O13   O     O_3   0.940960 0.415230 0.456980 -0.403435
O14   O     O_3   0.457750 0.369120 0.580200 -0.344193
O15   O     O_3   0.846798 0.314412 0.337485 -0.587711
P5    P     P_3+3 0.889612 0.402146 0.710189 0.464230
O16   O     O_3   0.373690 0.535540 0.586160 -0.398079
O17   O     O_3   0.872560 0.404620 0.618320 -0.389962
O18   O     O_2   0.757666 0.448124 0.743231 -0.363125
O19   O     O_3   0.837596 0.316572 0.724864 -0.507072
Ba2   Ba    Ba6+2 0.658180 0.465080 0.530610 1.554502
P6    P     P_3+3 0.375886 0.721589 0.424403 0.444229
C10   C     C_3   0.367622 0.728405 0.290442 0.314184
H22   H     H_    0.494021 0.750060 0.303680 0.032042
O20   O     O_3   0.436600 0.464450 0.413780 -0.398883
C11   C     C_3   0.510603 0.682041 0.647034 0.442328
H23   H     H_    0.636148 0.667851 0.637353 0.088222
H24   H     H_    0.430660 0.667635 0.596391 0.129426
C12   C     C_3   0.509360 0.762089 0.669923 -0.970419
H25   H     H_    0.593024 0.778611 0.719119 0.265938
H26   H     H_    0.547182 0.790713 0.626919 0.218067
H27   H     H_    0.385128 0.777156 0.681793 0.270383
P7    P     P_3+3 0.448682 0.556145 0.675669 0.439912
O21   O     O_2   0.628980 0.533090 0.672420 -0.355673
O22   O     O_3   0.456396 0.648327 0.701837 -0.573605
H28   H     H_    0.792040 0.834683 0.305538 0.224441
C13   C     C_3   0.904247 0.267330 0.673984 0.577356
H29   H     H_    0.854328 0.271848 0.618414 0.116130
H30   H     H_    0.038193 0.276576 0.677263 -0.059388
C14   C     C_3   0.862701 0.191965 0.687840 -0.941603
H31   H     H_    0.753911 0.168326 0.651403 0.255132
H32   H     H_    0.966663 0.157207 0.677571 0.211634
H33   H     H_    0.835619 0.192855 0.744800 0.271316
P8    P     P_3+3 0.427507 0.280532 0.584528 0.437500
C15   C     C_3   0.398190 0.290264 0.719114 0.418332
H34   H     H_    0.288262 0.253381 0.711121 0.024997
O23   O     O_2   0.543517 0.246817 0.531454 -0.418415
O24   O     O_3   0.507914 0.266393 0.669120 -0.478950
H35   H     H_    0.363817 0.345928 0.715611 0.074461
H36   H     H_    0.384584 0.296642 0.833858 0.197064
C16   C     C_3   0.476879 0.288050 0.794427 -0.855271
H37   H     H_    0.575068 0.330669 0.809250 0.279961
H38   H     H_    0.528061 0.235200 0.796521 0.254930
C17   C     C_R   0.945361 0.199616 0.462083 -0.318087
H39   H     H_    0.853283 0.179566 0.418788 0.157481
C18   C     C_R   0.982547 0.273669 0.475197 0.318888
C19   C     C_R   0.146374 0.186715 0.558558 -0.348079
H40   H     H_    0.198286 0.161670 0.601785 0.136009
C20   C     C_R   0.213741 0.253694 0.553606 0.201895
C21   C     C_R   0.657206 0.811817 0.441079 -0.366497
H41   H     H_    0.604598 0.835458 0.397053 0.138110
C22   C     C_R   0.589593 0.746026 0.449071 0.222068
C23   C     C_R   0.861104 0.800891 0.536902 -0.309877
H42   H     H_    0.956081 0.821627 0.578344 0.153517
C24   C     C_R   0.821133 0.726957 0.527233 0.303561
C25   C     C_R   0.018006 0.154028 0.508325 0.109566
C26   C     C_R   0.121496 0.299340 0.518675 -0.455055
H43   H     H_    0.162154 0.354239 0.521925 0.161916
C27   C     C_R   0.786275 0.845407 0.489849 0.117594
C28   C     C_R   0.676954 0.701873 0.487656 -0.433372
H44   H     H_    0.629304 0.648632 0.489159 0.160452
C29   C     C_R   0.234673 0.035559 0.542480 -0.184013
C30   C     C_R   0.334338 0.984828 0.565339 -0.122022
C31   C     C_R   0.283472 0.914236 0.548071 -0.104443
C32   C     C_R   0.129389 0.896235 0.513547 -0.148093
C33   C     C_R   0.011357 0.946935 0.509264 0.055214
C34   C     C_R   0.067645 0.020320 0.519493 0.099201
C35   C     C_R   0.844280 0.924305 0.490657 -0.069397
C36   C     C_R   0.736626 0.978530 0.474875 0.099035
C37   C     C_R   0.793169 0.051851 0.484850 0.063200
C38   C     C_R   0.959873 0.074680 0.504770 -0.068728
C39   C     C_R   0.569612 0.963471 0.451152 -0.182583
C40   C     C_R   0.470206 0.014332 0.428065 -0.105652
C41   C     C_R   0.521325 0.084876 0.445293 -0.102731
C42   C     C_R   0.675577 0.102423 0.479412 -0.169784
H45   H     H_    0.298180 0.083445 0.536726 0.143925
H46   H     H_    0.460131 0.999200 0.585462 0.137616
H47   H     H_    0.368949 0.873916 0.555549 0.152437
H48   H     H_    0.102262 0.842379 0.488906 0.187462
H49   H     H_    0.505007 0.915955 0.457013 0.143627
H50   H     H_    0.344334 0.000181 0.407950 0.136121
H51   H     H_    0.436678 0.125776 0.438458 0.143716
H52   H     H_    0.702936 0.155898 0.503551 0.185406
C43   C     C_R   0.611959 0.528311 0.301072 -0.511384
C44   C     C_R   0.463551 0.492675 0.275998 0.339396
C45   C     C_R   0.407644 0.486395 0.203408 -0.206161
C46   C     C_R   0.501003 0.515713 0.155346 0.066411
C47   C     C_R   0.652599 0.550840 0.181719 -0.146883
C48   C     C_R   0.709002 0.555483 0.254019 0.208622
C49   C     C_R   0.471504 0.560971 0.037834 -0.150457
C50   C     C_R   0.416895 0.553389 0.965317 -0.144493
C51   C     C_R   0.337520 0.489799 0.929581 0.149086
C52   C     C_R   0.311888 0.434389 0.968930 -0.174632
C53   C     C_R   0.364751 0.442462 0.042030 -0.063740
C54   C     C_R   0.444935 0.506157 0.077507 0.153241
C55   C     C_R   0.137555 0.444739 0.822214 -0.288769
C56   C     C_R   0.089223 0.439915 0.749064 0.232472
C57   C     C_R   0.333344 0.506918 0.732667 0.301367
C58   C     C_R   0.381824 0.512326 0.805634 -0.245097
C59   C     C_R   0.285246 0.481374 0.851467 0.036678
C60   C     C_R   0.187781 0.470041 0.704486 -0.503062
H53   H     H_    0.494967 0.541139 0.826403 0.144202
H54   H     H_    0.436136 0.597883 0.937430 0.136221
H55   H     H_    0.533746 0.610239 0.063008 0.160537
H56   H     H_    0.292587 0.457906 0.184547 0.162680
H57   H     H_    0.253203 0.384357 0.942962 0.125199
H58   H     H_    0.345505 0.398239 0.070342 0.143126
H59   H     H_    0.057648 0.422227 0.856050 0.154611
H60   H     H_    0.730259 0.571890 0.146104 0.149703
H61   H     H_    0.146742 0.467855 0.648391 0.167538
H62   H     H_    0.655678 0.531558 0.356888 0.176763
N1    N     N_R   0.831260 0.396557 0.176565 0.242678
O25   O     O_R   0.679803 0.386861 0.150903 -0.430317
O26   O     O_R   0.932654 0.432757 0.145908 -0.386566
I1    I     I_    0.472647 0.750923 0.147033 -0.463846

loop_
_geom_bond_atom_site_label_1
_geom_bond_atom_site_label_2
_geom_bond_distance
_ccdc_geom_bond_type
C11   O22   1.401518 S    
C57   C60   1.394433 A    
O5    C6    1.393355 S    
N1    O25   1.301042 A    
P3    C48   1.839291 S    
C56   C60   1.395475 A    
C21   H41   1.077072 S    
Ba1   O16   2.752445 S    
C15   H35   1.121346 S    
C36   C37   1.439559 A    
C49   C50   1.395818 A    
C8    H18   1.112600 S    
H36   C16   1.114341 S    
C4    C5    1.537907 S    
C24   C28   1.382307 A    
P2    C44   1.835923 S    
P3    O11   1.744600 S    
C51   C59   1.491485 S    
C5    H10   1.114609 S    
C7    H15   1.118606 S    
O11   C2    1.401757 S    
C13   C14   1.535001 S    
O10   C8    1.396712 S    
C15   H34   1.115038 S    
C16   H38   1.114379 S    
P5    C56   1.825603 S    
C57   C58   1.396008 A    
C53   H58   1.082835 S    
P1    Ba1   3.447103 S    
C30   C31   1.379356 A    
P7    C57   1.841677 S    
P1    O1    1.513323 D    
C29   C34   1.418916 A    
C11   H24   1.110818 S    
C40   C41   1.378973 A    
C19   H40   1.078039 S    
C15   C16   1.526832 S    
C35   C36   1.440349 A    
C32   H48   1.070259 S    
C4    O15   1.399292 S    
C60   H61   1.083873 S    
C33   C34   1.439927 A    
P7    O21   1.575103 D    
O3    P6    1.724835 S    
C29   C30   1.390966 A    
Ba1   Ba2   4.553375 S    
C17   C18   1.416102 A    
C1    H2    1.124545 S    
O7    Ba1   2.839295 S    
O6    C10   1.406163 S    
C37   C42   1.405185 A    
O19   C13   1.405434 S    
O16   P7    1.739032 S    
C55   C59   1.411683 A    
H1    C10   1.120567 S    
N1    O26   1.298650 A    
C11   H23   1.107079 S    
C9    H20   1.109157 S    
C58   H53   1.080263 S    
P1    C24   1.865938 S    
C8    C9    1.526051 S    
C27   C35   1.562493 S    
C49   C54   1.402260 A    
P4    O13   1.574716 S    
C47   H60   1.082474 S    
O3    Ba1   2.752630 S    
C6    C7    1.526072 S    
C2    C3    1.527144 S    
P8    C20   1.843621 S    
C13   H30   1.110981 S    
C8    H17   1.104161 S    
C16   H37   1.115332 S    
C31   H47   1.082004 S    
P4    C18   1.851654 S    
C1    I1    2.148884 S    
C10   H22   1.104271 S    
C49   H55   1.078749 S    
C32   C33   1.407108 A    
O1    Ba1   2.880079 S    
P1    O2    1.574884 S    
C9    H21   1.112388 S    
C6    H13   1.110746 S    
Ba1   O20   2.950123 S    
P2    O10   1.754349 S    
C11   C12   1.525322 S    
C14   H31   1.122481 S    
C12   H27   1.110425 S    
C43   H62   1.081805 S    
C1    H3    1.119207 S    
O2    Ba2   2.794145 S    
C41   C42   1.385955 A    
P6    C22   1.815081 S    
C7    H16   1.128135 S    
C19   C20   1.396650 A    
C33   C35   1.431229 A    
C21   C22   1.391925 A    
O2    Ba1   2.942461 S    
C14   H32   1.118529 S    
C50   H54   1.082187 S    
C19   C25   1.421960 A    
P2    O7    1.515153 D    
C23   H42   1.081073 S    
C23   C24   1.419232 A    
Ba1   O13   2.793559 S    
P3    O8    1.743375 S    
P2    Ba1   3.428569 S    
C47   C48   1.399973 A    
C3    H7    1.112397 S    
C4    H9    1.110606 S    
C9    H19   1.112622 S    
C29   H45   1.063170 S    
C18   C26   1.383775 A    
C45   C46   1.410856 A    
C3    H28   1.109878 S    
C34   C38   1.437773 A    
C21   C27   1.416647 A    
C15   O24   1.407554 S    
C43   C44   1.391647 A    
C51   C52   1.406259 A    
O17   Ba2   2.736431 S    
O13   Ba2   2.943304 S    
P4    O12   1.513700 D    
C1    C10   1.527026 S    
C17   C25   1.439941 A    
C30   H46   1.087785 S    
C13   H29   1.116736 S    
P8    O23   1.538509 D    
C53   C54   1.409639 A    
C42   H52   1.061498 S    
O8    Ba1   2.735760 S    
C52   H57   1.082903 S    
C46   C54   1.492085 S    
O14   Ba2   2.752169 S    
C28   H44   1.082742 S    
P4    O15   1.751674 S    
C39   C40   1.393216 A    
O4    P6    1.535673 D    
C58   C59   1.410432 A    
P5    O18   1.542323 D    
C6    H12   1.101949 S    
C2    H4    1.115902 S    
C5    H11   1.114881 S    
C44   C45   1.401387 A    
C4    H8    1.107931 S    
C22   C28   1.383677 A    
C31   C32   1.388654 A    
C12   H25   1.110689 S    
P8    O24   1.748779 S    
C55   H59   1.082783 S    
O16   Ba2   2.949352 S    
C23   C27   1.442853 A    
C5    N1    1.458895 S    
C46   C47   1.414760 A    
P5    O19   1.744903 S    
C26   H43   1.080647 S    
C14   H33   1.121277 S    
C36   C39   1.421145 A    
C52   C53   1.402449 A    
C43   C48   1.395869 A    
P2    O20   1.545814 S    
O14   P8    1.717368 S    
Ba2   O20   2.751903 S    
C20   C26   1.386631 A    
P7    O22   1.752521 S    
Ba2   O21   2.839601 S    
P3    O9    1.543906 D    
P4    Ba2   3.447546 S    
P1    O5    1.750540 S    
C25   C38   1.563210 S    
C3    H6    1.112229 S    
C50   C51   1.406960 A    
C45   H56   1.083651 S    
C7    H14   1.126173 S    
C40   H50   1.087670 S    
P5    O17   1.746230 S    
C17   H39   1.084940 S    
C55   C56   1.400114 A    
C39   H49   1.062009 S    
O6    P6    1.748854 S    
C37   C38   1.432358 A    
C12   H26   1.110167 S    
O12   Ba2   2.880443 S    
C2    H5    1.108661 S    
C41   H51   1.083665 S    
