data_mof_unit_32843.cif
_audit_creation_date              2012-12-10T17:50:43-0500
_audit_creation_method            fapswitch 2.2
_symmetry_space_group_name_H-M    P1
_symmetry_Int_Tables_number       1
_space_group_crystal_system       triclinic
_cell_length_a                    14.853843
_cell_length_b                    14.849476
_cell_length_c                    15.832197
_cell_angle_alpha                 73.895225
_cell_angle_beta                  102.16606
_cell_angle_gamma                 116.454764
_cell_volume                      2988.30272474

loop_
_atom_site_label
_atom_site_type_symbol
_atom_type_description
_atom_site_fract_x
_atom_site_fract_y
_atom_site_fract_z
_atom_type_partial_charge
C1    C     C_R   0.879568 0.311942 0.511803 0.798844
C2    C     C_R   0.120124 0.688609 0.486189 0.774689
C3    C     C_R   0.777887 0.021006 0.557604 0.154436
C4    C     C_R   0.217483 0.970921 0.495202 0.154133
C5    C     C_R   0.844558 0.125153 0.550680 -0.223097
C6    C     C_R   0.151348 0.867788 0.492742 -0.211013
C7    C     C_R   0.704361 0.173084 0.491051 0.109358
C8    C     C_R   0.291749 0.836102 0.477249 0.077554
C9    C     C_R   0.636673 0.072280 0.527457 0.040793
C10   C     C_R   0.359423 0.924246 0.510602 0.039003
C11   C     C_R   0.672654 0.992940 0.558521 0.020588
C12   C     C_R   0.323321 0.996192 0.516808 0.025343
C13   C     C_R   0.533136 0.047243 0.529262 0.030399
C14   C     C_R   0.463265 0.945536 0.531700 0.026483
C15   C     C_R   0.497856 0.867153 0.563537 -0.193187
C16   C     C_R   0.498664 0.118166 0.537688 -0.192702
C17   C     C_R   0.601061 0.890372 0.588106 0.134668
C18   C     C_R   0.395612 0.089138 0.543084 0.125929
C19   C     C_R   0.680077 0.589573 0.317516 0.050025
C20   C     C_R   0.317461 0.397240 0.680664 0.044350
C21   C     C_R   0.779957 0.610740 0.357623 0.275095
C22   C     C_R   0.219236 0.388408 0.643189 0.253307
C23   C     C_R   0.000145 0.500511 0.659632 0.843051
C24   C     C_R   0.000141 0.500271 0.340239 0.815415
C25   C     C_R   0.717516 0.514794 0.496822 0.242169
C26   C     C_R   0.279400 0.472939 0.500951 0.237043
C27   C     C_R   0.623831 0.521603 0.463959 -0.098894
C28   C     C_R   0.372050 0.462014 0.534001 -0.098387
C29   C     C_R   0.600827 0.539909 0.371716 0.037132
C30   C     C_R   0.395577 0.443814 0.626137 0.032393
C31   C     C_R   0.548482 0.500779 0.518073 0.108022
C32   C     C_R   0.446840 0.478061 0.480549 0.105109
C33   C     C_R   0.423039 0.465611 0.392657 -0.201118
C34   C     C_R   0.572815 0.508322 0.607003 -0.205074
C35   C     C_R   0.498955 0.504613 0.337083 -0.108774
C36   C     C_R   0.497055 0.472999 0.661509 -0.124870
C37   C     C_3   0.947755 0.404895 0.042963 -0.241239
C38   C     C_3   0.051011 0.598887 0.955947 -0.243523
C39   C     C_3   0.903615 0.465179 0.962058 0.185216
C40   C     C_3   0.095203 0.538598 0.036804 0.186934
C41   C     C_1   0.000137 0.501601 0.749109 -0.157138
C42   C     C_1   0.000134 0.500725 0.250410 -0.138677
C43   C     C_3   0.043459 0.442132 0.996140 0.128921
C44   C     C_3   0.955319 0.561608 0.002883 0.122331
C45   C     C_3   0.999300 0.501614 0.916331 0.028179
C46   C     C_3   0.999608 0.502132 0.082609 0.023929
C47   C     C_1   0.999820 0.501897 0.824586 -0.003603
C48   C     C_1   0.999858 0.501346 0.174602 -0.000031
C49   C     C_R   0.808769 0.202187 0.518120 -0.137870
C50   C     C_R   0.188272 0.798636 0.485359 -0.136740
Cu1   Cu    Cu3+1 0.081740 0.475690 0.522610 0.956548
Cu2   Cu    Cu3+1 0.918260 0.524310 0.477390 0.950103
H1    H     H_    0.345578 0.429131 0.365427 0.173181
H2    H     H_    0.650489 0.538670 0.635689 0.175408
H3    H     H_    0.905450 0.325710 0.079713 0.167928
H4    H     H_    0.093261 0.678080 0.919183 0.167845
H5    H     H_    0.070546 0.843855 0.489515 0.168728
H6    H     H_    0.925239 0.146294 0.563305 0.161286
H7    H     H_    0.443465 0.788150 0.579588 0.157130
H8    H     H_    0.553109 0.191857 0.551172 0.176360
H9    H     H_    0.476554 0.503517 0.267748 0.194231
H10   H     H_    0.519562 0.473043 0.731017 0.197510
N1    N     N_R   0.795440 0.560790 0.443380 -0.221208
N2    N     N_R   0.204560 0.439210 0.556620 -0.218340
O1    O     O_R   0.977900 0.338120 0.529810 -0.603649
O2    O     O_R   0.022100 0.661880 0.470190 -0.595731
O3    O     O_R   0.839850 0.379180 0.491620 -0.558665
O4    O     O_R   0.160150 0.620820 0.508380 -0.554830
O5    O     O_R   0.069010 0.479460 0.640020 -0.574072
O6    O     O_R   0.930990 0.520540 0.359980 -0.611276
O7    O     O_R   0.930960 0.520530 0.601820 -0.533505
O8    O     O_R   0.069040 0.479470 0.398180 -0.532669
I1    I     I_    0.751583 0.401941 0.902351 -0.348149
I2    I     I_    0.247822 0.602888 0.094777 -0.340441
I3    I     I_    0.276794 0.570990 0.373024 -0.374984
I4    I     I_    0.714392 0.394904 0.611611 -0.382488
C51   C     C_3   0.131731 0.313891 0.697726 -0.322748
C52   C     C_3   0.129027 0.347009 0.780616 -0.757213
H11   H     H_    0.179262 0.429468 0.779225 0.266978
H12   H     H_    0.050529 0.333394 0.786135 0.221352
H13   H     H_    0.151147 0.299508 0.841427 0.255450
H14   H     H_    0.058695 0.298111 0.658847 0.229601
H15   H     H_    0.135589 0.237671 0.717986 0.176127
C53   C     C_3   0.867202 0.688238 0.304831 -0.333420
C54   C     C_3   0.878385 0.797630 0.296409 -0.862520
H16   H     H_    0.891576 0.814558 0.363116 0.240777
H17   H     H_    0.943914 0.853341 0.259155 0.247375
H18   H     H_    0.809764 0.808088 0.260956 0.285384
H19   H     H_    0.939761 0.686997 0.335171 0.248965
H20   H     H_    0.857263 0.671506 0.238568 0.205702
I5    I     I_    0.649610 0.634380 0.176930 -0.392216
I6    I     I_    0.348243 0.325926 0.815446 -0.423296
C55   C     C_3   0.906199 0.629776 0.010773 -0.366370
C56   C     C_3   0.883225 0.691256 0.920864 -0.783150
H21   H     H_    0.954159 0.743802 0.889866 0.241370
H22   H     H_    0.831700 0.639141 0.876285 0.272240
H23   H     H_    0.846136 0.738151 0.929442 0.248869
H24   H     H_    0.835088 0.580701 0.042505 0.229442
H25   H     H_    0.958224 0.684068 0.053593 0.205859
C57   C     C_3   0.091992 0.373102 0.989221 -0.386799
C58   C     C_3   0.116026 0.313277 0.079651 -0.771675
H26   H     H_    0.168585 0.366483 0.122995 0.275676
H27   H     H_    0.045642 0.261746 0.111790 0.241337
H28   H     H_    0.152306 0.265417 0.071568 0.247109
H29   H     H_    0.038922 0.317526 0.947918 0.206657
H30   H     H_    0.162534 0.421262 0.956489 0.227225
C59   C     C_3   0.629119 0.807175 0.652671 -0.447431
C60   C     C_3   0.571009 0.760738 0.734535 -0.765422
H31   H     H_    0.490113 0.712551 0.717762 0.247304
H32   H     H_    0.577337 0.822603 0.764968 0.262500
H33   H     H_    0.603330 0.710542 0.783884 0.249695
H34   H     H_    0.614105 0.744817 0.618808 0.210257
H35   H     H_    0.709763 0.838787 0.678836 0.209534
C61   C     C_3   0.369010 0.152599 0.586432 -0.459303
C62   C     C_3   0.426643 0.163625 0.677914 -0.718580
H36   H     H_    0.508465 0.211741 0.673368 0.269751
H37   H     H_    0.415774 0.086731 0.720120 0.254305
H38   H     H_    0.397568 0.201658 0.709930 0.265736
H39   H     H_    0.385750 0.230302 0.543488 0.214647
H40   H     H_    0.288312 0.115388 0.598217 0.207999
C63   C     C_3   0.324261 0.800676 0.412183 -0.349010
C64   C     C_3   0.380931 0.889083 0.339345 -0.793968
H41   H     H_    0.339221 0.938551 0.309868 0.250671
H42   H     H_    0.458469 0.936480 0.365227 0.250968
H43   H     H_    0.387719 0.857150 0.286491 0.268009
H44   H     H_    0.370703 0.757582 0.446432 0.223947
H45   H     H_    0.256037 0.749565 0.376915 0.227461
C65   C     C_3   0.669091 0.240125 0.410822 -0.354136
C66   C     C_3   0.600592 0.180536 0.339848 -0.833111
H46   H     H_    0.633004 0.131986 0.326401 0.256619
H47   H     H_    0.523276 0.131612 0.359674 0.256674
H48   H     H_    0.593902 0.235626 0.277612 0.255505
H49   H     H_    0.631652 0.280028 0.430536 0.214723
H50   H     H_    0.734680 0.300832 0.376204 0.221340
C67   C     C_3   0.821133 0.946712 0.553737 -0.429987
C68   C     C_3   0.881096 0.983488 0.473983 -0.818824
H51   H     H_    0.833820 0.998330 0.411910 0.263541
H52   H     H_    0.950743 0.054446 0.479658 0.248120
H53   H     H_    0.904028 0.923026 0.470522 0.235786
H54   H     H_    0.871020 0.936742 0.615319 0.199201
H55   H     H_    0.760643 0.870755 0.545804 0.212058
C69   C     C_3   0.173334 0.050892 0.464000 -0.438049
C70   C     C_3   0.114049 0.045347 0.372580 -0.818375
H56   H     H_    0.161892 0.050991 0.324367 0.261381
H57   H     H_    0.044914 0.972721 0.374716 0.247167
H58   H     H_    0.090532 0.110210 0.349524 0.244646
H59   H     H_    0.123067 0.039889 0.512392 0.199730
H60   H     H_    0.233203 0.130115 0.456153 0.211677

loop_
_geom_bond_atom_site_label_1
_geom_bond_atom_site_label_2
_ccdc_geom_bond_type
C70   H58   S    
C38   C40   S    
C55   C56   S    
C27   C29   A    
C24   C42   S    
C59   H34   S    
C23   O5    A    
C3    C11   A    
C65   C66   S    
C18   C61   S    
C61   C62   S    
C24   O6    A    
C67   C68   S    
C20   C30   A    
C51   C52   S    
C40   C46   S    
C20   I6    S    
C57   H29   S    
C58   H26   S    
C5    H6    S    
C19   C21   A    
C63   H45   S    
C2    O4    A    
C17   C59   S    
C25   N1    A    
C52   H12   S    
C8    C63   S    
C51   H15   S    
C62   H36   S    
C60   H31   S    
C70   H57   S    
Cu1   O1    S    
C9    C13   A    
C59   H35   S    
C38   C45   S    
C26   N2    A    
C44   C55   S    
C2    C50   S    
C1    O3    A    
C40   C43   S    
C40   I2    S    
C62   H37   S    
C1    O1    A    
C59   C60   S    
C7    C65   S    
C4    C12   A    
C55   H25   S    
C3    C67   S    
C61   H39   S    
C39   C45   S    
C66   H48   S    
C45   C47   S    
C58   H27   S    
C13   C14   A    
C6    H5    S    
C5    C49   A    
C53   H20   S    
C68   H53   S    
C36   H10   S    
C44   C46   S    
C54   H17   S    
C33   H1    S    
C67   H54   S    
C46   C48   S    
C27   C31   A    
Cu1   Cu2   S    
C69   H60   S    
C28   C32   A    
C19   I5    S    
C53   C54   S    
C7    C49   A    
C4    C6    A    
C10   C14   A    
C52   H11   S    
C56   H23   S    
C3    C5    A    
C54   H16   S    
C6    C50   A    
C37   C43   S    
C38   C44   S    
C65   H50   S    
C9    C11   A    
C31   C32   A    
C21   C53   S    
C62   H38   S    
C26   I3    S    
C41   C47   T    
C31   C34   A    
C35   H9    S    
C16   C18   A    
C42   C48   T    
C43   C57   S    
C56   H22   S    
C43   C45   S    
C63   C64   S    
Cu2   O3    S    
C10   C12   A    
C16   H8    S    
C68   H52   S    
C20   C22   A    
C34   H2    S    
C58   H28   S    
C53   H19   S    
C64   H42   S    
C19   C29   A    
C8    C50   A    
Cu2   O2    S    
C24   O8    A    
C66   H46   S    
C54   H18   S    
C15   C17   A    
C11   C17   A    
C69   C70   S    
C15   H7    S    
C69   H59   S    
Cu1   N2    S    
C22   C51   S    
C68   H51   S    
C2    O2    A    
Cu2   N1    S    
C39   C44   S    
C57   H30   S    
C25   C27   A    
C29   C35   A    
C26   C28   A    
C23   C41   S    
C60   H33   S    
C30   C36   A    
C25   I4    S    
C32   C33   A    
C64   H43   S    
C28   C30   A    
C64   H41   S    
C63   H44   S    
C37   C39   S    
Cu2   O7    S    
C65   H49   S    
C4    C69   S    
C52   H13   S    
C51   H14   S    
C57   C58   S    
C33   C35   A    
C60   H32   S    
C34   C36   A    
Cu1   O4    S    
C39   I1    S    
C56   H21   S    
C21   N1    A    
Cu2   O6    S    
C22   N2    A    
C37   H3    S    
C7    C9    A    
C67   H55   S    
C38   H4    S    
C23   O7    A    
C8    C10   A    
Cu1   O8    S    
C13   C16   A    
C12   C18   A    
C14   C15   A    
Cu1   O5    S    
C37   C46   S    
C1    C49   S    
C55   H24   S    
C61   H40   S    
C70   H56   S    
C66   H47   S    
