data_mof_unit_56311.cif
_audit_creation_date              2012-10-26T19:15:59-0400
_audit_creation_method            fapswitch 2.2
_symmetry_space_group_name_H-M    P1
_symmetry_Int_Tables_number       1
_space_group_crystal_system       triclinic
_cell_length_a                    7.770365
_cell_length_b                    9.094711
_cell_length_c                    17.147216
_cell_angle_alpha                 89.634397
_cell_angle_beta                  93.405736
_cell_angle_gamma                 90.011153
_cell_volume                      1209.61565937

loop_
_atom_site_label
_atom_site_type_symbol
_atom_type_description
_atom_site_fract_x
_atom_site_fract_y
_atom_site_fract_z
_atom_type_partial_charge
C1    C     C_R   0.499974 0.219966 0.500063 0.563868
C2    C     C_R   0.585197 0.433724 0.138902 -0.072494
C3    C     C_R   0.556692 0.498488 0.901577 0.201418
C4    C     C_R   0.443154 0.502507 0.098764 0.202504
C5    C     C_R   0.694490 0.447860 0.858865 0.017058
C6    C     C_R   0.308602 0.559207 0.141520 0.017928
C7    C     C_R   0.678641 0.452967 0.777258 -0.191337
C8    C     C_R   0.324217 0.553600 0.223089 -0.204619
C9    C     C_1   0.499972 0.065355 0.500025 -0.001254
C10   C     C_1   0.500005 0.934641 0.499984 -0.003846
C11   C     C_2   0.856711 0.386799 0.896482 0.318601
C12   C     C_R   0.500020 0.780033 0.499932 0.568129
C13   C     C_2   0.150403 0.627526 0.104000 0.318328
C14   C     C_R   0.520025 0.504258 0.651254 0.583165
C15   C     C_R   0.479844 0.495824 0.348809 0.577027
C16   C     C_R   0.530331 0.509915 0.737134 -0.004817
C17   C     C_R   0.468992 0.490370 0.263044 -0.009473
C18   C     C_R   0.396487 0.569173 0.780030 0.218596
C19   C     C_R   0.598751 0.424853 0.220173 0.220918
C20   C     C_R   0.410551 0.560616 0.861277 -0.076853
Cu1   Cu    Cu3+1 0.669080 0.500010 0.500000 1.137304
Cu2   Cu    Cu3+1 0.330920 0.499990 0.500000 1.102807
H1    H     H_    0.685964 0.385152 0.106607 0.218474
H2    H     H_    0.306509 0.604102 0.893396 0.219990
H3    H     H_    0.782287 0.409497 0.744577 0.167193
H4    H     H_    0.223468 0.601652 0.255900 0.159332
H5    H     H_    0.015153 0.382546 0.327566 0.370577
H6    H     H_    0.165842 0.811805 0.639337 0.370056
H7    H     H_    0.958092 0.349587 0.860365 0.126052
H8    H     H_    0.051621 0.669457 0.140184 0.129025
N1    N     N_1   0.076820 0.499970 0.500010 -0.057488
N2    N     N_1   0.923180 0.500030 0.499990 -0.046091
N3    N     N_2   0.568548 0.487038 0.984399 -0.170928
N4    N     N_2   0.431632 0.514034 0.016005 -0.172608
O1    O     O_R   0.642760 0.288400 0.500000 -0.480517
O2    O     O_2   0.861034 0.234410 0.204661 -0.259255
O3    O     O_3   0.920960 0.444707 0.303968 -0.520121
O4    O     O_2   0.090453 0.548714 0.700229 -0.291996
O5    O     O_2   0.121898 0.746639 0.795937 -0.256152
O6    O     O_3   0.274601 0.777227 0.666482 -0.508241
O7    O     O_2   0.880615 0.377457 0.967338 -0.430260
O8    O     O_2   0.126978 0.637801 0.033160 -0.428815
O9    O     O_R   0.357240 0.711600 0.500000 -0.491375
O10   O     O_R   0.357190 0.288380 0.500000 -0.510236
O11   O     O_R   0.642810 0.711620 0.500000 -0.501245
O12   O     O_R   0.658410 0.498660 0.613920 -0.505991
O13   O     O_R   0.341590 0.501340 0.386080 -0.532255
O14   O     O_R   0.372840 0.498650 0.613930 -0.436433
O15   O     O_R   0.627160 0.501350 0.386070 -0.430878
O16   O     O_2   0.714660 0.225217 0.327093 -0.271387
S1    S     S_3+6 0.775944 0.325319 0.264394 0.030912
S2    S     S_3+6 0.212938 0.660726 0.736081 0.027701

loop_
_geom_bond_atom_site_label_1
_geom_bond_atom_site_label_2
_ccdc_geom_bond_type
Cu2   O14   S    
C5    C11   S    
Cu1   O1    S    
C14   C16   S    
C8    H4    S    
C9    C10   T    
C1    O10   A    
C2    C4    A    
C8    C17   A    
C7    H3    S    
C15   O13   A    
Cu1   O15   S    
O5    S2    D    
C18   S2    S    
C3    C20   A    
C14   O12   A    
O6    S2    S    
Cu1   Cu2   S    
C6    C13   S    
C11   H7    S    
O2    S1    D    
C10   C12   S    
H5    O3    S    
C6    C8    A    
C16   C18   A    
C7    C16   A    
C17   C19   A    
N3    N4    D    
C11   O7    D    
C12   O9    A    
Cu1   O11   S    
C15   O15   A    
C4    N4    S    
O3    S1    S    
Cu1   N2    S    
Cu2   O13   S    
O4    S2    D    
Cu2   N1    S    
C3    N3    S    
C19   S1    S    
C13   H8    S    
C1    C9    S    
C1    O1    A    
C18   C20   A    
C4    C6    A    
Cu1   O12   S    
C2    H1    S    
C5    C7    A    
H6    O6    S    
C13   O8    D    
C14   O14   A    
O16   S1    D    
C2    C19   A    
C15   C17   S    
C20   H2    S    
Cu2   O9    S    
Cu2   O10   S    
N1    N2    T    
C12   O11   A    
C3    C5    A    
