data_mof_unit_50753.cif
_audit_creation_date              2012-12-11T15:32:38-0500
_audit_creation_method            fapswitch 2.2
_symmetry_space_group_name_H-M    P1
_symmetry_Int_Tables_number       1
_space_group_crystal_system       triclinic
_cell_length_a                    6.960677
_cell_length_b                    20.458215
_cell_length_c                    24.352114
_cell_angle_alpha                 89.73984
_cell_angle_beta                  90.004227
_cell_angle_gamma                 89.390381
_cell_volume                      3467.58267752

loop_
_atom_site_label
_atom_site_type_symbol
_atom_type_description
_atom_site_fract_x
_atom_site_fract_y
_atom_site_fract_z
_atom_type_partial_charge
O1    O     O_R   0.507320 0.423560 0.460500 -0.536072
O2    O     O_R   0.170760 0.556250 0.437010 -0.536992
O3    O     O_R   0.004030 0.576440 0.539500 -0.536224
C1    C     C_R   0.339030 0.576385 0.421122 0.721886
O4    O     O_R   0.177370 0.422820 0.454110 -0.539519
O5    O     O_R   0.010680 0.442050 0.556720 -0.534917
C2    C     C_R   0.346661 0.398699 0.443841 0.722005
O6    O     O_R   0.500680 0.557950 0.443280 -0.536254
O7    O     O_3   0.340380 0.506470 0.533650 -0.366729
V1    V     V_3+5 0.064130 0.498800 0.493760 1.427955
O8    O     O_R   0.681160 0.443750 0.562990 -0.536790
C3    C     C_R   0.850083 0.423749 0.578887 0.725622
O9    O     O_R   0.674560 0.577180 0.545890 -0.536548
C4    C     C_R   0.841471 0.601383 0.556548 0.724605
V2    V     V_3+5 0.564560 0.501200 0.506240 1.432479
O10   O     O_3   0.838180 0.493530 0.466350 -0.368811
C5    C     C_R   0.981319 0.837050 0.911756 -0.154212
C6    C     C_R   0.836581 0.662129 0.589432 -0.146394
C7    C     C_R   0.096100 0.725120 0.903499 0.485111
C8    C     C_R   0.074327 0.782359 0.933989 -0.241436
C9    C     C_R   0.907651 0.834117 0.858076 -0.184892
C10   C     C_R   0.916660 0.775277 0.826809 0.025105
C11   C     C_R   0.015740 0.721019 0.850330 -0.053757
C12   C     C_R   0.839774 0.769446 0.772100 -0.081407
C13   C     C_R   0.887688 0.713075 0.739321 -0.079162
C14   C     C_R   0.967600 0.657698 0.767077 0.444522
C15   C     C_R   0.033608 0.662947 0.820828 -0.246895
C16   C     C_R   0.708249 0.816027 0.749699 0.439902
C17   C     C_R   0.662525 0.814971 0.694165 -0.231064
C18   C     C_R   0.730218 0.765626 0.659556 -0.039500
C19   C     C_R   0.842658 0.713173 0.681340 0.037529
C20   C     C_R   0.678770 0.767115 0.603460 0.489224
C21   C     C_R   0.725396 0.714287 0.569793 -0.224858
C22   C     C_R   0.904167 0.663476 0.643854 -0.179349
H1    H     H_    0.098900 0.620023 0.839600 0.187761
H2    H     H_    0.000521 0.624428 0.655440 0.185804
H3    H     H_    0.669366 0.713208 0.528265 0.124937
H4    H     H_    0.566713 0.852845 0.678626 0.189537
H5    H     H_    0.134928 0.784526 0.974942 0.130836
H6    H     H_    0.856346 0.879553 0.840726 0.181490
C23   C     C_3   0.827580 0.304291 0.769184 0.159066
C24   C     C_3   0.023838 0.277807 0.790185 -0.179126
H7    H     H_    0.113308 0.300068 0.822730 0.137506
C25   C     C_1   0.965118 0.121889 0.875385 -0.186131
C26   C     C_1   0.859565 0.378437 0.624776 -0.189963
C27   C     C_3   0.740875 0.234832 0.772014 -0.290857
C28   C     C_3   0.938786 0.208066 0.791545 -0.002723
C29   C     C_3   0.806303 0.223393 0.711966 0.366799
C30   C     C_3   0.889486 0.293110 0.709151 0.038206
C31   C     C_3   0.002400 0.196889 0.731459 0.437812
C32   C     C_3   0.085695 0.266455 0.729632 0.014966
C33   C     C_1   0.956166 0.160553 0.837448 0.030114
C34   C     C_1   0.869679 0.340126 0.662908 0.027716
H8    H     H_    0.601763 0.221729 0.791183 0.140941
C35   C     C_3   0.531960 0.723367 0.212038 -0.148238
C36   C     C_3   0.336245 0.695772 0.230660 0.175389
H9    H     H_    0.630213 0.701213 0.181228 0.118822
H10   H     H_    0.103326 0.776111 0.206238 0.121288
C37   C     C_1   0.348780 0.622044 0.375239 -0.190925
C38   C     C_1   0.475528 0.878028 0.124842 -0.192628
C39   C     C_3   0.580635 0.736041 0.273065 0.168822
C40   C     C_3   0.386829 0.707835 0.291174 0.148923
C41   C     C_3   0.490987 0.805411 0.269495 -0.135984
C42   C     C_3   0.438849 0.792229 0.208907 0.103387
C43   C     C_3   0.294724 0.776806 0.287632 -0.214423
C44   C     C_3   0.242637 0.764466 0.226416 -0.142234
C45   C     C_1   0.362922 0.660581 0.337258 -0.034057
C46   C     C_1   0.461809 0.839493 0.162859 -0.041726
H11   H     H_    0.197304 0.798814 0.318710 0.128967
H12   H     H_    0.556963 0.850646 0.285543 0.118341
C47   C     C_R   0.470072 0.161902 0.088534 -0.041710
C48   C     C_R   0.354124 0.337759 0.412048 -0.106767
C49   C     C_R   0.518625 0.278451 0.093318 -0.158140
C50   C     C_R   0.513802 0.221050 0.062976 -0.169626
C51   C     C_R   0.431777 0.160306 0.145180 -0.213108
C52   C     C_R   0.438816 0.218166 0.177452 0.084368
C53   C     C_R   0.482751 0.277535 0.150037 0.137831
C54   C     C_R   0.406016 0.219236 0.235718 0.063523
C55   C     C_R   0.417275 0.279666 0.265265 0.085348
C56   C     C_R   0.461042 0.337018 0.235501 -0.186957
C57   C     C_R   0.492657 0.335766 0.179268 -0.204583
C58   C     C_R   0.362976 0.161913 0.265418 -0.208063
C59   C     C_R   0.330795 0.163115 0.321610 -0.174140
C60   C     C_R   0.339289 0.221409 0.351163 0.036260
C61   C     C_R   0.383862 0.280753 0.323536 0.031999
C62   C     C_R   0.300381 0.220988 0.408145 0.462477
C63   C     C_R   0.310545 0.279013 0.438078 -0.247372
C64   C     C_R   0.390955 0.338818 0.355448 -0.226282
H13   H     H_    0.526263 0.381157 0.158387 0.125940
H14   H     H_    0.421182 0.385931 0.337778 0.106583
H15   H     H_    0.282644 0.278235 0.481866 0.124631
H16   H     H_    0.297349 0.117416 0.341946 0.167044
H17   H     H_    0.552879 0.323748 0.072424 0.115650
H18   H     H_    0.545377 0.222676 0.019422 0.106923
H19   H     H_    0.401039 0.113094 0.162619 0.093476
H20   H     H_    0.472642 0.384251 0.254371 0.122840
H21   H     H_    0.352227 0.114705 0.246430 0.123704
O11   O     O_R   0.323550 0.942140 0.056770 -0.535875
O12   O     O_R   0.647080 0.077200 0.045890 -0.538469
O13   O     O_R   0.813610 0.057920 0.943260 -0.534490
C65   C     C_R   0.477795 0.101272 0.056303 0.693895
O14   O     O_R   0.653470 0.943760 0.063000 -0.537050
O15   O     O_R   0.820050 0.923540 0.960490 -0.532880
C66   C     C_R   0.485195 0.923668 0.078920 0.720381
O16   O     O_R   0.317110 0.076520 0.039540 -0.536759
O17   O     O_3   0.483830 0.993580 0.966380 -0.365024
V3    V     V_3+5 0.760140 0.001190 0.006240 1.431977
O18   O     O_R   0.149510 0.922740 0.954070 -0.541311
C67   C     C_R   0.982155 0.898761 0.943230 0.723715
O19   O     O_R   0.143120 0.056170 0.936970 -0.536149
C68   C     C_R   0.974244 0.076269 0.921112 0.724524
V4    V     V_3+5 0.259690 0.998700 0.993700 1.429739
O20   O     O_3   0.986130 0.006420 0.033620 -0.368326
O21   O     O_3   0.563407 0.816915 0.582812 -0.557723
C69   C     C_3   0.679402 0.859776 0.552153 -0.268282
H22   H     H_    0.740608 0.835216 0.515304 0.137752
H23   H     H_    0.796329 0.880371 0.577855 0.142363
H24   H     H_    0.588760 0.901263 0.537567 0.170392
C70   C     C_3   0.729554 0.365719 0.790715 -0.768578
H25   H     H_    0.696655 0.359519 0.835004 0.212002
H26   H     H_    0.826129 0.408045 0.785240 0.208729
H27   H     H_    0.594176 0.374895 0.767814 0.207894
C71   C     C_3   0.276238 0.288926 0.706104 -0.727599
H28   H     H_    0.393138 0.257987 0.722698 0.238214
H29   H     H_    0.274909 0.285648 0.660669 0.212531
H30   H     H_    0.300636 0.340542 0.717706 0.206872
O22   O     O_3   0.095310 0.138055 0.716039 -0.556516
C72   C     C_3   0.126941 0.137321 0.658891 -0.265763
H31   H     H_    0.228584 0.175795 0.646136 0.161963
H32   H     H_    0.991459 0.141914 0.635192 0.176896
H33   H     H_    0.192743 0.089536 0.647923 0.160430
O23   O     O_3   0.692831 0.197453 0.669477 -0.560263
C73   C     C_3   0.619985 0.136482 0.686204 -0.255801
H34   H     H_    0.508643 0.142769 0.718475 0.176667
H35   H     H_    0.734747 0.102549 0.701016 0.170855
H36   H     H_    0.551865 0.113064 0.650273 0.162379
C74   C     C_3   0.246402 0.633910 0.208453 -0.802920
H37   H     H_    0.224993 0.638815 0.163461 0.217327
H38   H     H_    0.342540 0.591449 0.216985 0.210240
H39   H     H_    0.105460 0.625967 0.228578 0.213217
C75   C     C_3   0.772258 0.720036 0.300048 -0.805512
H40   H     H_    0.885744 0.749643 0.280643 0.212426
H41   H     H_    0.765183 0.731679 0.344470 0.212790
H42   H     H_    0.806798 0.667342 0.294878 0.214420
O24   O     O_3   0.261536 0.162993 0.435228 -0.559023
C76   C     C_3   0.062777 0.160598 0.446260 -0.261978
H43   H     H_    0.976373 0.165594 0.407918 0.140717
H44   H     H_    0.018878 0.198588 0.476445 0.143151
H45   H     H_    0.030063 0.112271 0.464642 0.168892
O25   O     O_3   0.190865 0.672176 0.926935 -0.555268
C77   C     C_3   0.389797 0.679417 0.918023 -0.269302
H46   H     H_    0.444812 0.724667 0.937490 0.139075
H47   H     H_    0.424453 0.679122 0.873394 0.129413
H48   H     H_    0.466357 0.637286 0.937139 0.176572
O26   O     O_3   0.974968 0.596242 0.743964 -0.565245
C78   C     C_3   0.796682 0.565693 0.752642 -0.277863
H49   H     H_    0.676052 0.594258 0.733989 0.149034
H50   H     H_    0.769835 0.557552 0.797199 0.147425
H51   H     H_    0.800435 0.517214 0.732431 0.164975
O27   O     O_3   0.611353 0.861199 0.781719 -0.561952
C79   C     C_3   0.449924 0.830684 0.805262 -0.234958
H52   H     H_    0.493599 0.790068 0.833245 0.132042
H53   H     H_    0.349999 0.812546 0.773166 0.142563
H54   H     H_    0.370127 0.867213 0.830189 0.171999

loop_
_geom_bond_atom_site_label_1
_geom_bond_atom_site_label_2
_ccdc_geom_bond_type
C13   C19   A    
C18   C20   A    
C35   C36   S    
C41   C43   S    
C63   H15   S    
C32   C71   S    
C49   C50   A    
C4    C6    S    
O2    C1    A    
C7    C8    A    
C49   H17   S    
C1    O6    A    
C72   H31   S    
C5    C8    A    
O21   C69   S    
C51   H19   S    
C71   H28   S    
O17   V4    S    
C59   H16   S    
C74   H38   S    
C14   C15   A    
C40   C45   S    
C42   C46   S    
C16   C17   A    
C60   C62   A    
C75   H41   S    
O5    C3    A    
C18   C19   A    
C43   H11   S    
C71   H29   S    
O17   V3    S    
V2    O10   S    
C16   O27   S    
C7    O25   S    
C37   C45   T    
O18   C67   A    
C23   C24   S    
C77   H48   S    
C39   C41   S    
C50   H18   S    
O19   C68   A    
V3    O20   S    
C48   C64   A    
O8    V2    S    
H10   C44   S    
O23   C73   S    
C69   H23   S    
C17   H4    S    
C73   H36   S    
V1    O10   S    
C77   H46   S    
O1    V2    S    
C11   C15   A    
C56   H20   S    
O7    V1    S    
C22   H2    S    
C24   C32   S    
C57   H13   S    
C25   C33   T    
C29   C31   S    
C47   C65   S    
C26   C34   T    
C9    C10   A    
C14   O26   S    
C23   C30   S    
V4    O20   S    
C79   H53   S    
O24   C76   S    
C28   C31   S    
C76   H44   S    
C52   C53   A    
C70   H26   S    
C65   O16   A    
C74   H39   S    
C27   C29   S    
O11   V4    S    
C12   C13   A    
C75   H42   S    
C2    C48   S    
O4    C2    A    
C8    H5    S    
C62   C63   A    
C3    C26   S    
C71   H30   S    
C30   C32   S    
C13   C14   A    
C21   H3    S    
C55   C56   A    
C5    C67   S    
C23   C70   S    
C42   C44   S    
C7    C11   A    
C51   C52   A    
C17   C18   A    
C76   H45   S    
C54   C58   A    
C59   C60   A    
C41   H12   S    
C53   C57   A    
C23   C27   S    
C69   H24   S    
C35   C42   S    
C27   H8    S    
C31   C32   S    
C19   C22   A    
C38   C66   S    
O14   V3    S    
C60   C61   A    
O14   C66   A    
C48   C63   A    
C6    C22   A    
O3    C4    A    
C39   C75   S    
C29   C30   S    
O12   C65   A    
O16   V4    S    
C64   H14   S    
C58   C59   A    
O6    V2    S    
O9    V2    S    
C73   H34   S    
C58   H21   S    
C36   C40   S    
C24   H7    S    
O22   C72   S    
O2    V1    S    
C62   O24   S    
C55   C61   A    
C79   H54   S    
C76   H43   S    
C61   C64   A    
C27   C28   S    
C78   H49   S    
O13   V3    S    
C40   C43   S    
O1    C2    A    
C78   H51   S    
C12   C16   A    
C52   C54   A    
C56   C57   A    
C72   H32   S    
O5    V1    S    
C47   C50   A    
C70   H25   S    
C28   C33   S    
O12   V3    S    
C74   H37   S    
O25   C77   S    
O15   C67   A    
C15   H1    S    
C20   C21   A    
C35   H9    S    
O7    V2    S    
O4    V1    S    
O3    V1    S    
C79   H52   S    
C75   H40   S    
O27   C79   S    
C47   C51   A    
C36   C74   S    
C54   C55   A    
C9    H6    S    
C36   C44   S    
C35   C39   S    
C1    C37   S    
C78   H50   S    
C70   H27   S    
C10   C12   A    
C24   C28   S    
C77   H47   S    
C39   C40   S    
C6    C21   A    
O19   V4    S    
C30   C34   S    
C41   C42   S    
C25   C68   S    
O18   V4    S    
C38   C46   T    
O13   C68   A    
C43   C44   S    
O26   C78   S    
C73   H35   S    
C49   C53   A    
C10   C11   A    
C29   O23   S    
O15   V3    S    
C31   O22   S    
C20   O21   S    
O9    C4    A    
C72   H33   S    
O11   C66   A    
C69   H22   S    
O8    C3    A    
C5    C9    A    
