data_mof_unit_24356.cif
_audit_creation_date              2012-12-10T17:49:36-0500
_audit_creation_method            fapswitch 2.2
_symmetry_space_group_name_H-M    P1
_symmetry_Int_Tables_number       1
_space_group_crystal_system       triclinic
_cell_length_a                    14.735706
_cell_length_b                    14.756308
_cell_length_c                    15.86893
_cell_angle_alpha                 76.616203
_cell_angle_beta                  103.305812
_cell_angle_gamma                 115.670198
_cell_volume                      2992.20703118

loop_
_atom_site_label
_atom_site_type_symbol
_atom_type_description
_atom_site_fract_x
_atom_site_fract_y
_atom_site_fract_z
_atom_type_partial_charge
C1    C     C_R   0.880099 0.312071 0.518209 0.791539
C2    C     C_3   0.090441 0.477456 0.074121 -0.537571
C3    C     C_3   0.998598 0.498110 0.082827 0.206057
C4    C     C_3   0.009285 0.603425 0.028797 -0.362967
C5    C     C_3   0.006786 0.603272 0.930777 -0.396060
C6    C     C_1   0.998438 0.498164 0.175068 -0.051634
C7    C     C_1   0.001285 0.500699 0.824944 -0.026801
C8    C     C_1   0.000935 0.500706 0.749315 -0.170274
C9    C     C_R   0.813835 0.203725 0.539432 -0.081436
C10   C     C_R   0.192050 0.796724 0.481817 -0.226861
C11   C     C_R   0.790228 0.026677 0.580599 -0.201721
C12   C     C_R   0.000281 0.500231 0.659643 0.825505
C13   C     C_R   0.854270 0.129403 0.565253 -0.201725
C14   C     C_R   0.709781 0.174497 0.537518 -0.203825
C15   C     C_R   0.645072 0.071867 0.558770 0.098615
C16   C     C_R   0.685173 0.997224 0.574092 0.151985
C17   C     C_R   0.539536 0.041619 0.556295 -0.056965
C18   C     C_R   0.472291 0.939392 0.549122 0.049875
C19   C     C_R   0.514435 0.866169 0.562908 -0.187662
C20   C     C_R   0.619433 0.894644 0.579064 -0.228812
C21   C     C_R   0.498804 0.110446 0.562109 0.389224
C22   C     C_R   0.397723 0.091491 0.526952 -0.227220
C23   C     C_R   0.120653 0.688285 0.484746 0.815182
C24   C     C_R   0.331961 0.995955 0.503023 -0.078237
C25   C     C_R   0.366246 0.916209 0.524571 0.022934
C26   C     C_R   0.232222 0.978508 0.459910 0.435450
C27   C     C_R   0.163091 0.879362 0.445698 0.319348
C28   C     C_R   0.293864 0.817104 0.518404 -0.284896
C29   C     C_R   0.715397 0.667201 0.353552 -0.306739
C30   C     C_R   0.796963 0.638036 0.377221 0.106210
C31   C     C_R   0.714621 0.509619 0.488397 0.015419
C32   C     C_R   0.628736 0.535624 0.467572 -0.018458
C33   C     C_R   0.631199 0.616503 0.398506 0.155046
C34   C     C_R   0.999650 0.499626 0.340332 0.819830
C35   C     C_R   0.541471 0.485013 0.512377 0.069844
C36   C     C_R   0.458078 0.516028 0.487080 0.099315
C37   C     C_R   0.465232 0.597670 0.418022 -0.227290
C38   C     C_R   0.549959 0.646515 0.374842 -0.194370
C39   C     C_R   0.535114 0.404571 0.581762 -0.240462
C40   C     C_R   0.450659 0.354813 0.624836 -0.143780
C41   C     C_R   0.368542 0.383589 0.601548 0.109113
C42   C     C_R   0.370795 0.464566 0.532154 -0.094020
C43   C     C_R   0.284324 0.332298 0.647355 0.294813
C44   C     C_R   0.203020 0.362806 0.623416 -0.033028
C45   C     C_3   0.091392 0.477183 0.976281 0.274880
C46   C     C_R   0.284825 0.489888 0.511116 -0.012483
C47   C     C_3   0.900769 0.415931 0.946578 -0.507314
C48   C     C_3   0.898562 0.414051 0.044633 0.375145
C49   C     C_1   0.998886 0.498743 0.250637 -0.182428
C50   C     C_3   0.001058 0.500045 0.917227 0.192478
Cu1   Cu    Cu3+1 0.081750 0.475690 0.522550 0.929856
Cu2   Cu    Cu3+1 0.918250 0.524310 0.477450 0.944237
H1    H     H_    0.085342 0.402537 0.112799 0.152088
H2    H     H_    0.162673 0.535816 0.102281 0.202301
H3    H     H_    0.946794 0.622910 0.036128 0.207451
H4    H     H_    0.649096 0.836642 0.589714 0.149314
H5    H     H_    0.315310 0.753933 0.544206 0.183131
H6    H     H_    0.369876 0.149552 0.522916 0.185198
H7    H     H_    0.822560 0.970321 0.595657 0.137563
H8    H     H_    0.935090 0.150266 0.572052 0.159594
H9    H     H_    0.679082 0.231997 0.515950 0.195072
H10   H     H_    0.080666 0.399573 0.969562 0.136237
H11   H     H_    0.468913 0.786546 0.560137 0.143842
H12   H     H_    0.551880 0.708745 0.322178 0.143443
H13   H     H_    0.279073 0.549049 0.458744 0.137312
H14   H     H_    0.137274 0.324607 0.657247 0.125905
H15   H     H_    0.450238 0.293138 0.677466 0.195821
H16   H     H_    0.718265 0.729261 0.300527 0.142751
H17   H     H_    0.862071 0.677385 0.342721 0.129363
H18   H     H_    0.719996 0.449733 0.539985 0.126172
H19   H     H_    0.834510 0.429056 0.904516 0.208579
H20   H     H_    0.406484 0.626234 0.395546 0.133108
H21   H     H_    0.595154 0.378441 0.604735 0.184828
H22   H     H_    0.893343 0.340404 0.937213 0.118717
H23   H     H_    0.896984 0.339062 0.081406 0.044746
H24   H     H_    0.074870 0.667435 0.906638 0.169130
H25   H     H_    0.939211 0.616427 0.891854 0.184062
H26   H     H_    0.082270 0.663504 0.053689 0.156141
N1    N     N_R   0.795410 0.560790 0.443550 -0.182198
N2    N     N_R   0.204590 0.439170 0.556520 -0.191537
O1    O     O_R   0.977910 0.338120 0.529720 -0.586343
O2    O     O_R   0.839850 0.379180 0.491640 -0.589167
O3    O     O_R   0.069060 0.479460 0.639610 -0.563674
O4    O     O_R   0.931000 0.520530 0.601530 -0.581396
O5    O     O_R   0.160150 0.620820 0.508360 -0.582141
O6    O     O_R   0.022090 0.661880 0.470280 -0.572336
O7    O     O_R   0.069000 0.479470 0.398470 -0.583994
O8    O     O_R   0.930940 0.520540 0.360390 -0.575926
O9    O     O_3   0.185806 0.544833 0.949522 -0.711704
H27   H     H_    0.202453 0.612674 0.964008 0.330933
O10   O     O_3   0.070479 0.867339 0.394439 -0.725560
H28   H     H_    0.049105 0.809461 0.362495 0.323303
O11   O     O_3   0.554885 0.191779 0.607945 -0.615465
C51   C     C_3   0.562545 0.153283 0.698857 0.080394
H29   H     H_    0.585538 0.087772 0.714786 0.136232
H30   H     H_    0.487544 0.127319 0.720881 0.117214
C52   C     C_3   0.641564 0.235111 0.752749 -0.370977
H31   H     H_    0.618170 0.298750 0.745820 0.202524
H32   H     H_    0.645365 0.201310 0.823100 0.173976
C53   C     C_3   0.747421 0.275937 0.726964 -0.773111
H33   H     H_    0.771582 0.212862 0.732766 0.243036
H34   H     H_    0.802747 0.330153 0.771196 0.219136
H35   H     H_    0.748095 0.316664 0.658806 0.264204
O12   O     O_3   0.210781 0.060867 0.415181 -0.588542
C54   C     C_3   0.150206 0.078980 0.460692 0.069195
H36   H     H_    0.180269 0.077658 0.532088 0.117865
H37   H     H_    0.070635 0.020918 0.451797 0.195188
C55   C     C_3   0.151305 0.184445 0.422432 -0.329886
H38   H     H_    0.229488 0.243057 0.437340 0.221543
H39   H     H_    0.129865 0.190211 0.350081 0.237021
C56   C     C_3   0.077412 0.205463 0.459851 -0.905806
H40   H     H_    0.998096 0.151757 0.440474 0.251120
H41   H     H_    0.083776 0.284273 0.433984 0.284912
H42   H     H_    0.095662 0.196915 0.532305 0.249234
O13   O     O_3   0.282837 0.253178 0.714499 -0.759228
H43   H     H_    0.218115 0.225717 0.738744 0.316030
O14   O     O_3   0.813362 0.432163 0.051427 -0.602928
C57   C     C_3   0.734084 0.342542 0.084085 0.077294
H44   H     H_    0.682278 0.366383 0.105742 0.178279
H45   H     H_    0.762633 0.299181 0.143275 0.121198
C58   C     C_3   0.672790 0.275271 0.012703 -0.389861
H46   H     H_    0.648077 0.321433 0.953708 0.232471
H47   H     H_    0.721007 0.244654 0.994071 0.203958
C59   C     C_3   0.579123 0.186077 0.044230 -0.894417
H48   H     H_    0.602165 0.138218 0.102690 0.254479
H49   H     H_    0.537038 0.138615 0.991431 0.253664
H50   H     H_    0.527659 0.214109 0.061075 0.263065

loop_
_geom_bond_atom_site_label_1
_geom_bond_atom_site_label_2
_ccdc_geom_bond_type
C10   C27   A    
O11   C51   S    
C41   C42   A    
C3    C48   S    
C36   C42   A    
C19   C20   A    
C20   H4    S    
C3    C6    S    
Cu1   O5    S    
C52   H31   S    
C7    C8    T    
C13   H8    S    
C28   H5    S    
C25   C28   A    
C54   H37   S    
C26   C27   A    
C29   C30   A    
C36   C37   A    
C24   C26   A    
C1    O1    A    
O13   H43   S    
C29   C33   A    
C45   H10   S    
C55   H38   S    
C12   O4    A    
C18   C19   A    
C42   C46   A    
Cu2   O4    S    
C9    C13   A    
C57   H44   S    
C58   C59   S    
C26   O12   S    
Cu1   N2    S    
C44   H14   S    
C31   H18   S    
C35   C36   A    
C19   H11   S    
C23   O6    A    
C27   O10   S    
Cu2   N1    S    
C45   O9    S    
Cu1   O1    S    
C16   C20   A    
C51   H30   S    
C43   O13   S    
C21   C22   A    
C41   C43   A    
C48   H23   S    
C18   C25   A    
C11   H7    S    
O12   C54   S    
C52   H32   S    
C47   C50   S    
C38   H12   S    
C2    C45   S    
C54   C55   S    
Cu1   Cu2   S    
C32   C35   A    
C44   N2    A    
C1    C9    S    
C24   C25   A    
C7    C50   S    
C46   H13   S    
C2    H2    S    
Cu1   O7    S    
C39   C40   A    
C9    C14   A    
C51   C52   S    
C1    O2    A    
C14   H9    S    
C40   H15   S    
C53   H35   S    
C17   C21   A    
C12   O3    A    
C57   C58   S    
C35   C39   A    
C43   C44   A    
C4    H26   S    
C37   C38   A    
C29   H16   S    
C11   C16   A    
C47   C48   S    
Cu2   O8    S    
C8    C12   S    
C30   H17   S    
C53   H34   S    
C17   C18   A    
C56   H41   S    
C34   O8    A    
Cu2   O2    S    
C47   H19   S    
C58   H46   S    
C59   H50   S    
C30   N1    A    
C40   C41   A    
C4    H3    S    
C22   C24   A    
C5    C50   S    
C5    H25   S    
C3    C4    S    
Cu1   O3    S    
O10   H28   S    
C52   C53   S    
C59   H49   S    
C10   C28   A    
C15   C17   A    
C34   C49   S    
C56   H40   S    
C31   C32   A    
C47   H22   S    
C4    C5    S    
C2    H1    S    
C22   H6    S    
C31   N1    A    
C48   O14   S    
C10   C23   S    
C54   H36   S    
C33   C38   A    
C55   C56   S    
C32   C33   A    
C5    H24   S    
Cu2   O6    S    
C2    C3    S    
O14   C57   S    
C46   N2    A    
C11   C13   A    
C21   O11   S    
C45   C50   S    
C53   H33   S    
C55   H39   S    
C56   H42   S    
C34   O7    A    
C39   H21   S    
C6    C49   T    
C51   H29   S    
C57   H45   S    
C58   H47   S    
C23   O5    A    
C37   H20   S    
C14   C15   A    
O9    H27   S    
C15   C16   A    
C59   H48   S    
