data_mof_unit_44445.cif
_audit_creation_date              2013-03-05T15:45:30-0500
_audit_creation_method            fapswitch 2.2
_symmetry_space_group_name_H-M    P1
_symmetry_Int_Tables_number       1
_space_group_crystal_system       triclinic
_cell_length_a                    9.846728
_cell_length_b                    11.200255
_cell_length_c                    13.492906
_cell_angle_alpha                 94.841617
_cell_angle_beta                  81.915777
_cell_angle_gamma                 110.717874
_cell_volume                      1377.05169728

loop_
_atom_site_label
_atom_site_type_symbol
_atom_site_description
_atom_site_fract_x
_atom_site_fract_y
_atom_site_fract_z
_atom_type_partial_charge
O1    O     O_R   0.426290 0.668220 0.490680 -0.605414
O2    O     O_R   0.659360 0.703290 0.520190 -0.522591
C1    C     C_R   0.554828 0.743495 0.508675 0.838593
O3    O     O_R   0.326580 0.473880 0.629020 -0.528904
O4    O     O_R   0.559660 0.508940 0.658530 -0.522610
C2    C     C_R   0.420165 0.471129 0.688462 0.838646
Cu1   Cu    Cu3+1 0.362000 0.479240 0.482530 1.068047
Cu2   Cu    Cu3+1 0.638000 0.520760 0.517470 1.137313
O5    O     O_R   0.340640 0.296710 0.479810 -0.546730
O6    O     O_R   0.573710 0.331780 0.509320 -0.521040
O7    O     O_R   0.440340 0.491060 0.341470 -0.554359
O8    O     O_R   0.673420 0.526120 0.370980 -0.575198
C3    C     C_R   0.445563 0.255128 0.492457 0.903822
C4    C     C_R   0.575820 0.508272 0.309749 0.833401
C5    C     C_R   0.801967 0.557196 0.057641 -0.135601
H1    H     H_    0.849818 0.598180 0.209187 0.192616
H2    H     H_    0.836086 0.490907 0.865237 0.220554
H3    H     H_    0.916440 0.585405 0.027727 0.154498
C6    C     C_R   0.616875 0.510045 0.201031 -0.094402
C7    C     C_R   0.222447 0.405589 0.835397 0.419176
C8    C     C_R   0.187753 0.428388 0.937378 -0.170048
C9    C     C_R   0.295855 0.466363 0.001195 -0.174637
C10   C     C_R   0.437247 0.465090 0.967073 0.066231
C11   C     C_R   0.475607 0.448609 0.862981 -0.045664
C12   C     C_R   0.543658 0.483953 0.033421 0.034421
C13   C     C_R   0.692355 0.515835 0.993843 0.033068
C14   C     C_R   0.726931 0.490063 0.892778 -0.159890
C15   C     C_R   0.615696 0.440378 0.831655 0.334735
C16   C     C_R   0.507137 0.460901 0.136276 0.199085
C17   C     C_R   0.764004 0.561304 0.160860 -0.178866
C18   C     C_R   0.371303 0.436689 0.795484 -0.214481
H4    H     H_    0.266251 0.491744 0.078204 0.193906
H5    H     H_    0.075934 0.415179 0.968113 0.191632
H6    H     H_    0.381002 0.869433 0.477856 0.183708
C19   C     C_2   0.585079 0.878906 0.516202 -0.249605
C20   C     C_2   0.488139 0.930326 0.497096 -0.209739
H7    H     H_    0.310072 0.053047 0.480211 0.164617
C21   C     C_2   0.420081 0.117637 0.489714 -0.335991
C22   C     C_2   0.525509 0.069211 0.499700 0.348419
H8    H     H_    0.691516 0.935411 0.537793 0.216803
H9    H     H_    0.145616 0.598242 0.549824 0.204268
N1    N     N_2   0.845330 0.551960 0.543750 0.000240
C23   C     C_2   0.933303 0.504633 0.483891 0.391227
H10   H     H_    0.100172 0.369203 0.414237 0.273898
N2    N     N_2   0.154690 0.448120 0.456210 -0.282759
C24   C     C_2   0.086976 0.521946 0.500589 0.041284
Br1   Br    Br    0.875407 0.409253 0.361193 -0.462343
S1    S     S_3+6 0.918380 0.675230 0.629156 0.106654
O9    O     O_2   0.986195 0.630693 0.704868 -0.287374
O10   O     O_2   0.033486 0.784249 0.574285 -0.315408
O11   O     O_3   0.787761 0.727299 0.690206 -0.481857
H11   H     H_    0.838447 0.795314 0.737843 0.369245
Br2   Br    Br    0.328562 0.321554 0.179463 -0.452272
S2    S     S_3+6 0.076809 0.319611 0.765092 0.044943
O12   O     O_2   0.034367 0.410432 0.711382 -0.242099
O13   O     O_2   0.123129 0.230199 0.689937 -0.260714
O14   O     O_3   0.931284 0.234430 0.842308 -0.519351
H12   H     H_    0.858551 0.183049 0.797493 0.403682
Br3   Br    Br    0.642902 0.316375 0.732231 -0.380674
Br4   Br    Br    0.728656 0.170515 0.513768 -0.378112

loop_
_geom_bond_atom_site_label_1
_geom_bond_atom_site_label_2
_geom_bond_distance
_ccdc_geom_bond_type
C5    H3    1.083918 S    
C10   C11   1.416233 A    
H7    C21   1.087253 S    
Cu2   O8    1.960465 S    
O4    Cu2   1.947432 S    
C9    H4    1.081231 S    
C19   C20   1.338848 D    
C1    C19   1.436003 S    
H9    C24   1.080705 S    
S2    O14   1.682155 S    
S1    O10   1.503697 D    
C19   H8    1.081339 S    
C13   C14   1.389728 A    
C11   C18   1.430958 A    
Cu1   Cu2   2.693241 S    
N1    S1    1.735939 S    
N2    C24   1.296547 D    
C7    C8    1.394832 A    
Cu1   O7    1.947432 S    
C7    S2    1.770617 S    
O14   H12   0.990548 S    
C21   C22   1.356501 D    
C16   Br2   1.947026 S    
O3    Cu1   1.960466 S    
C22   Br4   1.946617 S    
Cu1   N2    2.023413 S    
O3    C2    1.313601 A    
S1    O9    1.500637 D    
C23   C24   1.502991 S    
C3    C21   1.468111 S    
O2    C1    1.292704 A    
H6    C20   1.087901 S    
C10   C12   1.421002 A    
C12   C16   1.405853 A    
O4    C2    1.300165 A    
O7    C4    1.292818 A    
S2    O13   1.503624 D    
S1    O11   1.680626 S    
C8    H5    1.082986 S    
N1    C23   1.318913 D    
H1    C17   1.082758 S    
O11   H11   0.990510 S    
H2    C14   1.083731 S    
O8    C4    1.306005 A    
H10   N2    1.027360 S    
C5    C17   1.391570 A    
Cu2   O6    1.981210 S    
C15   Br3   1.909990 S    
C14   C15   1.390992 A    
Cu1   O5    1.977464 S    
O5    C3    1.310287 A    
S2    O12   1.498313 D    
C5    C13   1.400275 A    
C2    C18   1.494265 S    
O1    Cu1   1.981208 S    
C12   C13   1.413808 A    
C8    C9    1.389617 A    
C6    C17   1.401934 A    
C23   Br1   1.934703 S    
C4    C6    1.465649 S    
O6    C3    1.289317 A    
C20   C22   1.464857 S    
O2    Cu2   1.977462 S    
C9    C10   1.408252 A    
C11   C15   1.417515 A    
Cu2   N1    2.023263 S    
O1    C1    1.291743 A    
C7    C18   1.417098 A    
C6    C16   1.413337 A    
