data_mof_unit_50315.cif
_audit_creation_date              2012-12-10T18:11:47-0500
_audit_creation_method            fapswitch 2.2
_symmetry_space_group_name_H-M    P1
_symmetry_Int_Tables_number       1
_space_group_crystal_system       triclinic
_cell_length_a                    10.521583
_cell_length_b                    12.598292
_cell_length_c                    13.128957
_cell_angle_alpha                 82.209552
_cell_angle_beta                  90.492011
_cell_angle_gamma                 101.90524
_cell_volume                      1686.80824361

loop_
_atom_site_label
_atom_site_type_symbol
_atom_type_description
_atom_site_fract_x
_atom_site_fract_y
_atom_site_fract_z
_atom_type_partial_charge
C1    C     C_R   0.476887 0.438852 0.690967 0.843798
C2    C     C_R   0.438478 0.444153 0.972963 0.120546
C3    C     C_R   0.419985 0.469990 0.867087 0.077866
C4    C     C_R   0.742016 0.500026 0.499616 0.914631
C5    C     C_R   0.452182 0.529639 0.034652 0.035118
C6    C     C_R   0.428919 0.634004 0.993401 -0.009925
C7    C     C_R   0.382420 0.648376 0.893407 -0.135016
C8    C     C_R   0.376879 0.566997 0.831345 -0.194520
C9    C     C_R   0.496090 0.515268 0.134491 -0.297621
C10   C     C_R   0.499966 0.704264 0.153177 0.332578
C11   C     C_R   0.448313 0.399136 0.799931 -0.120895
C12   C     C_3   0.061742 0.592166 0.532341 0.487750
C13   C     C_R   0.315516 0.089792 0.348012 0.316723
C14   C     C_R   0.654987 0.799151 0.628781 0.047578
C15   C     C_R   0.686298 0.903309 0.657360 -0.194640
C16   C     C_R   0.515244 0.561455 0.307931 0.913435
C17   C     C_R   0.626291 0.984749 0.609228 -0.131939
C18   C     C_R   0.533959 0.961865 0.531889 0.046283
C19   C     C_R   0.505181 0.854222 0.506274 0.241752
C20   C     C_R   0.470044 0.041082 0.478730 -0.048074
C21   C     C_R   0.377813 0.011124 0.401909 0.058169
C22   C     C_R   0.350728 0.903751 0.379981 -0.092469
C23   C     C_3   0.958343 0.505494 0.596505 -0.272966
C24   C     C_R   0.414229 0.827257 0.430914 -0.077518
C25   C     C_R   0.494778 0.149882 0.498157 0.006390
C26   C     C_R   0.345464 0.195892 0.371366 -0.037097
C27   C     C_R   0.257933 0.499695 0.501164 0.885454
C28   C     C_3   0.938061 0.407002 0.469735 0.496771
C29   C     C_3   0.021476 0.413015 0.566330 -0.260308
C30   C     C_3   0.123020 0.500523 0.502301 -0.121507
C31   C     C_3   0.041405 0.493662 0.405434 -0.269024
C32   C     C_3   0.978476 0.586273 0.435667 -0.247600
C33   C     C_3   0.876857 0.498764 0.499609 -0.131711
C34   C     C_R   0.456133 0.721913 0.052045 0.342191
C35   C     C_R   0.509018 0.597468 0.196914 -0.208452
C36   C     C_R   0.462102 0.292954 0.839383 -0.186005
C37   C     C_R   0.455978 0.259962 0.944787 -0.078743
C38   C     C_R   0.447265 0.335121 0.011578 -0.161490
Cl1   Cl    Cl    0.201482 0.060409 0.251167 -0.548990
Cl2   Cl    Cl    0.857909 0.282020 0.427384 -0.568716
Cl3   Cl    Cl    0.140322 0.716088 0.577208 -0.621045
Cl4   Cl    Cl    0.553529 0.818091 0.218747 -0.529200
Cl5   Cl    Cl    0.439283 0.855244 0.999172 -0.543551
H1    H     H_    0.521907 0.439258 0.165793 0.193887
H2    H     H_    0.042560 0.342337 0.619038 0.184433
H3    H     H_    0.480203 0.236138 0.788969 0.171960
H4    H     H_    0.464122 0.177340 0.975014 0.201133
H5    H     H_    0.299238 0.258250 0.331332 0.173995
H6    H     H_    0.281772 0.877874 0.322053 0.215504
H7    H     H_    0.701003 0.735239 0.665837 0.152894
H8    H     H_    0.654219 0.064068 0.634315 0.151122
H9    H     H_    0.078796 0.488116 0.327912 0.182940
H10   H     H_    0.445551 0.305134 0.092616 0.156937
H11   H     H_    0.340002 0.581582 0.754663 0.196506
H12   H     H_    0.562342 0.180367 0.554593 0.146893
H13   H     H_    0.756781 0.920919 0.716547 0.176977
H14   H     H_    0.392399 0.747795 0.407524 0.213194
H15   H     H_    0.957655 0.657088 0.383003 0.199245
H16   H     H_    0.920960 0.511043 0.674025 0.179462
H17   H     H_    0.354613 0.723628 0.860756 0.214914
N1    N     N_R   0.432930 0.222190 0.444670 -0.133283
N2    N     N_R   0.566370 0.776980 0.554790 -0.134925
O1    O     O_R   0.467970 0.366730 0.627150 -0.619158
O2    O     O_R   0.510820 0.544830 0.662520 -0.626382
O3    O     O_R   0.664630 0.410960 0.482340 -0.579857
O4    O     O_R   0.707470 0.589060 0.517710 -0.609245
O5    O     O_R   0.489180 0.455170 0.337480 -0.621173
O6    O     O_R   0.532030 0.633270 0.372850 -0.590873
O7    O     O_R   0.292530 0.410940 0.482290 -0.608665
O8    O     O_R   0.335370 0.589040 0.517660 -0.623555
Zn1   Zn    Zn3+2 0.471390 0.381080 0.476380 0.978375
Zn2   Zn    Zn3+2 0.528610 0.618920 0.523620 0.978738

loop_
_geom_bond_atom_site_label_1
_geom_bond_atom_site_label_2
_ccdc_geom_bond_type
C10   Cl4   S    
C1    C11   S    
C32   H15   S    
C31   H9    S    
C17   H8    S    
C7    C8    A    
C23   H16   S    
C12   C23   S    
C29   C30   S    
C5    C6    A    
C23   C29   S    
C36   C37   A    
C26   N1    A    
C16   C35   S    
C4    O3    A    
C20   C25   A    
C28   Cl2   S    
C19   N2    A    
C14   N2    A    
C18   C19   A    
O7    Zn1   S    
O4    Zn2   S    
C24   H14   S    
C23   C33   S    
C36   H3    S    
C10   C35   A    
C16   O6    A    
C37   H4    S    
C18   C20   A    
C27   O7    A    
C26   H5    S    
N1    Zn1   S    
C21   C22   A    
C12   C32   S    
C27   C30   S    
C1    O1    A    
N2    Zn2   S    
C3    C8    A    
C8    H11   S    
O3    Zn1   S    
C6    C34   A    
C29   H2    S    
C11   C36   A    
C5    C9    A    
C37   C38   A    
C2    C38   A    
C31   C32   S    
C30   C31   S    
O6    Zn2   S    
C17   C18   A    
C13   C21   A    
C10   C34   A    
C16   O5    A    
C25   N1    A    
C27   O8    A    
C22   H6    S    
O1    Zn1   S    
C28   C33   S    
C22   C24   A    
C13   C26   A    
C2    C5    A    
C1    O2    A    
C7    H17   S    
C12   Cl3   S    
C15   C17   A    
C4    C33   S    
C28   C29   S    
C9    H1    S    
C12   C30   S    
C28   C31   S    
C34   Cl5   S    
C25   H12   S    
C6    C7    A    
C15   H13   S    
C2    C3    A    
C32   C33   S    
C4    O4    A    
C14   H7    S    
C38   H10   S    
C19   C24   A    
O5    Zn1   S    
O2    Zn2   S    
C13   Cl1   S    
C3    C11   A    
C20   C21   A    
C9    C35   A    
C14   C15   A    
O8    Zn2   S    
