data_mof_unit_30666.cif
_audit_creation_date              2013-03-05T16:15:17-0500
_audit_creation_method            fapswitch 2.2
_symmetry_space_group_name_H-M    P1
_symmetry_Int_Tables_number       1
_space_group_crystal_system       triclinic
_cell_length_a                    27.80075
_cell_length_b                    10.603652
_cell_length_c                    9.424545
_cell_angle_alpha                 89.857167
_cell_angle_beta                  90.10839
_cell_angle_gamma                 89.706058
_cell_volume                      2778.20647139

loop_
_atom_site_label
_atom_site_type_symbol
_atom_site_description
_atom_site_fract_x
_atom_site_fract_y
_atom_site_fract_z
_atom_type_partial_charge
O1    O     O_R   0.500020 0.316850 0.620870 -0.605497
O2    O     O_R   0.499980 0.683150 0.379130 -0.611322
O3    O     O_R   0.500000 0.316860 0.379090 -0.524018
O4    O     O_R   0.500000 0.683140 0.620910 -0.511323
C1    C     C_R   0.500043 0.259600 0.500384 0.854348
C2    C     C_R   0.499598 0.740436 0.499667 0.850285
O5    O     O_R   0.430270 0.500020 0.620880 -0.565344
O6    O     O_R   0.569730 0.499980 0.379120 -0.514144
O7    O     O_R   0.430250 0.500030 0.379090 -0.547915
O8    O     O_R   0.569750 0.499970 0.620910 -0.600321
C3    C     C_R   0.407412 0.501866 0.500106 0.834649
C4    C     C_R   0.592464 0.501102 0.500356 0.829589
Cu1   Cu    Cu3+1 0.500010 0.499990 0.643150 0.994914
Cu2   Cu    Cu3+1 0.499990 0.500010 0.356850 1.015801
C5    C     C_R   0.177701 0.413278 0.557162 0.543345
C6    C     C_R   0.821409 0.641324 0.522656 0.541862
O9    O     O_2   0.202486 0.305015 0.578202 -0.531556
O10   O     O_2   0.796484 0.750010 0.506652 -0.548612
N1    N     N_R   0.201795 0.522434 0.528192 -0.455496
N2    N     N_R   0.797456 0.529223 0.531218 -0.452703
C7    C     C_R   0.177732 0.633577 0.505943 0.536640
C8    C     C_R   0.821687 0.417532 0.548037 0.537373
C9    C     C_R   0.276149 0.534549 0.389048 -0.199584
C10   C     C_R   0.724346 0.469504 0.402723 -0.211704
C11   C     C_R   0.326611 0.531866 0.379531 0.413351
C12   C     C_R   0.674168 0.456188 0.395746 0.401340
C13   C     C_R   0.330551 0.493546 0.634182 -0.261825
C14   C     C_R   0.667523 0.569883 0.618921 -0.292801
C15   C     C_R   0.280654 0.500051 0.642549 -0.125548
C16   C     C_R   0.717435 0.578281 0.627172 -0.125464
C17   C     C_R   0.253294 0.519884 0.520069 0.306639
C18   C     C_R   0.746007 0.527553 0.519435 0.308023
C19   C     C_R   0.101618 0.526065 0.539896 -0.044181
C20   C     C_R   0.897664 0.529396 0.542818 -0.045531
C21   C     C_R   0.127266 0.413053 0.563504 -0.026378
C22   C     C_R   0.871919 0.643483 0.528316 -0.023148
C23   C     C_R   0.102191 0.302380 0.592781 -0.147190
C24   C     C_R   0.897011 0.756873 0.518961 -0.149055
C25   C     C_R   0.127256 0.637505 0.511623 -0.021929
C26   C     C_R   0.872109 0.415523 0.553785 -0.019201
C27   C     C_R   0.354202 0.507874 0.503106 -0.110682
C28   C     C_R   0.645358 0.509375 0.503471 -0.122133
H1    H     H_    0.350612 0.476481 0.730989 0.187124
H2    H     H_    0.646160 0.610957 0.703182 0.186550
H3    H     H_    0.263154 0.488712 0.744330 0.151154
H4    H     H_    0.733949 0.623134 0.718006 0.157450
H5    H     H_    0.121095 0.214636 0.613646 0.187027
H6    H     H_    0.878074 0.846137 0.510203 0.183493
C29   C     C_R   0.974120 0.413142 0.562791 0.043476
C30   C     C_R   0.025190 0.642912 0.522908 0.042397
C31   C     C_R   0.974064 0.644416 0.529316 0.043326
C32   C     C_R   0.025229 0.413124 0.567623 0.042993
C33   C     C_R   0.948831 0.529033 0.545349 0.067736
C34   C     C_R   0.050465 0.527439 0.543770 0.068347
C35   C     C_R   0.947164 0.300517 0.572565 -0.205739
C36   C     C_R   0.052176 0.752929 0.494029 -0.206297
C37   C     C_R   0.897263 0.302016 0.568426 -0.150161
C38   C     C_R   0.102105 0.749999 0.488663 -0.147271
O11   O     O_2   0.796988 0.308684 0.559465 -0.563703
O12   O     O_2   0.202597 0.739967 0.479097 -0.545702
C39   C     C_R   0.052272 0.302201 0.595304 -0.205873
C40   C     C_R   0.946990 0.757659 0.519840 -0.204714
H7    H     H_    0.746697 0.431346 0.319014 0.147439
H8    H     H_    0.254584 0.547343 0.294267 0.146325
H9    H     H_    0.878441 0.212998 0.575694 0.183919
H10   H     H_    0.120954 0.836843 0.465618 0.187379
H11   H     H_    0.963401 0.208419 0.580337 0.134630
H12   H     H_    0.035895 0.843151 0.471834 0.137008
H13   H     H_    0.036104 0.213126 0.621332 0.136815
H14   H     H_    0.963214 0.849481 0.514537 0.134384
C41   C     C_3   0.500684 0.040143 0.636691 -0.269121
C42   C     C_3   0.498233 0.959888 0.363234 -0.297782
C43   C     C_3   0.538706 0.957778 0.562544 0.525149
C44   C     C_3   0.460081 0.042890 0.437508 0.516487
H15   H     H_    0.502559 0.075109 0.747522 0.175759
H16   H     H_    0.497648 0.923021 0.253079 0.171716
C45   C     C_3   0.499029 0.877202 0.498426 -0.099929
C46   C     C_3   0.499961 0.122901 0.501841 -0.106305
C47   C     C_3   0.460177 0.958831 0.570897 -0.239123
C48   C     C_3   0.538742 0.041360 0.428969 -0.278678
H17   H     H_    0.427862 0.922075 0.625934 0.194714
H18   H     H_    0.570700 0.078070 0.372739 0.167949
C49   C     C_3   0.517992 0.603852 0.050648 -0.128362
C50   C     C_3   0.481958 0.396443 0.949109 -0.165866
C51   C     C_3   0.474920 0.591947 0.950141 0.508676
C52   C     C_3   0.524951 0.407922 0.049452 0.523384
H19   H     H_    0.532797 0.691408 0.097612 0.151447
H20   H     H_    0.467228 0.309198 0.901593 0.153035
N3    N     N_3   0.500040 0.499970 0.858290 -0.192301
N4    N     N_3   0.499960 0.500030 0.141710 -0.196982
C53   C     C_3   0.543390 0.510573 0.949453 -0.118976
C54   C     C_3   0.456654 0.489228 0.050269 -0.171166
H21   H     H_    0.579946 0.518452 0.903259 0.152416
H22   H     H_    0.420255 0.478575 0.095770 0.198198
Cl1   Cl    Cl    0.439176 0.716843 0.880080 -0.703670
Cl2   Cl    Cl    0.557683 0.276160 0.115538 -0.678614
O13   O     O_3   0.653206 0.393968 0.282596 -0.573305
C55   C     C_3   0.667587 0.265368 0.280626 0.081392
H23   H     H_    0.635472 0.207224 0.303148 0.184324
H24   H     H_    0.695084 0.238440 0.361867 0.127769
C56   C     C_3   0.687066 0.231967 0.133731 -0.299957
H25   H     H_    0.660645 0.260299 0.050847 0.263511
H26   H     H_    0.720936 0.284478 0.114614 0.206580
C57   C     C_3   0.697023 0.090753 0.121240 -0.897063
H27   H     H_    0.723811 0.060361 0.202172 0.266734
H28   H     H_    0.711605 0.069581 0.014305 0.254819
H29   H     H_    0.663272 0.036682 0.136168 0.262763
O14   O     O_3   0.348859 0.541946 0.248664 -0.614805
C58   C     C_3   0.339204 0.660332 0.184139 0.030943
H30   H     H_    0.373948 0.710692 0.172434 0.180070
H31   H     H_    0.315004 0.723813 0.246376 0.140297
C59   C     C_3   0.317766 0.638841 0.036623 -0.330230
H32   H     H_    0.343488 0.582990 0.971792 0.240014
H33   H     H_    0.283914 0.584268 0.046218 0.210844
C60   C     C_3   0.306984 0.763276 0.961091 -0.838765
H34   H     H_    0.279918 0.818574 0.021575 0.251061
H35   H     H_    0.292401 0.743966 0.853577 0.266393
H36   H     H_    0.340280 0.819715 0.950013 0.282287
O15   O     O_3   0.579457 0.903345 0.628491 -0.609368
C61   C     C_3   0.611808 0.997926 0.673352 0.052173
H37   H     H_    0.621415 0.978349 0.785798 0.178967
H38   H     H_    0.596736 0.095769 0.670322 0.130044
C62   C     C_3   0.657568 0.991696 0.583677 -0.373461
H39   H     H_    0.673982 0.896207 0.593362 0.252111
H40   H     H_    0.648442 0.008291 0.470360 0.207223
C63   C     C_3   0.694074 0.090072 0.631147 -0.842614
H41   H     H_    0.678535 0.186485 0.621525 0.245253
H42   H     H_    0.726585 0.083996 0.563186 0.285180
H43   H     H_    0.704895 0.072896 0.743022 0.257735
O16   O     O_3   0.417832 0.101155 0.384383 -0.609499
C64   C     C_3   0.402462 0.044916 0.256676 0.064999
H44   H     H_    0.362606 0.052420 0.252883 0.178418
H45   H     H_    0.410859 0.942133 0.250562 0.118502
C65   C     C_3   0.422949 0.117076 0.129464 -0.340790
H46   H     H_    0.412093 0.217916 0.136523 0.238686
H47   H     H_    0.462853 0.112212 0.130997 0.249283
C66   C     C_3   0.404698 0.062977 0.989706 -0.899680
H48   H     H_    0.415911 0.962948 0.979998 0.298255
H49   H     H_    0.420025 0.116527 0.899315 0.256590
H50   H     H_    0.364847 0.069464 0.984253 0.261192

loop_
_geom_bond_atom_site_label_1
_geom_bond_atom_site_label_2
_geom_bond_distance
_ccdc_geom_bond_type
C49   H19   1.110199 S    
C56   H25   1.111016 S    
C43   O15   1.411295 S    
C13   C15   1.390950 A    
C42   H16   1.110355 S    
C64   C65   1.532887 S    
N1    C17   1.433999 S    
C65   C66   1.525003 S    
C41   C47   1.551132 S    
O13   C55   1.419245 S    
C62   H39   1.111947 S    
C5    N1    1.367488 A    
C66   H49   1.109578 S    
C63   H41   1.111237 S    
O1    C1    1.288942 A    
N1    C7    1.367689 A    
C10   C12   1.404266 A    
C32   C39   1.416104 A    
C58   H31   1.117405 S    
C46   C48   1.542012 S    
C62   H40   1.110613 S    
C60   H34   1.110733 S    
O14   C58   1.417684 S    
C40   H14   1.076233 S    
C14   C28   1.407207 A    
O4    Cu1   1.952816 S    
C59   H32   1.111087 S    
C4    C28   1.473814 S    
C38   H10   1.083577 S    
Cu2   N4    2.027596 S    
C61   H38   1.117189 S    
C60   H35   1.110564 S    
O6    Cu2   1.949755 S    
C23   H5    1.083605 S    
C24   H6    1.083609 S    
C61   C62   1.529885 S    
C6    N2    1.367758 A    
C41   C46   1.542666 S    
Cu1   N3    2.027596 S    
C29   C32   1.421531 A    
C56   H26   1.111154 S    
Cu1   Cu2   2.698245 S    
O2    C2    1.289586 A    
C31   C40   1.416464 A    
C5    C21   1.403537 A    
C57   H27   1.111035 S    
C51   C54   1.528752 S    
C32   C34   1.421281 A    
C45   C47   1.542242 S    
C66   H50   1.110754 S    
C16   C18   1.397371 A    
C59   C60   1.525787 S    
C7    O12   1.349736 S    
C42   C44   1.544647 S    
C52   N4    1.480602 S    
C58   C59   1.529657 S    
C11   C27   1.415125 A    
C8    O11   1.350199 S    
C47   H17   1.110136 S    
C51   N3    1.479107 S    
C2    C45   1.450238 S    
C65   H47   1.110357 S    
C63   H43   1.110248 S    
O3    C1    1.293037 A    
C36   H12   1.076132 S    
C25   C38   1.395775 A    
C14   H2    1.083470 S    
C30   C36   1.416334 A    
C62   C63   1.526352 S    
C15   H3    1.083085 S    
C31   C33   1.421320 A    
C9    C17   1.398459 A    
O5    C3    1.302625 A    
O7    Cu2   1.950514 S    
C10   C18   1.398601 A    
C42   C45   1.544904 S    
C53   H21   1.109824 S    
C13   C27   1.408761 A    
N4    C54   1.484332 S    
C7    C25   1.404801 A    
O6    C4    1.304807 A    
C60   H36   1.109768 S    
C8    C26   1.402772 A    
C54   H22   1.105991 S    
C30   C31   1.422725 A    
C6    O10   1.349680 S    
C19   C25   1.408241 A    
C52   Cl2   1.774387 S    
O7    C3    1.306522 A    
C65   H46   1.111745 S    
O3    Cu2   1.952815 S    
O8    C4    1.300953 A    
C59   H33   1.111038 S    
C48   H18   1.107273 S    
C9    H8    1.082725 S    
C49   C51   1.531295 S    
N2    C8    1.368225 A    
C56   C57   1.526239 S    
C55   H24   1.116499 S    
C44   C47   1.539225 S    
C44   O16   1.414474 S    
C20   C26   1.407778 A    
O4    C2    1.292803 A    
N3    C53   1.483630 S    
C50   N3    1.480880 S    
C64   H44   1.110957 S    
C30   C34   1.421651 A    
C61   H37   1.111201 S    
C12   C28   1.411244 A    
C41   C43   1.537803 S    
N2    C18   1.434628 S    
C39   H13   1.076070 S    
C19   C34   1.422633 A    
C5    O9    1.349880 S    
C49   N4    1.484041 S    
C63   H42   1.110469 S    
C26   C37   1.395287 A    
C21   C23   1.395261 A    
C16   H4    1.082875 S    
C50   H20   1.108749 S    
C37   H9    1.083671 S    
C64   H45   1.115086 S    
O8    Cu1   1.950514 S    
C35   H11   1.076023 S    
O15   C61   1.415402 S    
C57   H28   1.110032 S    
C10   H7    1.083083 S    
C55   C56   1.529249 S    
C49   C53   1.544836 S    
C66   H48   1.108047 S    
C52   C53   1.529120 S    
C35   C37   1.387768 A    
O16   C64   1.411048 S    
C23   C39   1.388059 A    
C15   C17   1.396094 A    
C29   C35   1.416038 A    
C58   H30   1.111607 S    
C6    C22   1.405414 A    
C22   C24   1.395842 A    
C41   H15   1.110473 S    
C51   Cl1   1.776801 S    
C29   C33   1.421658 A    
C14   C16   1.392945 A    
C19   C21   1.408272 A    
C43   C48   1.537772 S    
C36   C38   1.389274 A    
C3    C27   1.480652 S    
C20   C22   1.408672 A    
C9    C11   1.406073 A    
O2    Cu2   1.953791 S    
C12   O13   1.384628 S    
C13   H1    1.082774 S    
O5    Cu1   1.949755 S    
O1    Cu1   1.953792 S    
C20   C33   1.422613 A    
C42   C48   1.551889 S    
C55   H23   1.108158 S    
C44   C46   1.525217 S    
C43   C45   1.523678 S    
C50   C52   1.528254 S    
C50   C54   1.540094 S    
C1    C46   1.449558 S    
C57   H29   1.111119 S    
C11   O14   1.384933 S    
C24   C40   1.389522 A    
