data_mof_unit_26754.cif
_audit_creation_date              2012-12-10T18:57:12-0500
_audit_creation_method            fapswitch 2.2
_symmetry_space_group_name_H-M    P1
_symmetry_Int_Tables_number       1
_space_group_crystal_system       triclinic
_cell_length_a                    8.776938
_cell_length_b                    10.823157
_cell_length_c                    9.545562
_cell_angle_alpha                 90.105881
_cell_angle_beta                  97.741347
_cell_angle_gamma                 90.218671
_cell_volume                      898.499619446

loop_
_atom_site_label
_atom_site_type_symbol
_atom_type_description
_atom_site_fract_x
_atom_site_fract_y
_atom_site_fract_z
_atom_type_partial_charge
C1    C     C_R   0.496826 0.262337 0.499458 0.793391
C2    C     C_R   0.461655 0.935260 0.368527 -0.220507
C3    C     C_R   0.482318 0.870819 0.497503 -0.094829
C4    C     C_R   0.480744 0.936728 0.623067 0.135902
C5    C     C_3   0.588629 0.931581 0.757995 -0.480777
C6    C     C_3   0.586790 0.071792 0.758225 -0.461285
C7    C     C_R   0.569063 0.593940 0.082336 0.256034
C8    C     C_R   0.418798 0.414373 0.064188 -0.082928
C9    C     C_R   0.418690 0.414420 0.915281 -0.068575
C10   C     C_R   0.569534 0.593657 0.934996 0.266224
C11   C     C_3   0.735331 0.628726 0.950164 -0.521138
C12   C     C_R   0.204108 0.500706 0.464570 0.895803
C13   C     C_3   0.734442 0.630024 0.108813 -0.498221
C14   C     C_R   0.497463 0.737711 0.499687 0.794205
C15   C     C_R   0.795603 0.502449 0.536343 0.821904
C16   C     C_2   0.038753 0.497816 0.447913 -0.368320
C17   C     C_2   0.960533 0.511942 0.558759 -0.026857
C18   C     C_R   0.479831 0.063912 0.622872 0.118508
C19   C     C_R   0.481156 0.129240 0.497158 -0.093817
C20   C     C_R   0.461083 0.064096 0.368354 -0.221755
Cu1   Cu    Cu3+1 0.499990 0.499980 0.640670 0.948201
Cu2   Cu    Cu3+1 0.500010 0.500020 0.359330 0.935329
H1    H     H_    0.980163 0.479314 0.342550 0.133085
H2    H     H_    0.355171 0.343765 0.851493 0.138328
H3    H     H_    0.808669 0.554380 0.915229 0.214931
H4    H     H_    0.754150 0.721500 0.906239 0.189122
H5    H     H_    0.807829 0.556823 0.163144 0.215831
H6    H     H_    0.751234 0.723740 0.156365 0.194510
H7    H     H_    0.452529 0.111991 0.268080 0.159572
H8    H     H_    0.453379 0.886894 0.268322 0.163703
H9    H     H_    0.533985 0.890349 0.845585 0.196915
H10   H     H_    0.702426 0.892603 0.743217 0.189714
H11   H     H_    0.530161 0.111517 0.845403 0.192844
H12   H     H_    0.699631 0.113984 0.744719 0.198346
H13   H     H_    0.355452 0.343629 0.111970 0.133818
N1    N     N_R   0.500980 0.500930 0.148050 -0.185092
N2    N     N_R   0.500990 0.500890 0.852140 -0.184108
O1    O     O_R   0.500000 0.319640 0.618810 -0.587689
O2    O     O_R   0.500020 0.319680 0.381230 -0.590725
O3    O     O_R   0.274830 0.499980 0.591380 -0.534823
O4    O     O_R   0.274850 0.500020 0.353800 -0.598193
O5    O     O_R   0.499980 0.680320 0.618770 -0.579097
O6    O     O_R   0.500000 0.680360 0.381190 -0.588234
O7    O     O_R   0.725150 0.499980 0.646200 -0.592803
O8    O     O_R   0.725170 0.500020 0.408620 -0.587734
N3    N     N_3   0.035349 0.539507 0.699081 -0.544411
H14   H     H_    0.009315 0.469067 0.766929 0.214949
H15   H     H_    0.990888 0.622383 0.732458 0.210750

loop_
_geom_bond_atom_site_label_1
_geom_bond_atom_site_label_2
_ccdc_geom_bond_type
C12   O3    A    
C7    C10   A    
C13   H6    S    
C12   O4    A    
Cu1   O7    S    
Cu2   N1    S    
C7    N1    A    
C19   C20   A    
C6    H11   S    
C2    H8    S    
C14   O5    A    
C5    H10   S    
C4    C18   A    
C9    N2    A    
C2    C3    A    
C9    H2    S    
Cu1   Cu2   S    
C4    C5    S    
C11   C13   S    
C16   C17   D    
C3    C14   S    
C1    O1    A    
C10   N2    A    
Cu2   O2    S    
C15   O7    A    
C16   H1    S    
C20   H7    S    
C5    C6    S    
C6    C18   S    
N3    H15   S    
C1    C19   S    
Cu2   O4    S    
C10   C11   S    
C1    O2    A    
C2    C20   A    
C3    C4    A    
C12   C16   S    
C7    C13   S    
Cu2   O8    S    
Cu1   N2    S    
C17   N3    S    
C18   C19   A    
C8    N1    A    
C15   C17   S    
C11   H3    S    
N3    H14   S    
C8    C9    A    
Cu1   O5    S    
C11   H4    S    
C8    H13   S    
Cu2   O6    S    
C13   H5    S    
Cu1   O1    S    
C6    H12   S    
C14   O6    A    
C5    H9    S    
C15   O8    A    
Cu1   O3    S    
