data_mof_unit_25793.cif
_audit_creation_date              2012-12-10T16:57:03-0500
_audit_creation_method            fapswitch 2.2
_symmetry_space_group_name_H-M    P1
_symmetry_Int_Tables_number       1
_space_group_crystal_system       triclinic
_cell_length_a                    7.883095
_cell_length_b                    8.549292
_cell_length_c                    16.691091
_cell_angle_alpha                 93.826402
_cell_angle_beta                  78.01685
_cell_angle_gamma                 94.104247
_cell_volume                      1096.00696984

loop_
_atom_site_label
_atom_site_type_symbol
_atom_type_description
_atom_site_fract_x
_atom_site_fract_y
_atom_site_fract_z
_atom_type_partial_charge
C1    C     C_R   0.545921 0.794497 0.498248 0.963844
C2    C     C_R   0.394569 0.522504 0.225963 -0.182565
C3    C     C_R   0.459416 0.273788 0.837372 -0.120795
C4    C     C_R   0.379325 0.481966 0.146069 -0.112624
C5    C     C_R   0.350689 0.361767 0.898093 0.138245
C6    C     C_R   0.505893 0.394780 0.094366 0.152929
C7    C     C_R   0.281150 0.497032 0.878843 -0.179260
C8    C     C_R   0.655735 0.363198 0.120809 -0.193758
C9    C     C_R   0.326965 0.549822 0.799787 0.152624
C10   C     C_R   0.674099 0.405723 0.200633 0.163847
C11   C     C_2   0.343509 0.338248 0.984089 -0.207903
C12   C     C_R   0.453970 0.205546 0.502236 0.954035
C13   C     C_2   0.494092 0.349583 0.009676 -0.196569
C14   C     C_2   0.569721 0.958418 0.497640 -0.350086
C15   C     C_2   0.429929 0.041715 0.503714 -0.342705
C16   C     C_R   0.472945 0.500950 0.654302 0.881541
C17   C     C_R   0.525995 0.496074 0.344903 0.873069
C18   C     C_R   0.440827 0.463881 0.739508 -0.070115
C19   C     C_R   0.537681 0.479114 0.255744 -0.098640
C20   C     C_R   0.504554 0.325001 0.758341 -0.212377
H1    H     H_    0.587854 0.255380 0.711607 0.170656
H2    H     H_    0.298008 0.990242 0.509444 0.205021
H3    H     H_    0.290900 0.584926 0.265147 0.190693
H4    H     H_    0.615945 0.341616 0.965204 0.162036
H5    H     H_    0.220030 0.348262 0.026730 0.168638
H6    H     H_    0.201580 0.567574 0.926593 0.157223
H7    H     H_    0.758478 0.303686 0.079204 0.154227
H8    H     H_    0.268570 0.520010 0.125347 0.153481
H9    H     H_    0.514938 0.169734 0.852192 0.162450
H10   H     H_    0.701580 0.009879 0.492058 0.203888
I1    I     I_    0.912406 0.350704 0.226976 -0.367134
I2    I     I_    0.235137 0.767459 0.778031 -0.339654
I3    I     I_    0.045657 0.254585 0.414577 -0.193165
I4    I     I_    0.947038 0.730677 0.597074 -0.188353
N1    N     N_2   0.953500 0.457650 0.478520 0.030503
N2    N     N_2   0.046500 0.542350 0.521480 0.025265
O1    O     O_R   0.388470 0.738640 0.505270 -0.602524
O2    O     O_R   0.611530 0.261360 0.494730 -0.605261
O3    O     O_R   0.679650 0.711510 0.491500 -0.604850
O4    O     O_R   0.320350 0.288490 0.508500 -0.603266
O5    O     O_R   0.337210 0.515200 0.623500 -0.586021
O6    O     O_R   0.662790 0.484800 0.376500 -0.578560
O7    O     O_R   0.628380 0.488060 0.609730 -0.606360
O8    O     O_R   0.371620 0.511940 0.390270 -0.610794
Zn1   Zn    Zn3+2 0.305580 0.518120 0.509190 1.044346
Zn2   Zn    Zn3+2 0.694420 0.481880 0.490810 1.044780

loop_
_geom_bond_atom_site_label_1
_geom_bond_atom_site_label_2
_ccdc_geom_bond_type
C12   O4    A    
C2    C4    A    
I4    N2    S    
N1    N2    D    
C12   C15   S    
C1    O1    A    
C10   C19   A    
C17   O8    A    
N2    Zn1   S    
C20   H1    S    
C6    C13   S    
C11   C13   D    
C16   O7    A    
C3    H9    S    
C7    H6    S    
C14   H10   S    
O3    Zn2   S    
C10   I1    S    
C16   C18   S    
C4    H8    S    
C5    C11   S    
C18   C20   A    
C15   H2    S    
C12   O2    A    
O4    Zn1   S    
I3    N1    S    
O7    Zn2   S    
O2    Zn2   S    
C1    O3    A    
O1    Zn1   S    
C11   H5    S    
C7    C9    A    
C9    C18   A    
C3    C20   A    
O8    Zn1   S    
C4    C6    A    
O6    Zn2   S    
C2    H3    S    
C5    C7    A    
C8    H7    S    
O5    Zn1   S    
C14   C15   D    
C6    C8    A    
C1    C14   S    
C9    I2    S    
C17   C19   S    
C2    C19   A    
C17   O6    A    
N1    Zn2   S    
C16   O5    A    
C8    C10   A    
C13   H4    S    
C3    C5    A    
