data_mof_unit_22689.cif
_audit_creation_date              2012-12-10T17:03:58-0500
_audit_creation_method            fapswitch 2.2
_symmetry_space_group_name_H-M    P1
_symmetry_Int_Tables_number       1
_space_group_crystal_system       triclinic
_cell_length_a                    9.813059
_cell_length_b                    11.125076
_cell_length_c                    15.775748
_cell_angle_alpha                 94.689639
_cell_angle_beta                  79.811453
_cell_angle_gamma                 111.282197
_cell_volume                      1579.20827159

loop_
_atom_site_label
_atom_site_type_symbol
_atom_type_description
_atom_site_fract_x
_atom_site_fract_y
_atom_site_fract_z
_atom_type_partial_charge
C1    C     C_R   0.556481 0.744941 0.504904 0.853144
C2    C     C_2   0.510011 0.067669 0.510745 0.400817
C3    C     C_2   0.916085 0.479083 0.501967 0.085767
C4    C     C_2   0.079441 0.513262 0.504732 0.137618
C5    C     C_R   0.410679 0.481211 0.663189 0.807718
C6    C     C_R   0.589203 0.515711 0.337304 0.924712
C7    C     C_R   0.356386 0.465729 0.757575 -0.280455
C8    C     C_R   0.647236 0.540338 0.245120 -0.236073
C9    C     C_R   0.154490 0.423471 0.880986 0.382966
C10   C     C_R   0.827453 0.679431 0.134290 0.420268
C11   C     C_R   0.203428 0.431598 0.790912 0.373927
C12   C     C_R   0.443616 0.255046 0.494931 0.871285
C13   C     C_R   0.786921 0.636593 0.219449 0.351081
C14   C     C_R   0.456697 0.481472 0.815625 -0.128304
C15   C     C_R   0.555321 0.479212 0.183379 -0.123001
C16   C     C_R   0.411402 0.494412 0.904605 -0.005874
C17   C     C_R   0.581130 0.540340 0.103977 -0.067723
C18   C     C_R   0.258703 0.452296 0.937648 -0.020760
C19   C     C_R   0.723291 0.634178 0.076973 -0.030378
C20   C     C_R   0.515540 0.542995 0.962202 0.163292
C21   C     C_R   0.471169 0.511025 0.049873 0.118679
C22   C     C_2   0.456574 0.340969 0.193985 0.337423
C23   C     C_R   0.318102 0.463284 0.082038 -0.280450
C24   C     C_2   0.594128 0.451680 0.788156 0.380333
C25   C     C_3   0.976342 0.632106 0.282930 -0.202081
C26   C     C_3   0.048677 0.269373 0.718505 -0.223544
C27   C     C_3   0.940715 0.468992 0.900499 -0.226416
C28   C     C_3   0.067444 0.728013 0.066405 -0.321553
C29   C     C_3   0.588586 0.143567 0.638500 -0.259832
C30   C     C_3   0.414277 0.857541 0.359902 -0.262000
C31   C     C_3   0.140507 0.315531 0.348685 -0.087765
C32   C     C_3   0.896137 0.709861 0.634788 -0.164050
C33   C     C_R   0.658676 0.632328 0.935617 -0.243988
C34   C     C_R   0.213592 0.438912 0.027074 -0.159324
C35   C     C_R   0.758127 0.681830 0.993323 -0.181271
C36   C     C_2   0.585536 0.882590 0.510342 -0.408071
C37   C     C_2   0.414786 0.117395 0.489228 -0.407431
C38   C     C_2   0.490880 0.932452 0.488243 0.407545
Cu1   Cu    Cu3+1 0.362980 0.479380 0.485080 1.006703
Cu2   Cu    Cu3+1 0.637020 0.520620 0.514920 1.005501
H1    H     H_    0.097366 0.406642 0.054810 0.183126
H2    H     H_    0.687058 0.514366 0.745754 0.073326
H3    H     H_    0.919661 0.525305 0.285371 0.131351
H4    H     H_    0.026079 0.663336 0.342591 0.199149
H5    H     H_    0.068272 0.657449 0.227819 0.141859
H6    H     H_    0.140849 0.235504 0.689699 0.139792
H7    H     H_    0.971641 0.248017 0.670994 0.189636
H8    H     H_    0.986168 0.214583 0.777638 0.179162
H9    H     H_    0.900464 0.450039 0.837572 0.230929
H10   H     H_    0.017101 0.570955 0.904338 0.105805
H11   H     H_    0.842985 0.456641 0.951210 0.198822
H12   H     H_    0.863570 0.755547 0.971091 0.177289
H13   H     H_    0.036536 0.621570 0.071442 0.132871
H14   H     H_    0.173139 0.775096 0.091898 0.196823
H15   H     H_    0.089585 0.753413 0.997589 0.162237
H16   H     H_    0.686210 0.203354 0.668486 0.209401
H17   H     H_    0.549586 0.044491 0.664281 0.134970
H18   H     H_    0.501459 0.186909 0.657755 0.169267
H19   H     H_    0.453220 0.956840 0.334494 0.169260
H20   H     H_    0.317386 0.797807 0.329288 0.177960
H21   H     H_    0.501830 0.814629 0.340906 0.159370
H22   H     H_    0.229823 0.277323 0.348741 0.224077
H23   H     H_    0.278411 0.451528 0.150445 0.128462
H24   H     H_    0.181507 0.406061 0.311326 0.108086
H25   H     H_    0.055057 0.242666 0.315316 0.135766
H26   H     H_    0.779580 0.704619 0.652143 0.169098
H27   H     H_    0.968094 0.811147 0.645505 0.143669
H28   H     H_    0.921310 0.648302 0.677348 0.114607
H29   H     H_    0.691336 0.671065 0.871383 0.120357
H30   H     H_    0.316560 0.056504 0.463021 0.179866
H31   H     H_    0.683452 0.943367 0.536879 0.170097
H32   H     H_    0.135521 0.597205 0.542195 0.156892
H33   H     H_    0.856215 0.389194 0.471303 0.172710
H34   H     H_    0.384735 0.291619 0.147515 0.104528
N1    N     N_2   0.842890 0.551600 0.537350 -0.014830
N2    N     N_2   0.157110 0.448400 0.462650 -0.021816
O1    O     O_R   0.426810 0.668300 0.492040 -0.554280
O2    O     O_2   0.605168 0.357049 0.816115 -0.567800
O3    O     O_3   0.878689 0.698072 0.279269 -0.528997
O4    O     O_3   0.100513 0.403506 0.735699 -0.575096
O5    O     O_3   0.004580 0.378521 0.914160 -0.587114
O6    O     O_3   0.961639 0.778500 0.111882 -0.544684
O7    O     O_3   0.631888 0.143655 0.548304 -0.580327
O8    O     O_3   0.369722 0.856619 0.450022 -0.574090
O9    O     O_3   0.075895 0.331321 0.433585 -0.513895
O10   O     O_3   0.928397 0.676170 0.547856 -0.478008
O11   O     O_R   0.573190 0.331700 0.507960 -0.550210
O12   O     O_R   0.658240 0.703130 0.517240 -0.546616
O13   O     O_R   0.341760 0.296870 0.482760 -0.563909
O14   O     O_R   0.319390 0.472820 0.610170 -0.536213
O15   O     O_R   0.680610 0.527180 0.389830 -0.558591
O16   O     O_R   0.550820 0.507640 0.635370 -0.624777
O17   O     O_R   0.449180 0.492360 0.364630 -0.598067
O18   O     O_2   0.463188 0.276659 0.251227 -0.579738

loop_
_geom_bond_atom_site_label_1
_geom_bond_atom_site_label_2
_ccdc_geom_bond_type
C13   O3    S    
C8    C13   A    
C31   O9    S    
C24   H2    S    
C25   H3    S    
C7    C11   A    
Cu1   O1    S    
Cu2   O11   S    
C29   O7    S    
C6    O15   A    
C1    O1    A    
C31   H25   S    
C14   C24   S    
C12   C37   S    
Cu1   O17   S    
C17   C19   A    
C15   C22   S    
C30   H20   S    
C3    N1    D    
Cu1   O14   S    
C5    O14   A    
C36   H31   S    
C26   H8    S    
C32   H28   S    
C6    O17   A    
C1    O12   A    
C23   H23   S    
C37   H30   S    
C22   O18   D    
C31   H22   S    
C2    O7    S    
C34   H1    S    
C25   H4    S    
C28   H15   S    
C27   H11   S    
C7    C14   A    
C28   O6    S    
C12   O13   A    
C27   O5    S    
Cu1   Cu2   S    
C5    C7    S    
C28   H14   S    
C6    C8    S    
C10   O6    S    
C26   O4    S    
C18   C34   A    
C2    C38   S    
N1    O10   S    
C10   C19   A    
C16   C20   A    
C23   C34   A    
C32   O10   S    
C30   H19   S    
Cu1   N2    S    
Cu2   O16   S    
C9    C11   A    
C26   H7    S    
C32   H27   S    
C20   C33   A    
C24   O2    D    
C29   H17   S    
C8    C15   A    
C21   C23   A    
C14   C16   A    
C22   H34   S    
C3    C4    S    
C25   H5    S    
C4    H32   S    
C29   H18   S    
C32   H26   S    
C15   C17   A    
C12   O11   A    
C38   O8    S    
C25   O3    S    
C31   H24   S    
C10   C13   A    
C28   H13   S    
C27   H10   S    
C29   H16   S    
C33   H29   S    
Cu2   N1    S    
Cu2   O12   S    
C36   C38   D    
C19   C35   A    
C2    C37   D    
C33   C35   A    
Cu2   O15   S    
C30   O8    S    
C3    H33   S    
C17   C21   A    
C4    N2    D    
C5    O16   A    
C11   O4    S    
C26   H6    S    
C9    C18   A    
C20   C21   A    
C16   C18   A    
C30   H21   S    
C35   H12   S    
N2    O9    S    
Cu1   O13   S    
C27   H9    S    
C1    C36   S    
C9    O5    S    
