data_mof_unit_31695.cif
_audit_creation_date              2012-12-10T19:45:48-0500
_audit_creation_method            fapswitch 2.2
_symmetry_space_group_name_H-M    P1
_symmetry_Int_Tables_number       1
_space_group_crystal_system       triclinic
_cell_length_a                    10.838614
_cell_length_b                    14.774244
_cell_length_c                    14.892372
_cell_angle_alpha                 64.579358
_cell_angle_beta                  101.732261
_cell_angle_gamma                 101.056591
_cell_volume                      2094.08860457

loop_
_atom_site_label
_atom_site_type_symbol
_atom_type_description
_atom_site_fract_x
_atom_site_fract_y
_atom_site_fract_z
_atom_type_partial_charge
C1    C     C_R   0.479011 0.119630 0.312690 0.798339
C2    C     C_R   0.521602 0.880335 0.687176 0.797356
C3    C     C_R   0.869573 0.996390 0.498989 -0.076573
C4    C     C_R   0.129645 0.003944 0.500589 -0.102171
C5    C     C_R   0.912319 0.967167 0.433433 0.070536
C6    C     C_R   0.086654 0.034960 0.564808 0.046128
C7    C     C_R   0.470454 0.186755 0.204497 -0.167223
C8    C     C_R   0.531361 0.813055 0.795049 -0.185667
C9    C     C_R   0.456953 0.220225 0.028544 -0.295110
C10   C     C_R   0.544174 0.781235 0.970350 -0.264098
C11   C     C_R   0.458351 0.149670 0.129375 0.446873
C12   C     C_R   0.544247 0.849672 0.870195 0.422328
C13   C     C_R   0.476868 0.290397 0.177271 -0.248095
C14   C     C_R   0.524168 0.709260 0.822944 -0.230205
C15   C     C_R   0.485958 0.360764 0.078334 0.048608
C16   C     C_R   0.514644 0.639696 0.922400 0.054813
C17   C     C_R   0.465206 0.324167 0.002580 -0.064399
C18   C     C_R   0.534612 0.676998 0.997550 -0.083055
C19   C     C_R   0.510485 0.466680 0.052119 -0.183269
C20   C     C_R   0.489364 0.533953 0.949353 -0.181546
C21   C     C_R   0.439629 0.492994 0.877116 0.360883
C22   C     C_R   0.557672 0.508161 0.124585 0.369432
C23   C     C_R   0.263412 0.001169 0.501056 0.778891
C24   C     C_R   0.736306 0.999051 0.498596 0.781080
C25   C     C_R   0.445441 0.391554 0.901635 0.390421
C26   C     C_R   0.551122 0.610038 0.098798 0.386267
C27   C     C_R   0.744108 0.299741 0.631655 -0.328833
C28   C     C_R   0.255477 0.698751 0.370907 -0.356489
C29   C     C_R   0.698980 0.212274 0.616081 0.094325
C30   C     C_R   0.300232 0.786627 0.385512 0.086349
C31   C     C_R   0.511475 0.281720 0.518349 0.036679
C32   C     C_R   0.490456 0.719406 0.480547 0.041579
C33   C     C_R   0.551775 0.373089 0.531525 -0.023110
C34   C     C_R   0.450638 0.627681 0.468262 -0.012166
C35   C     C_R   0.671215 0.380453 0.589447 0.129657
C36   C     C_R   0.330012 0.619119 0.412054 0.139989
C37   C     C_R   0.478262 0.456282 0.490434 0.111994
C38   C     C_R   0.525097 0.544957 0.509093 0.110513
C39   C     C_R   0.644506 0.547782 0.567750 -0.150739
C40   C     C_R   0.358968 0.453265 0.432132 -0.144454
C41   C     C_R   0.716317 0.467563 0.606178 -0.242248
C42   C     C_R   0.285433 0.532042 0.395492 -0.219624
C43   C     C_R   0.305228 0.058714 0.785053 -0.169430
C44   C     C_R   0.723180 0.958471 0.195815 -0.155111
C45   C     C_R   0.237709 0.019060 0.717420 -0.166707
C46   C     C_R   0.784552 0.995178 0.267504 -0.209085
C47   C     C_R   0.171970 0.081518 0.627129 -0.046891
C48   C     C_R   0.827716 0.927976 0.364541 -0.026007
C49   C     C_R   0.176275 0.186014 0.602950 0.418684
C50   C     C_R   0.807889 0.823279 0.390222 0.444227
C51   C     C_R   0.245511 0.224542 0.672138 0.419937
C52   C     C_R   0.749025 0.787128 0.317100 0.416854
C53   C     C_R   0.310823 0.161047 0.761888 -0.322135
C54   C     C_R   0.706580 0.854940 0.220230 -0.318530
C55   C     C_R   0.957337 0.029547 0.564364 -0.207627
C56   C     C_R   0.041863 0.972989 0.433754 -0.272260
Cu1   Cu    Cu3+1 0.466270 0.918260 0.475690 0.967747
Cu2   Cu    Cu3+1 0.533730 0.081740 0.524310 0.950991
H1    H     H_    0.363406 0.189996 0.815334 0.199915
H2    H     H_    0.661361 0.827420 0.163939 0.188686
H3    H     H_    0.449506 0.194673 0.969671 0.151703
H4    H     H_    0.551468 0.810755 0.026349 0.170908
H5    H     H_    0.807247 0.473102 0.651213 0.136118
H6    H     H_    0.193902 0.525687 0.351441 0.131902
H7    H     H_    0.578878 0.731924 0.524096 0.142500
H8    H     H_    0.424505 0.270273 0.473108 0.110053
H9    H     H_    0.241812 0.847574 0.355065 0.122424
H10   H     H_    0.756314 0.150602 0.647495 0.124875
H11   H     H_    0.835368 0.304224 0.676509 0.130559
H12   H     H_    0.163083 0.693032 0.327826 0.130364
H13   H     H_    0.684236 0.610172 0.587703 0.173886
H14   H     H_    0.320603 0.391412 0.411691 0.124734
H15   H     H_    0.350960 0.009758 0.856733 0.198247
H16   H     H_    0.690888 0.010433 0.120678 0.169033
H17   H     H_    0.232371 0.938903 0.737089 0.142221
H18   H     H_    0.801478 0.075876 0.246807 0.141875
H19   H     H_    0.925363 0.053325 0.614506 0.148608
H20   H     H_    0.074231 0.951626 0.381998 0.143812
H21   H     H_    0.529552 0.683871 0.766069 0.220202
H22   H     H_    0.469977 0.314876 0.234400 0.221942
N1    N     N_R   0.584450 0.204570 0.560790 -0.181127
N2    N     N_R   0.415550 0.795430 0.439210 -0.178580
O1    O     O_R   0.455540 0.022090 0.338120 -0.514406
O2    O     O_R   0.544460 0.977910 0.661880 -0.531843
O3    O     O_R   0.512510 0.160150 0.379180 -0.597734
O4    O     O_R   0.487490 0.839850 0.620820 -0.589740
O5    O     O_R   0.291160 0.930970 0.479480 -0.599126
O6    O     O_R   0.708840 0.069030 0.520520 -0.598800
O7    O     O_R   0.348130 0.069020 0.520540 -0.585093
O8    O     O_R   0.651870 0.930980 0.479460 -0.569283
O9    O     O_3   0.378721 0.549319 0.783412 -0.567158
C57   C     C_3   0.255828 0.559916 0.793621 0.093432
H23   H     H_    0.251144 0.566404 0.864818 0.126349
H24   H     H_    0.189159 0.493546 0.791128 0.145002
C58   C     C_3   0.211159 0.655065 0.707874 -0.807114
H25   H     H_    0.111951 0.659406 0.713040 0.184026
H26   H     H_    0.271335 0.722805 0.713253 0.255748
H27   H     H_    0.215711 0.654559 0.634343 0.253322
O10   O     O_3   0.613426 0.451730 0.220394 -0.569845
C59   C     C_3   0.736028 0.435439 0.215488 0.053525
H28   H     H_    0.804112 0.502930 0.212340 0.141580
H29   H     H_    0.740807 0.420794 0.148821 0.131960
C60   C     C_3   0.777869 0.343869 0.308345 -0.741056
H30   H     H_    0.880156 0.340343 0.312205 0.187583
H31   H     H_    0.762090 0.347891 0.377756 0.265900
H32   H     H_    0.723805 0.273714 0.304114 0.245379
O11   O     O_3   0.099613 0.249192 0.521822 -0.576456
C61   C     C_3   0.116533 0.251471 0.429215 -0.326869
H33   H     H_    0.036310 0.204957 0.404008 0.188574
H34   H     H_    0.208050 0.227314 0.430293 0.146370
H35   H     H_    0.112994 0.329871 0.371711 0.160482
O12   O     O_3   0.836477 0.755383 0.488333 -0.590995
C62   C     C_3   0.964485 0.737089 0.508345 -0.320388
H36   H     H_    0.012928 0.762718 0.440852 0.128545
H37   H     H_    0.968865 0.654852 0.550545 0.181463
H38   H     H_    0.018344 0.774504 0.557287 0.197542
O13   O     O_3   0.253570 0.326086 0.649731 -0.542204
C63   C     C_3   0.146235 0.345206 0.676161 0.160663
H39   H     H_    0.166199 0.336382 0.755502 0.153965
H40   H     H_    0.058237 0.294457 0.667602 0.114968
C64   C     C_3   0.120200 0.452914 0.608630 -0.765561
H41   H     H_    0.089631 0.460162 0.530299 0.256609
H42   H     H_    0.044050 0.473082 0.634074 0.162743
H43   H     H_    0.207802 0.505463 0.610566 0.281697
O14   O     O_3   0.732249 0.684817 0.341572 -0.537581
C65   C     C_3   0.833852 0.659138 0.314053 0.136946
H44   H     H_    0.924779 0.708765 0.316841 0.069986
H45   H     H_    0.808781 0.663623 0.236337 0.174828
C66   C     C_3   0.857127 0.551837 0.385298 -0.748142
H46   H     H_    0.767158 0.500964 0.387001 0.288979
H47   H     H_    0.929789 0.526951 0.360750 0.176070
H48   H     H_    0.891461 0.547887 0.462046 0.239967
O15   O     O_3   0.415909 0.357009 0.826533 -0.573079
C67   C     C_3   0.528455 0.369318 0.787051 -0.278791
H49   H     H_    0.599176 0.321391 0.844255 0.132442
H50   H     H_    0.570182 0.449771 0.756699 0.175899
H51   H     H_    0.505348 0.344628 0.724597 0.221018
O16   O     O_3   0.576094 0.645525 0.173147 -0.571464
C68   C     C_3   0.459833 0.641049 0.203917 -0.274068
H52   H     H_    0.413879 0.561950 0.235941 0.172985
H53   H     H_    0.394102 0.689114 0.141158 0.129283
H54   H     H_    0.478941 0.670615 0.262833 0.220234
O17   O     O_3   0.546525 0.951312 0.845992 -0.577310
C69   C     C_3   0.670622 0.991967 0.871819 0.089966
H55   H     H_    0.732317 0.999898 0.816976 0.139686
H56   H     H_    0.713931 0.944745 0.948865 0.118702
C70   C     C_3   0.665861 0.095840 0.868179 -0.834527
H57   H     H_    0.620208 0.088370 0.931572 0.219445
H58   H     H_    0.763524 0.135005 0.873783 0.192825
H59   H     H_    0.609973 0.142032 0.797124 0.273045
O18   O     O_3   0.452979 0.045693 0.158322 -0.557022
C71   C     C_3   0.388117 0.012371 0.083343 0.057753
H60   H     H_    0.452583 0.026128 0.028517 0.137523
H61   H     H_    0.300746 0.049848 0.044060 0.132667
C72   C     C_3   0.348014 0.899404 0.131137 -0.787295
H62   H     H_    0.270969 0.883891 0.176477 0.230246
H63   H     H_    0.312020 0.870685 0.071726 0.186386
H64   H     H_    0.429733 0.859421 0.179927 0.265165

loop_
_geom_bond_atom_site_label_1
_geom_bond_atom_site_label_2
_ccdc_geom_bond_type
C43   H15   S    
C31   H8    S    
C65   H44   S    
C72   H63   S    
C5    C56   A    
C36   C42   A    
C19   C20   A    
C18   C26   A    
C6    C55   A    
C67   H51   S    
C46   H18   S    
C53   H1    S    
C58   H27   S    
C39   C41   A    
C54   H2    S    
C61   H33   S    
C15   C19   A    
C9    H3    S    
C70   H58   S    
C62   H36   S    
C37   C40   A    
C12   O17   S    
C38   C39   A    
C55   H19   S    
C68   H54   S    
C27   C29   A    
O17   C69   S    
C56   H20   S    
Cu1   O4    S    
C63   H39   S    
C59   H28   S    
C64   H43   S    
C70   H57   S    
C1    C7    S    
C3    C55   A    
C43   C53   A    
C58   H25   S    
C44   C46   A    
C49   C51   A    
C50   C52   A    
O18   C71   S    
C23   O7    A    
C49   O11   S    
C25   O15   S    
C30   H9    S    
C27   H11   S    
C8    C12   A    
C3    C5    A    
C66   H48   S    
C40   C42   A    
C13   H22   S    
C23   O5    A    
C4    C56   A    
C72   H64   S    
C3    C24   S    
C10   H4    S    
C69   C70   S    
C59   H29   S    
O12   C62   S    
C52   C54   A    
C45   C47   A    
C1    O3    A    
C5    C48   S    
C46   C48   A    
C6    C47   S    
C19   C22   A    
C69   H56   S    
Cu1   O1    S    
Cu1   O8    S    
Cu2   N1    S    
O9    C57   S    
C4    C23   S    
C67   H50   S    
C65   C66   S    
C27   C35   A    
C57   C58   S    
C33   C37   A    
Cu1   O5    S    
Cu2   O6    S    
C51   C53   A    
C63   C64   S    
C32   C34   A    
C30   N2    A    
C7    C11   A    
C29   N1    A    
C37   C38   A    
Cu2   O2    S    
C29   H10   S    
C24   O6    A    
O10   C59   S    
C71   C72   S    
C16   C20   A    
C70   H59   S    
C57   H24   S    
C2    O2    A    
C60   H31   S    
C14   H21   S    
C20   C21   A    
C44   H16   S    
C9    C11   A    
C64   H41   S    
C10   C12   A    
C9    C17   A    
C71   H61   S    
C13   C15   A    
O15   C67   S    
C51   O13   S    
C14   C16   A    
C4    C6    A    
C1    O1    A    
C41   H5    S    
O11   C61   S    
Cu2   O3    S    
C42   H6    S    
C72   H62   S    
C65   H45   S    
C68   H52   S    
C66   H46   S    
C21   O9    S    
C11   O18   S    
C15   C17   A    
C21   C25   A    
C31   C33   A    
C8    C14   A    
C22   O10   S    
C40   H14   S    
C34   C38   A    
C28   H12   S    
C69   H55   S    
C26   O16   S    
C24   O8    A    
C52   O14   S    
C58   H26   S    
C67   H49   S    
C47   C49   A    
C32   N2    A    
C31   N1    A    
C61   H35   S    
C45   H17   S    
C17   C25   A    
C62   H38   S    
C28   C30   A    
C50   O12   S    
C43   C45   A    
O13   C63   S    
C68   H53   S    
Cu1   Cu2   S    
O14   C65   S    
C10   C18   A    
C48   C50   A    
C57   H23   S    
C33   C35   A    
C61   H34   S    
C2    O4    A    
C60   H32   S    
C34   C36   A    
C59   C60   S    
C35   C41   A    
Cu2   O7    S    
C63   H40   S    
C64   H42   S    
O16   C68   S    
C44   C54   A    
C7    C13   A    
C71   H60   S    
C28   C36   A    
C16   C18   A    
C22   C26   A    
C2    C8    S    
C60   H30   S    
C39   H13   S    
Cu1   N2    S    
C62   H37   S    
C32   H7    S    
C66   H47   S    
