data_mof_unit_46114.cif
_audit_creation_date              2012-12-11T14:08:23-0500
_audit_creation_method            fapswitch 2.2
_symmetry_space_group_name_H-M    P1
_symmetry_Int_Tables_number       1
_space_group_crystal_system       triclinic
_cell_length_a                    10.987037
_cell_length_b                    11.000949
_cell_length_c                    18.828367
_cell_angle_alpha                 90.839506
_cell_angle_beta                  90.455234
_cell_angle_gamma                 60.386127
_cell_volume                      1978.26255511

loop_
_atom_site_label
_atom_site_type_symbol
_atom_type_description
_atom_site_fract_x
_atom_site_fract_y
_atom_site_fract_z
_atom_type_partial_charge
C1    C     C_R   0.290633 0.623941 0.614854 0.528822
C2    C     C_3   0.623718 0.580916 0.795913 -0.240671
C3    C     C_3   0.703094 0.661044 0.812089 -0.003371
C4    C     C_3   0.682855 0.645377 0.673659 0.032417
C5    C     C_3   0.841289 0.607344 0.691917 0.225184
C6    C     C_3   0.640440 0.548645 0.715472 -0.233904
C7    C     C_2   0.629363 0.271216 0.681238 -0.110428
C8    C     C_2   0.670090 0.143112 0.822718 -0.001693
C9    C     C_2   0.772562 0.136846 0.781411 -0.141376
C10   C     C_2   0.750962 0.165642 0.704772 -0.116536
C11   C     C_2   0.247660 0.643535 0.689184 -0.122157
C12   C     C_R   0.657962 0.624452 0.599058 0.536954
C13   C     C_2   0.207440 0.664274 0.844463 -0.131314
C14   C     C_2   0.236362 0.550657 0.806101 -0.165857
C15   C     C_2   0.280267 0.534699 0.731074 -0.151961
C16   C     C_2   0.675920 0.683389 0.333456 -0.087866
C17   C     C_2   0.706288 0.710632 0.179231 -0.103816
C18   C     C_2   0.813731 0.638917 0.223621 -0.173500
C19   C     C_2   0.794433 0.606934 0.296619 -0.149897
C20   C     C_2   0.670058 0.136073 0.335404 -0.109749
C21   C     C_2   0.683147 0.086458 0.184539 -0.089103
C22   C     C_2   0.613427 0.047402 0.227835 -0.174218
C23   C     C_R   0.592057 0.296744 0.607783 0.531643
C24   C     C_2   0.592114 0.089506 0.302475 -0.153541
C25   C     C_2   0.156658 0.667888 0.333834 -0.140751
C26   C     C_2   0.161327 0.662571 0.179867 -0.086412
C27   C     C_2   0.187885 0.748802 0.220181 0.260127
C28   C     C_2   0.140705 0.775552 0.294417 0.000658
C29   C     C_R   0.701847 0.095212 0.896032 0.580797
C30   C     C_R   0.720790 0.683583 0.889426 0.560004
C31   C     C_R   0.121077 0.706055 0.908621 0.549756
C32   C     C_R   0.701441 0.044472 0.111337 0.535173
C33   C     C_R   0.733099 0.718295 0.104580 0.548040
C34   C     C_R   0.218749 0.650086 0.402951 0.564949
C35   C     C_R   0.098886 0.707083 0.111005 0.553609
C36   C     C_R   0.645442 0.626208 0.396077 0.572180
C37   C     C_R   0.619725 0.223254 0.397811 0.562633
C38   C     C_3   0.608560 0.806464 0.778328 -0.301565
C39   C     C_3   0.579670 0.794582 0.699653 -0.289606
C40   C     C_3   0.854543 0.577482 0.775347 0.165714
Cr1   Cr    Cr6+3 0.393010 0.398050 0.501480 1.026000
Cr2   Cr    Cr6+3 0.398820 0.707980 0.501630 1.005192
Cr3   Cr    Cr6+3 0.708140 0.393940 0.496850 1.053009
Cr4   Cr    Cr6+3 0.937950 0.938450 0.008940 1.104339
Cr5   Cr    Cr6+3 0.626180 0.937030 0.994750 1.038802
Cr6   Cr    Cr6+3 0.937790 0.625760 0.001410 1.090071
H1    H     H_    0.651770 0.877282 0.787286 0.137144
H2    H     H_    0.723050 0.438932 0.707059 0.222181
H3    H     H_    0.877716 0.094479 0.802504 0.147819
H4    H     H_    0.831278 0.095392 0.668064 0.155322
H5    H     H_    0.561812 0.352489 0.717343 0.053310
H6    H     H_    0.224129 0.469147 0.829586 0.207118
H7    H     H_    0.328958 0.431540 0.707100 0.174706
H8    H     H_    0.234570 0.739735 0.824163 0.106187
H9    H     H_    0.505436 0.852744 0.805078 0.140728
H10   H     H_    0.192141 0.749859 0.709941 0.100628
H11   H     H_    0.919970 0.586909 0.203263 0.145465
H12   H     H_    0.877981 0.510140 0.318081 0.156052
H13   H     H_    0.599351 0.759058 0.196715 0.183055
H14   H     H_    0.596335 0.784681 0.314884 0.130841
H15   H     H_    0.561429 0.992698 0.206819 0.130590
H16   H     H_    0.501751 0.094304 0.328339 0.152605
H17   H     H_    0.730492 0.147736 0.202265 0.127221
H18   H     H_    0.763202 0.127078 0.312245 0.083808
H19   H     H_    0.470175 0.814624 0.693762 0.155654
H20   H     H_    0.134013 0.589991 0.203099 0.036596
H21   H     H_    0.184758 0.567347 0.309837 0.090237
H22   H     H_    0.583441 0.876728 0.668692 0.121937
H23   H     H_    0.919165 0.621480 0.797416 0.105237
H24   H     H_    0.657550 0.484525 0.826247 0.195767
H25   H     H_    0.510611 0.645721 0.809317 0.111151
H26   H     H_    0.539592 0.561477 0.695169 0.088038
O1    O     O_R   0.507110 0.256280 0.580300 -0.516397
O2    O     O_R   0.524640 0.695370 0.425100 -0.488573
O3    O     O_R   0.735890 0.504390 0.415980 -0.512332
O4    O     O_R   0.690560 0.277820 0.422350 -0.509944
O5    O     O_3   0.499990 0.499990 0.499980 -0.294900
O6    O     O_R   0.089190 0.825870 0.932320 -0.506357
O7    O     O_R   0.819070 0.053960 0.931440 -0.480042
O8    O     O_R   0.607070 0.076440 0.916460 -0.536033
O9    O     O_R   0.647110 0.806550 0.917690 -0.527433
O10   O     O_R   0.837080 0.593860 0.915300 -0.424223
O11   O     O_R   0.064770 0.636080 0.932550 -0.483593
O12   O     O_R   0.280830 0.527190 0.577940 -0.478675
O13   O     O_R   0.068250 0.829200 0.092940 -0.440032
O14   O     O_R   0.799650 0.057040 0.080330 -0.477774
O15   O     O_R   0.586130 0.079760 0.077080 -0.488287
O16   O     O_R   0.627700 0.809630 0.066580 -0.471772
O17   O     O_R   0.816140 0.597180 0.075920 -0.469855
O18   O     O_R   0.045360 0.639170 0.081440 -0.538338
O19   O     O_3   0.833980 0.833750 0.001700 -0.333710
O20   O     O_R   0.261360 0.738990 0.584270 -0.531350
O21   O     O_R   0.532590 0.694780 0.574370 -0.538743
O22   O     O_R   0.744470 0.503750 0.577000 -0.426582
O23   O     O_R   0.698520 0.277230 0.571620 -0.488636
O24   O     O_R   0.498530 0.256920 0.419280 -0.512163
O25   O     O_R   0.272880 0.527780 0.428680 -0.500501
O26   O     O_R   0.252780 0.739630 0.423250 -0.502205
S1    S     S_3+6 0.948890 0.391673 0.805808 0.020799
O27   O     O_2   0.089110 0.362889 0.831704 -0.328174
O28   O     O_2   0.880386 0.365449 0.868022 -0.285702
O29   O     O_3   0.970002 0.268865 0.746227 -0.483317
H27   H     H_    0.022762 0.179026 0.771187 0.339175
S2    S     S_3+6 0.983289 0.465501 0.638383 0.044667
O30   O     O_2   0.119623 0.424798 0.673698 -0.317704
O31   O     O_2   0.972680 0.335871 0.626276 -0.206388
O32   O     O_3   0.989167 0.523821 0.557140 -0.548421
H28   H     H_    0.075638 0.448438 0.535019 0.361351
C41   C     C_3   0.526663 0.172028 0.788559 -0.253220
C42   C     C_3   0.417034 0.140604 0.822790 -0.285563
C43   C     C_3   0.321655 0.130862 0.766557 -0.402108
H29   H     H_    0.261391 0.231852 0.740622 0.268840
H30   H     H_    0.381220 0.054358 0.724350 0.129445
H31   H     H_    0.251618 0.098420 0.791716 0.170539
H32   H     H_    0.461283 0.041969 0.851272 0.204887
H33   H     H_    0.353256 0.223687 0.862292 0.206100
H34   H     H_    0.465019 0.285304 0.784121 0.135564
H35   H     H_    0.550323 0.118113 0.735999 0.157857
S3    S     S_3+6 0.273367 0.836141 0.185270 0.011609
O33   O     O_2   0.365624 0.753972 0.123955 -0.243256
O34   O     O_2   0.166688 0.979462 0.160542 -0.292670
O35   O     O_3   0.371469 0.851628 0.249598 -0.592063
H36   H     H_    0.373236 0.938648 0.238930 0.333873
C44   C     C_3   0.046287 0.925217 0.320265 -0.205401
C45   C     C_3   0.120328 0.009258 0.339616 -0.257332
C46   C     C_3   0.031910 0.131373 0.389802 -0.437965
H37   H     H_    0.932538 0.205987 0.363361 0.179181
H38   H     H_    0.008837 0.093403 0.439507 0.167698
H39   H     H_    0.089754 0.187439 0.403769 0.138653
H40   H     H_    0.223560 0.943012 0.364689 0.230821
H41   H     H_    0.137038 0.054543 0.291018 0.210812
H42   H     H_    0.971559 0.980100 0.276628 0.132617
H43   H     H_    0.983885 0.924558 0.366432 0.132231
C47   C     C_3   0.869197 0.734653 0.679199 -0.226582
C48   C     C_3   0.820636 0.814007 0.607648 -0.272628
C49   C     C_3   0.933410 0.835264 0.572404 -0.384834
H44   H     H_    0.977075 0.881216 0.610744 0.150842
H45   H     H_    0.019018 0.734756 0.551780 0.229330
H46   H     H_    0.887433 0.907386 0.526945 0.134516
H47   H     H_    0.784915 0.761685 0.569020 0.203078
H48   H     H_    0.731220 0.920568 0.617573 0.141386
H49   H     H_    0.826517 0.814109 0.721998 0.066815
H50   H     H_    0.982797 0.695258 0.685915 0.192921

loop_
_geom_bond_atom_site_label_1
_geom_bond_atom_site_label_2
_ccdc_geom_bond_type
C7    C10   D    
C30   O10   A    
C46   H37   S    
Cr2   O21   S    
C35   O13   A    
C39   H22   S    
C43   H29   S    
C1    C11   S    
C48   H47   S    
Cr3   O22   S    
C40   S1    S    
S2    O31   D    
C41   H34   S    
C48   C49   S    
Cr6   O17   S    
C25   C28   D    
C6    H26   S    
C26   C27   D    
C6    H2    S    
C44   H43   S    
C8    C29   S    
C15   H7    S    
Cr5   O15   S    
C33   O16   A    
Cr2   O26   S    
Cr1   O5    S    
C38   C39   S    
Cr1   O24   S    
C34   O25   A    
C31   O11   A    
C44   H42   S    
C18   C19   S    
C16   H14   S    
C42   C43   S    
C47   H50   S    
Cr6   O10   S    
C11   C15   D    
C45   H40   S    
C14   H6    S    
C38   H9    S    
C20   C24   D    
C3    C38   S    
C8    C9    D    
C25   H21   S    
Cr3   O23   S    
O32   H28   S    
C4    C12   S    
C9    C10   S    
Cr2   O20   S    
C25   C34   S    
C5    S2    S    
C13   C14   D    
C24   H16   S    
C39   H19   S    
C12   O22   A    
C43   H31   S    
C2    C6    S    
C17   C33   S    
C23   O1    A    
C49   H46   S    
Cr4   O14   S    
S2    O30   D    
C41   H35   S    
S3    O34   D    
C19   H12   S    
Cr3   O3    S    
C5    C47   S    
C21   C32   S    
Cr2   O2    S    
C40   H23   S    
C26   H20   S    
Cr5   O16   S    
C9    H3    S    
C49   H45   S    
C49   H44   S    
Cr6   O19   S    
C46   H39   S    
C32   O15   A    
C37   O24   A    
C1    O12   A    
C20   H18   S    
C3    C30   S    
C36   O3    A    
C33   O17   A    
C47   H49   S    
C45   H41   S    
C18   H11   S    
S1    O27   D    
C29   O7    A    
C4    C39   S    
C32   O14   A    
C17   C18   D    
C43   H30   S    
C38   H1    S    
Cr4   O19   S    
C36   O2    A    
C17   H13   S    
C4    C6    S    
S1    O28   D    
C37   O4    A    
C3    C40   S    
C1    O20   A    
C45   C46   S    
Cr1   O25   S    
C12   O21   A    
C2    H25   S    
C10   H4    S    
C42   H33   S    
C31   O6    A    
C13   H8    S    
S3    O35   S    
Cr3   O4    S    
C46   H38   S    
C13   C31   S    
Cr4   O7    S    
Cr5   O9    S    
C4    C5    S    
S3    O33   D    
C28   C44   S    
C47   C48   S    
Cr6   O18   S    
C27   S3    S    
Cr3   O5    S    
C30   O9    A    
Cr4   O6    S    
C2    C3    S    
C7    H5    S    
C2    H24   S    
C8    C41   S    
C16   C36   S    
C22   H15   S    
C20   C37   S    
Cr1   O12   S    
C29   O8    A    
C16   C19   D    
C7    C23   S    
C34   O26   A    
C23   O23   A    
Cr5   O8    S    
C22   C24   S    
O29   H27   S    
Cr5   O19   S    
C21   H17   S    
Cr1   O1    S    
Cr6   O11   S    
C35   O18   A    
C26   C35   S    
C48   H48   S    
S1    O29   S    
Cr2   O5    S    
C5    C40   S    
C41   C42   S    
C27   C28   S    
C14   C15   S    
O35   H36   S    
C21   C22   D    
C42   H32   S    
S2    O32   S    
C11   H10   S    
Cr4   O13   S    
C44   C45   S    
