data_mof_unit_7043.cif
_audit_creation_date              2012-12-10T17:36:45-0500
_audit_creation_method            fapswitch 2.2
_symmetry_space_group_name_H-M    P1
_symmetry_Int_Tables_number       1
_space_group_crystal_system       triclinic
_cell_length_a                    12.085707
_cell_length_b                    12.813412
_cell_length_c                    15.708232
_cell_angle_alpha                 91.732862
_cell_angle_beta                  86.702212
_cell_angle_gamma                 95.095245
_cell_volume                      2418.16602214

loop_
_atom_site_label
_atom_site_type_symbol
_atom_type_description
_atom_site_fract_x
_atom_site_fract_y
_atom_site_fract_z
_atom_type_partial_charge
C1    C     C_R   0.523802 0.700328 0.491167 0.877448
C2    C     C_R   0.550115 0.026970 0.512532 0.075733
C3    C     C_R   0.948084 0.398103 0.419826 -0.131863
C4    C     C_R   0.051919 0.601936 0.580138 -0.131804
C5    C     C_R   0.833768 0.411380 0.426514 0.071467
C6    C     C_R   0.166232 0.588635 0.573473 0.071426
C7    C     C_R   0.858988 0.539484 0.537881 0.042942
C8    C     C_R   0.141015 0.460535 0.462103 0.042899
C9    C     C_R   0.977277 0.536276 0.530202 -0.024964
C10   C     C_R   0.022726 0.463753 0.469771 -0.025066
C11   C     C_R   0.500460 0.499958 0.661754 0.910910
C12   C     C_R   0.476200 0.299667 0.508824 0.877412
C13   C     C_R   0.499540 0.500043 0.338246 0.910895
C14   C     C_3   0.457497 0.588344 0.030936 0.061401
C15   C     C_3   0.542503 0.411677 0.969066 0.061416
C16   C     C_3   0.563781 0.584826 0.971215 0.059396
C17   C     C_3   0.436219 0.415195 0.028787 0.059394
C18   C     C_1   0.501281 0.499218 0.750479 -0.158076
C19   C     C_1   0.498720 0.500790 0.249522 -0.158054
C20   C     C_3   0.395874 0.502574 0.975977 -0.020969
C21   C     C_3   0.604127 0.497447 0.024024 -0.020950
C22   C     C_3   0.501415 0.499072 0.916667 0.014742
C23   C     C_R   0.648446 0.976335 0.507622 -0.203428
C24   C     C_3   0.498585 0.500948 0.083334 0.014740
C25   C     C_1   0.501494 0.498806 0.825687 -0.059120
C26   C     C_1   0.498507 0.501209 0.174314 -0.059123
C27   C     C_R   0.458151 0.186783 0.522910 -0.163307
C28   C     C_R   0.541864 0.813204 0.477065 -0.163272
C29   C     C_3   0.638269 0.674944 0.930186 -0.395790
C30   C     C_3   0.690388 0.751722 0.996409 -0.355531
C31   C     C_3   0.762994 0.840542 0.953121 -0.853692
C32   C     C_3   0.361722 0.325082 0.069813 -0.395773
C33   C     C_3   0.309627 0.248289 0.003591 -0.355585
C34   C     C_R   0.351557 0.023637 0.492386 -0.203366
C35   C     C_3   0.236929 0.159528 0.046876 -0.853697
C36   C     C_3   0.405591 0.682882 0.073895 -0.406876
C37   C     C_3   0.372993 0.760462 0.009229 -0.339103
C38   C     C_3   0.320972 0.852926 0.054215 -0.867125
C39   C     C_3   0.594407 0.317133 0.926116 -0.406900
C40   C     C_3   0.627011 0.239569 0.990793 -0.339090
C41   C     C_3   0.679031 0.147096 0.945820 -0.867156
C42   C     C_1   0.716886 0.494780 0.053705 0.144717
C43   C     C_1   0.283114 0.505243 0.946297 0.144739
C44   C     C_1   0.647766 0.184507 0.577437 0.178711
C45   C     C_R   0.647233 0.870036 0.486109 0.079595
C46   C     C_1   0.352326 0.815502 0.422451 0.178675
C47   C     C_3   0.243617 0.181371 0.526946 -0.367889
C48   C     C_3   0.139362 0.107215 0.549784 -0.398331
C49   C     C_3   0.040328 0.168644 0.577986 -0.836231
C50   C     C_3   0.756406 0.818625 0.473047 -0.367912
C51   C     C_3   0.860572 0.892771 0.449951 -0.398304
C52   C     C_3   0.959607 0.831340 0.421757 -0.836747
C53   C     C_1   0.195524 0.401272 0.395133 0.244803
C54   C     C_1   0.804481 0.598750 0.604851 0.244861
C55   C     C_1   0.241377 0.651199 0.627012 0.279871
C56   C     C_R   0.352776 0.129943 0.513878 0.079584
C57   C     C_1   0.758619 0.348812 0.372981 0.279896
C58   C     C_1   0.983245 0.312564 0.364787 0.131683
C59   C     C_1   0.016762 0.687513 0.635135 0.131621
C60   C     C_R   0.448278 0.867404 0.463391 -0.068608
C61   C     C_R   0.551745 0.132587 0.536578 -0.068609
C62   C     C_R   0.449896 0.973015 0.487456 0.075724
H1    H     H_    0.726286 0.020199 0.520584 0.147478
H2    H     H_    0.287546 0.114809 0.087292 0.261839
H3    H     H_    0.168473 0.191378 0.087082 0.274767
H4    H     H_    0.200026 0.105200 0.997664 0.248797
H5    H     H_    0.257660 0.289832 0.962014 0.236720
H6    H     H_    0.375455 0.213595 0.962827 0.225137
H7    H     H_    0.411712 0.282921 0.112498 0.202189
H8    H     H_    0.294525 0.359261 0.109906 0.217898
H9    H     H_    0.244614 0.825172 0.092693 0.269652
H10   H     H_    0.381037 0.895799 0.096585 0.259920
H11   H     H_    0.298157 0.907792 0.006051 0.252581
H12   H     H_    0.273711 0.979750 0.479454 0.147482
H13   H     H_    0.447284 0.791233 0.970110 0.225663
H14   H     H_    0.312257 0.720760 0.965863 0.238697
H15   H     H_    0.330321 0.653454 0.112977 0.214274
H16   H     H_    0.465452 0.723091 0.117739 0.197597
H17   H     H_    0.618966 0.104214 0.903456 0.259912
H18   H     H_    0.755389 0.174847 0.907339 0.269658
H19   H     H_    0.701843 0.092239 0.993992 0.252583
H20   H     H_    0.687750 0.279284 0.034149 0.238703
H21   H     H_    0.552725 0.208805 0.029922 0.225649
H22   H     H_    0.534541 0.276914 0.882282 0.197599
H23   H     H_    0.831426 0.808751 0.912848 0.274765
H24   H     H_    0.669674 0.346553 0.887028 0.214267
H25   H     H_    0.058045 0.216043 0.636804 0.262264
H26   H     H_    0.021998 0.221465 0.526880 0.267054
H27   H     H_    0.965740 0.113364 0.591571 0.250208
H28   H     H_    0.115840 0.057879 0.493159 0.227606
H29   H     H_    0.156222 0.055679 0.602380 0.240043
H30   H     H_    0.252067 0.239602 0.580609 0.224089
H31   H     H_    0.229251 0.221873 0.467994 0.223503
H32   H     H_    0.978268 0.778893 0.473004 0.267119
H33   H     H_    0.941706 0.783567 0.363185 0.262346
H34   H     H_    0.712297 0.885269 0.912771 0.261815
H35   H     H_    0.034053 0.886625 0.407785 0.250329
H36   H     H_    0.843540 0.944122 0.397287 0.240089
H37   H     H_    0.884204 0.942291 0.506441 0.227574
H38   H     H_    0.770902 0.778304 0.532057 0.223456
H39   H     H_    0.747906 0.760248 0.419495 0.224192
H40   H     H_    0.799929 0.894851 0.002334 0.248798
H41   H     H_    0.624573 0.786356 0.037232 0.225133
H42   H     H_    0.742430 0.710179 0.037929 0.236715
H43   H     H_    0.705454 0.640772 0.890076 0.217877
H44   H     H_    0.588264 0.717113 0.887519 0.202202
N1    N     N_R   0.207800 0.519340 0.515560 -0.148531
N2    N     N_1   0.699526 0.298094 0.329734 -0.212650
N3    N     N_1   0.009507 0.243700 0.320979 -0.195836
N4    N     N_1   0.990501 0.756406 0.678911 -0.195872
N5    N     N_R   0.792200 0.480660 0.484440 -0.148549
N6    N     N_1   0.805677 0.492663 0.077113 -0.199820
N7    N     N_1   0.194323 0.507362 0.922889 -0.199809
N8    N     N_1   0.724060 0.225668 0.609936 -0.210294
N9    N     N_1   0.276106 0.774354 0.389872 -0.210288
N10   N     N_1   0.238915 0.353955 0.340896 -0.211320
N11   N     N_1   0.761090 0.646067 0.659088 -0.211327
N12   N     N_1   0.300468 0.701914 0.670263 -0.212637
O1    O     O_R   0.421700 0.658830 0.504150 -0.603952
O2    O     O_R   0.578300 0.341170 0.495850 -0.603943
O3    O     O_R   0.609310 0.646410 0.494170 -0.640190
O4    O     O_R   0.390690 0.353590 0.505830 -0.640178
O5    O     O_R   0.406210 0.506220 0.628210 -0.620244
O6    O     O_R   0.593790 0.493780 0.371790 -0.620270
O7    O     O_R   0.593830 0.493800 0.618230 -0.607290
O8    O     O_R   0.406170 0.506200 0.381770 -0.607288
Zn1   Zn    Zn3+2 0.374730 0.508290 0.506660 0.959836
Zn2   Zn    Zn3+2 0.625270 0.491710 0.493340 0.959829

loop_
_geom_bond_atom_site_label_1
_geom_bond_atom_site_label_2
_ccdc_geom_bond_type
C11   C18   S    
C34   C56   A    
O8    Zn1   S    
C31   H23   S    
C58   N3    T    
C47   H30   S    
C49   H25   S    
C40   H21   S    
C6    C55   S    
C17   C20   S    
C41   H18   S    
C29   C30   S    
C46   N9    T    
C23   C45   A    
C36   C37   S    
C11   O7    A    
C24   C26   S    
C39   H22   S    
C36   H15   S    
C14   C36   S    
C30   C31   S    
C35   H3    S    
C31   H34   S    
C52   H35   S    
C34   C62   A    
C59   N4    T    
C52   H33   S    
C60   C62   A    
C1    O1    A    
C14   C24   S    
O4    Zn1   S    
C19   C26   T    
C42   N6    T    
C27   C61   A    
C12   O2    A    
C15   C22   S    
C22   C25   S    
C30   H41   S    
C1    C28   S    
C6    N1    A    
C52   H32   S    
C35   H2    S    
C9    C10   A    
C53   N10   T    
O6    Zn2   S    
C51   H36   S    
C23   H1    S    
C37   H13   S    
C44   N8    T    
C48   H28   S    
C49   H26   S    
C29   H43   S    
C18   C25   T    
C2    C61   A    
C28   C60   A    
C51   H37   S    
C38   H10   S    
C28   C45   A    
C17   C24   S    
C13   C19   S    
C12   C27   S    
C51   C52   S    
C31   H40   S    
C40   H20   S    
O3    Zn2   S    
C4    C6    A    
C39   C40   S    
C13   O6    A    
C27   C56   A    
C32   H8    S    
C5    N5    A    
C35   H4    S    
C16   C29   S    
C48   H29   S    
C37   C38   S    
C14   C20   S    
O7    Zn2   S    
O5    Zn1   S    
C47   C48   S    
C41   H19   S    
C50   C51   S    
C47   H31   S    
C15   C39   S    
C34   H12   S    
C13   O8    A    
C40   C41   S    
C37   H14   S    
C20   C22   S    
C14   C16   S    
C29   H44   S    
C21   C24   S    
C8    N1    A    
N5    Zn2   S    
C20   C43   S    
C33   H5    S    
C7    C9    A    
C38   H9    S    
C48   C49   S    
C16   C22   S    
C46   C60   S    
C11   O5    A    
C49   H27   S    
C3    C5    A    
C8    C53   S    
C41   H17   S    
O2    Zn2   S    
C16   C21   S    
C15   C17   S    
C32   H7    S    
C44   C61   S    
C50   H38   S    
C39   H24   S    
C5    C57   S    
C32   C33   S    
N1    Zn1   S    
C3    C10   A    
C36   H16   S    
C43   N7    T    
C45   C50   S    
C4    C59   S    
C33   C35   S    
C7    N5    A    
C1    O3    A    
C21   C42   S    
C3    C58   S    
C15   C21   S    
C57   N2    T    
C12   O4    A    
C50   H39   S    
C8    C10   A    
C54   N11   T    
C30   H42   S    
C2    C23   A    
C17   C32   S    
C7    C54   S    
C4    C9    A    
C38   H11   S    
C2    C62   A    
C33   H6    S    
C47   C56   S    
C55   N12   T    
O1    Zn1   S    
