data_mof_unit_32497.cif
_audit_creation_date              2012-12-10T19:46:23-0500
_audit_creation_method            fapswitch 2.2
_symmetry_space_group_name_H-M    P1
_symmetry_Int_Tables_number       1
_space_group_crystal_system       triclinic
_cell_length_a                    10.888137
_cell_length_b                    10.899539
_cell_length_c                    10.440423
_cell_angle_alpha                 91.846964
_cell_angle_beta                  91.519077
_cell_angle_gamma                 89.97832
_cell_volume                      1237.94516992

loop_
_atom_site_label
_atom_site_type_symbol
_atom_type_description
_atom_site_fract_x
_atom_site_fract_y
_atom_site_fract_z
_atom_type_partial_charge
C1    C     C_R   0.496504 0.261554 0.497843 0.818610
C2    C     C_R   0.503488 0.738447 0.502154 0.818554
C3    C     C_R   0.872041 0.502289 0.504378 -0.085634
C4    C     C_R   0.127958 0.497713 0.495624 -0.085609
C5    C     C_R   0.943137 0.527266 0.617245 0.015004
C6    C     C_R   0.056861 0.472721 0.382761 0.014997
C7    C     C_R   0.562181 0.174289 0.061279 -0.125237
C8    C     C_R   0.438005 0.825825 0.938761 -0.125219
C9    C     C_R   0.522204 0.117425 0.171248 0.247642
C10   C     C_R   0.477903 0.882678 0.828755 0.247640
C11   C     C_R   0.599255 0.118597 0.282517 0.146067
C12   C     C_R   0.400812 0.881432 0.717518 0.146107
C13   C     C_R   0.715645 0.173787 0.280701 -0.177317
C14   C     C_R   0.284457 0.826185 0.719402 -0.177234
C15   C     C_R   0.755516 0.226753 0.169101 -0.145147
C16   C     C_R   0.244666 0.773222 0.831035 -0.145087
C17   C     C_R   0.678386 0.227791 0.060033 -0.181471
C18   C     C_R   0.321840 0.772252 0.940072 -0.181526
C19   C     C_R   0.571206 0.932887 0.409948 0.123558
C20   C     C_R   0.428753 0.067113 0.590024 0.123630
C21   C     C_R   0.507492 0.872400 0.505748 -0.142843
C22   C     C_R   0.492487 0.127603 0.494237 -0.142837
C23   C     C_R   0.261472 0.497991 0.498125 0.790249
C24   C     C_R   0.738528 0.502009 0.501876 0.790254
C25   C     C_R   0.441978 0.939929 0.599598 -0.041190
C26   C     C_R   0.558018 0.060079 0.400399 -0.041187
C27   C     C_1   0.499995 0.500035 0.071982 0.082635
C28   C     C_1   0.500007 0.499965 0.928018 0.082632
C29   C     C_R   0.154995 0.490032 0.037699 -0.121584
C30   C     C_R   0.845238 0.509879 0.962386 -0.121620
C31   C     C_R   0.118207 0.528080 0.160766 0.228610
C32   C     C_R   0.881962 0.471856 0.839284 0.228506
C33   C     C_R   0.108701 0.440007 0.256640 0.128345
C34   C     C_R   0.891299 0.559931 0.743382 0.128336
C35   C     C_R   0.133127 0.316116 0.226686 -0.199392
C36   C     C_R   0.866723 0.683796 0.773325 -0.199143
C37   C     C_R   0.167240 0.279787 0.103237 -0.145694
C38   C     C_R   0.832654 0.720099 0.896801 -0.145603
C39   C     C_R   0.179951 0.366700 0.009477 -0.157726
C40   C     C_R   0.820150 0.633185 0.990605 -0.157782
C41   C     C_R   0.929981 0.475502 0.388815 -0.254274
C42   C     C_R   0.070019 0.524504 0.611186 -0.254238
Cu1   Cu    Cu3+1 0.500000 0.500000 0.625300 0.977097
Cu2   Cu    Cu3+1 0.500000 0.500000 0.374700 0.977090
H1    H     H_    0.206807 0.338150 0.913971 0.139632
H2    H     H_    0.793352 0.661715 0.086139 0.139649
H3    H     H_    0.775622 0.174445 0.365174 0.122898
H4    H     H_    0.224449 0.825473 0.634953 0.122879
H5    H     H_    0.846299 0.266801 0.167284 0.130976
H6    H     H_    0.153913 0.733121 0.832901 0.130945
H7    H     H_    0.161665 0.554979 0.962289 0.125565
H8    H     H_    0.838731 0.444936 0.037827 0.125592
H9    H     H_    0.121912 0.247217 0.297978 0.126600
H10   H     H_    0.877794 0.752702 0.702007 0.126526
H11   H     H_    0.181071 0.183785 0.079293 0.141666
H12   H     H_    0.818710 0.816086 0.920738 0.141648
H13   H     H_    0.876295 0.455804 0.301632 0.158738
H14   H     H_    0.123705 0.544210 0.698367 0.158729
H15   H     H_    0.707873 0.270001 0.973921 0.147971
H16   H     H_    0.292422 0.730038 0.026207 0.147943
H17   H     H_    0.503635 0.176794 0.976006 0.130420
H18   H     H_    0.496583 0.823378 0.024012 0.130395
N1    N     N_1   0.500010 0.499990 0.186410 -0.139839
N2    N     N_1   0.499990 0.500010 0.813590 -0.139836
O1    O     O_R   0.499990 0.319650 0.605810 -0.577310
O2    O     O_R   0.500010 0.680350 0.394190 -0.577357
O3    O     O_R   0.499990 0.319640 0.394190 -0.567737
O4    O     O_R   0.500010 0.680360 0.605810 -0.567736
O5    O     O_R   0.319640 0.500010 0.605810 -0.584511
O6    O     O_R   0.680360 0.499990 0.394190 -0.584489
O7    O     O_R   0.319650 0.500010 0.394190 -0.570339
O8    O     O_R   0.680350 0.499990 0.605810 -0.570340
C43   C     C_3   0.656725 0.862668 0.320677 -0.834975
H19   H     H_    0.727913 0.922104 0.280850 0.220096
H20   H     H_    0.708365 0.791389 0.373484 0.221323
H21   H     H_    0.603163 0.819207 0.239477 0.237613
C44   C     C_3   0.343170 0.137308 0.679265 -0.835259
H22   H     H_    0.271955 0.077882 0.718978 0.220121
H23   H     H_    0.396640 0.180696 0.760531 0.237610
H24   H     H_    0.291579 0.208600 0.626491 0.221363
C45   C     C_3   0.087519 0.660945 0.188252 -0.910308
H25   H     H_    0.992975 0.669172 0.224660 0.236090
H26   H     H_    0.153417 0.700182 0.261512 0.239840
H27   H     H_    0.091319 0.715900 0.100790 0.227258
C46   C     C_3   0.912762 0.339015 0.811793 -0.910242
H28   H     H_    0.007318 0.330863 0.775385 0.236090
H29   H     H_    0.909006 0.284051 0.899253 0.227278
H30   H     H_    0.846894 0.299721 0.738529 0.239803
C47   C     C_3   0.398009 0.056715 0.169352 -0.906066
H31   H     H_    0.407385 0.959190 0.195199 0.237795
H32   H     H_    0.338311 0.104476 0.239605 0.238079
H33   H     H_    0.353152 0.058440 0.072729 0.228287
C48   C     C_3   0.602062 0.943449 0.830576 -0.906200
H34   H     H_    0.592623 0.040948 0.804650 0.237838
H35   H     H_    0.646946 0.941819 0.927197 0.228286
H36   H     H_    0.661770 0.895671 0.760347 0.238030

loop_
_geom_bond_atom_site_label_1
_geom_bond_atom_site_label_2
_ccdc_geom_bond_type
C38   C40   A    
C5    C42   A    
Cu1   O8    S    
C35   H9    S    
C43   H19   S    
C23   O5    A    
Cu2   O2    S    
C42   H14   S    
C45   H25   S    
C24   O6    A    
C46   H28   S    
C40   H2    S    
C48   H34   S    
C20   C44   S    
C19   C21   A    
C16   H6    S    
C2    O4    A    
C46   H30   S    
C20   C25   A    
Cu2   O7    S    
C7    C9    A    
C19   C26   A    
C7    H17   S    
C21   C25   A    
C33   C35   A    
Cu1   O4    S    
C7    C17   A    
C6    C41   A    
C1    O1    A    
C31   C33   A    
Cu2   O6    S    
C47   H32   S    
C10   C48   S    
C39   H1    S    
C46   H29   S    
C1    C22   S    
C48   H35   S    
C29   C31   A    
C43   H20   S    
C3    C24   S    
C45   H26   S    
Cu1   N2    S    
C44   H23   S    
Cu2   N1    S    
C23   O7    A    
C19   C43   S    
C4    C6    A    
C9    C47   S    
C13   H3    S    
C4    C23   S    
C14   H4    S    
C11   C26   S    
C2    O2    A    
C44   H22   S    
C8    C18   A    
C32   C34   A    
Cu1   Cu2   S    
Cu1   O1    S    
C5    C34   S    
C29   C39   A    
C2    C21   S    
C30   C40   A    
C16   C18   A    
C47   H33   S    
C9    C11   A    
C10   C12   A    
C17   H15   S    
C28   N2    T    
C18   H16   S    
C20   C22   A    
C48   H36   S    
C13   C15   A    
C43   H21   S    
C14   C16   A    
C45   H27   S    
C24   O8    A    
C29   H7    S    
C44   H24   S    
C15   C17   A    
C30   H8    S    
C3    C41   A    
C35   C37   A    
C12   C14   A    
C3    C5    A    
C31   C45   S    
C6    C33   S    
C12   C25   S    
C36   C38   A    
C41   H13   S    
C37   C39   A    
C30   C32   A    
C11   C13   A    
C4    C42   A    
C32   C46   S    
C1    O3    A    
C34   C36   A    
C15   H5    S    
C36   H10   S    
C37   H11   S    
C38   H12   S    
C8    C10   A    
C22   C26   A    
C27   C28   S    
C27   N1    T    
Cu2   O3    S    
C47   H31   S    
Cu1   O5    S    
C8    H18   S    
