data_mof_unit_26212.cif
_audit_creation_date              2012-12-11T16:21:30-0500
_audit_creation_method            fapswitch 2.2
_symmetry_space_group_name_H-M    P1
_symmetry_Int_Tables_number       1
_space_group_crystal_system       triclinic
_cell_length_a                    8.344427
_cell_length_b                    16.681645
_cell_length_c                    17.24144
_cell_angle_alpha                 108.1084
_cell_angle_beta                  84.067111
_cell_angle_gamma                 96.769214
_cell_volume                      2259.54654801

loop_
_atom_site_label
_atom_site_type_symbol
_atom_type_description
_atom_site_fract_x
_atom_site_fract_y
_atom_site_fract_z
_atom_type_partial_charge
Ba1   Ba    Ba6+2 0.638770 0.457640 0.528600 1.747935
Ba2   Ba    Ba6+2 0.171410 0.542370 0.471460 1.751526
C1    C     C_3   0.707095 0.273389 0.796092 -0.370251
C2    C     C_R   0.101875 0.247543 0.477910 -0.229874
C3    C     C_2   0.506314 0.857257 0.573524 -0.061930
C4    C     C_3   0.366914 0.237458 0.664170 0.268216
C5    C     C_2   0.539363 0.775094 0.553415 0.019766
C6    C     C_2   0.810494 0.807966 0.490307 -0.038725
C7    C     C_3   0.782901 0.902230 0.523618 0.139355
C8    C     C_3   0.603311 0.914220 0.529746 -0.000892
C9    C     C_2   0.879837 0.965901 0.485645 -0.169845
C10   C     C_2   0.939110 0.043052 0.533638 0.346451
C11   C     C_R   0.193903 0.089027 0.466629 0.052055
C12   C     C_3   0.781015 0.286247 0.715172 0.295586
C13   C     C_R   0.036518 0.107306 0.498590 -0.108601
C14   C     C_R   0.302249 0.147624 0.440430 -0.097539
C15   C     C_R   0.258454 0.227976 0.446397 0.035800
C16   C     C_3   0.374764 0.153076 0.679324 -0.222188
C17   C     C_R   0.990380 0.189388 0.505020 0.091450
C18   C     C_R   0.111537 0.489100 0.720084 -0.251381
C19   C     C_R   0.961477 0.519643 0.748606 0.061788
C20   C     C_R   0.900701 0.525127 0.828775 -0.084651
C21   C     C_R   0.991461 0.500608 0.880293 -0.001358
C22   C     C_R   0.141413 0.468410 0.850666 -0.093011
C23   C     C_3   0.981095 0.284217 0.301922 0.273839
C24   C     C_R   0.199495 0.461038 0.769796 0.064570
C25   C     C_R   0.918756 0.494591 0.164774 -0.055547
C26   C     C_R   0.864102 0.499962 0.245477 0.061156
C27   C     C_R   0.641264 0.577795 0.236249 0.041205
C28   C     C_3   0.299876 0.698292 0.750679 0.132629
C29   C     C_R   0.692300 0.568899 0.154085 -0.059765
C30   C     C_R   0.833973 0.529831 0.119151 0.012000
C31   C     C_1   0.886490 0.519886 0.034672 0.060614
C32   C     C_1   0.933145 0.510866 0.964122 0.075696
C33   C     C_R   0.733132 0.546793 0.282582 -0.192583
C34   C     C_3   0.031228 0.197681 0.250912 -0.245095
C35   C     C_3   0.239031 0.770515 0.825079 0.338248
C36   C     C_3   0.533071 0.268079 0.247975 0.555025
C37   C     C_3   0.576889 0.180217 0.189388 0.114641
C38   C     C_3   0.786678 0.721667 0.700811 0.309105
C39   C     C_3   0.759720 0.801363 0.773057 -0.205904
C40   C     C_2   0.462070 0.141748 0.122975 0.673375
C41   C     C_2   0.685168 0.866395 0.749485 0.470314
C42   C     C_2   0.959409 0.303810 0.720729 0.476304
C43   C     C_2   0.383690 0.895235 0.639471 0.621762
C44   C     C_2   0.390970 0.638501 0.774432 0.539282
C45   C     C_3   0.523332 0.763130 0.257459 0.737365
C46   C     C_3   0.515761 0.851132 0.318929 -0.177872
C47   C     C_3   0.968039 0.764881 0.305387 0.319547
C48   C     C_3   0.033858 0.773779 0.222372 0.360245
C49   C     C_2   0.691453 0.749611 0.503157 -0.268646
H1    H     H_    0.731331 0.342123 0.708567 0.063012
H2    H     H_    0.877470 0.830669 0.798221 0.154764
H3    H     H_    0.745719 0.328316 0.848543 0.067911
H4    H     H_    0.087829 0.319577 0.334662 0.043499
H5    H     H_    0.881816 0.276686 0.347876 0.047861
H6    H     H_    0.131464 0.205754 0.205848 0.152320
H7    H     H_    0.071642 0.164132 0.290849 0.070945
H8    H     H_    0.929670 0.158804 0.216782 0.181035
H9    H     H_    0.745728 0.214849 0.803529 0.202187
H10   H     H_    0.284182 0.144726 0.728527 0.219320
H11   H     H_    0.639767 0.740757 0.263406 -0.274382
H12   H     H_    0.168126 0.809924 0.802481 0.025519
H13   H     H_    0.510627 0.845632 0.381432 0.017825
H14   H     H_    0.624115 0.893551 0.310088 0.137441
H15   H     H_    0.405299 0.879380 0.313146 0.187395
H16   H     H_    0.862917 0.802956 0.328077 -0.024778
H17   H     H_    0.928141 0.696799 0.296082 -0.120391
H18   H     H_    0.953387 0.734586 0.174648 0.027149
H19   H     H_    0.478821 0.251327 0.629013 0.084932
H20   H     H_    0.154813 0.750147 0.206971 0.104915
H21   H     H_    0.420582 0.129396 0.415224 0.212113
H22   H     H_    0.712399 0.683106 0.484085 0.061142
H23   H     H_    0.345475 0.812285 0.852714 0.071790
H24   H     H_    0.066863 0.309112 0.481678 0.064207
H25   H     H_    0.886239 0.952690 0.419790 0.099857
H26   H     H_    0.021112 0.459010 0.136283 0.103539
H27   H     H_    0.209624 0.446524 0.889103 0.097840
H28   H     H_    0.620491 0.589851 0.116804 0.092296
H29   H     H_    0.264787 0.231140 0.626097 0.098893
H30   H     H_    0.786095 0.551216 0.851812 0.131951
H31   H     H_    0.158505 0.484734 0.658120 0.076076
H32   H     H_    0.692489 0.551325 0.345335 0.028948
H33   H     H_    0.354693 0.101274 0.621582 0.133867
H34   H     H_    0.635208 0.296965 0.286508 -0.019305
H35   H     H_    0.493075 0.149016 0.699869 0.135268
H36   H     H_    0.196950 0.663166 0.714927 0.000180
H37   H     H_    0.864957 0.712157 0.936036 0.390021
H38   H     H_    0.497956 0.430022 0.311090 0.280808
H39   H     H_    0.371486 0.018346 0.213052 0.393194
H40   H     H_    0.336591 0.123954 0.138324 0.002417
H41   H     H_    0.568885 0.887222 0.777748 0.042586
H42   H     H_    0.015886 0.303777 0.774709 0.031320
H43   H     H_    0.383415 0.645602 0.114788 0.307077
H44   H     H_    0.096267 0.002829 0.309626 0.357397
H45   H     H_    0.699296 0.190357 0.159862 0.077545
H46   H     H_    0.301885 0.857677 0.670061 0.027185
H47   H     H_    0.682116 0.058236 0.643477 0.327489
H48   H     H_    0.403578 0.576945 0.731127 -0.037189
H49   H     H_    0.670873 0.683638 0.685814 0.023928
H50   H     H_    0.841922 0.739046 0.646119 0.007454
H51   H     H_    0.573883 0.268736 0.799334 0.167855
H52   H     H_    0.681659 0.783940 0.822539 0.136486
O1    O     O_2   0.563480 0.287900 0.421550 -0.460686
O2    O     O_2   0.306881 0.551376 0.236144 -0.420332
O3    O     O_3   0.387234 0.711776 0.275596 -0.632678
O4    O     O_3   0.344560 0.396140 0.441010 -0.495389
O5    O     O_3   0.942720 0.544140 0.599330 -0.485811
O6    O     O_2   0.129060 0.458130 0.306750 -0.394379
O7    O     O_3   0.928109 0.324643 0.249936 -0.615479
O8    O     O_2   0.139731 0.810989 0.513194 -0.450624
O9    O     O_3   0.089017 0.792367 0.361289 -0.555061
O10   O     O_3   0.805120 0.340890 0.569250 -0.478373
O11   O     O_2   0.653874 0.188623 0.500194 -0.498609
O12   O     O_3   0.895875 0.678357 0.724636 -0.597858
O13   O     O_3   0.385659 0.262685 0.294125 -0.656476
O14   O     O_3   0.743246 0.212927 0.649219 -0.604011
O15   O     O_2   0.681260 0.541920 0.693290 -0.481885
O16   O     O_3   0.399420 0.384560 0.615960 -0.493351
O17   O     O_2   0.529969 0.442980 0.762505 -0.498895
O18   O     O_2   0.183394 0.671882 0.927693 -0.257607
O19   O     O_2   0.122611 0.819337 0.980505 -0.170676
O20   O     O_3   0.924994 0.714462 0.884001 -0.534675
O21   O     O_2   0.661072 0.352402 0.141870 -0.334538
O22   O     O_2   0.372778 0.303288 0.134939 -0.265680
O23   O     O_3   0.346644 0.301264 0.739146 -0.605803
O24   O     O_3   0.454786 0.427955 0.259144 -0.488854
O25   O     O_2   0.675533 0.140846 0.317605 -0.319549
O26   O     O_2   0.680695 0.032374 0.184815 -0.200506
O27   O     O_3   0.401686 0.063372 0.263504 -0.539593
O28   O     O_2   0.509707 0.129224 0.051188 -0.501769
O29   O     O_2   0.756833 0.897689 0.699341 -0.509084
O30   O     O_2   0.044167 0.316326 0.663260 -0.657430
O31   O     O_2   0.493038 0.855583 0.155565 -0.165787
O32   O     O_2   0.684293 0.747712 0.109821 -0.273564
O33   O     O_3   0.378151 0.699178 0.102337 -0.447200
O34   O     O_2   0.246830 0.712160 0.578490 -0.464997
O35   O     O_2   0.154322 0.889808 0.148248 -0.168070
O36   O     O_2   0.881578 0.904335 0.215362 -0.231175
O37   O     O_3   0.125666 0.946074 0.306627 -0.537526
O38   O     O_2   0.374917 0.971423 0.662323 -0.566174
O39   O     O_2   0.029974 0.989880 0.651766 -0.206177
O40   O     O_2   0.026150 0.141889 0.681074 -0.337330
O41   O     O_3   0.752744 0.053299 0.683983 -0.426233
O42   O     O_2   0.465004 0.660479 0.836243 -0.525924
O43   O     O_3   0.465730 0.603870 0.559050 -0.500687
O44   O     O_3   0.005180 0.659120 0.430820 -0.479112
O45   O     O_3   0.412361 0.738264 0.705670 -0.740604
O46   O     O_3   0.867570 0.455870 0.400730 -0.510562
O47   O     O_3   0.410870 0.615450 0.384100 -0.462222
P1    P     P_3+3 0.397200 0.301470 0.401420 1.014095
P2    P     P_3+3 0.862850 0.568080 0.686620 1.034718
P3    P     P_3+3 0.372300 0.400319 0.721946 0.998409
P4    P     P_3+3 0.413100 0.698540 0.598650 0.926627
P5    P     P_3+3 0.441198 0.615408 0.281612 1.024560
P6    P     P_3+3 0.796004 0.231096 0.553917 1.010508
P7    P     P_3+3 0.942545 0.433943 0.298320 1.017614
P8    P     P_3+3 0.011245 0.769321 0.450806 1.033905
S1    S     S_3+6 0.118253 0.742170 0.906844 -0.025909
S2    S     S_3+6 0.507555 0.337797 0.191067 -0.085879
S3    S     S_3+6 0.588816 0.103028 0.240717 -0.092276
S4    S     S_3+6 0.522625 0.768064 0.154366 0.019024
S5    S     S_3+6 0.047337 0.880966 0.221161 -0.002126
S6    S     S_3+6 0.941339 0.058058 0.639921 -0.028169

loop_
_geom_bond_atom_site_label_1
_geom_bond_atom_site_label_2
_ccdc_geom_bond_type
Ba2   O47   S    
C44   H48   S    
Ba2   O6    S    
C47   H17   S    
C18   H31   S    
C14   H21   S    
C23   H5    S    
C35   H23   S    
C34   H8    S    
O6    P7    D    
C45   H11   S    
O22   S2    D    
O33   S4    S    
O37   S5    S    
C13   C17   A    
H44   O37   S    
C16   H35   S    
O45   P4    S    
O1    P1    D    
C41   O29   D    
C48   H18   S    
C22   C24   A    
C40   H40   S    
C34   H7    S    
C9    H25   S    
O39   S6    D    
C36   C37   S    
C1    H3    S    
C46   H13   S    
C44   O42   D    
Ba2   O4    S    
Ba1   P2    S    
Ba1   Ba2   S    
Ba1   O16   S    
C19   P2    S    
O25   S3    D    
C2    H24   S    
C42   H42   S    
C38   H50   S    
O5    P2    S    
C2    C17   A    
C12   H1    S    
C29   C30   A    
C26   C33   A    
C14   C15   A    
O12   P2    S    
H43   O33   S    
C21   C22   A    
Ba1   O46   S    
C40   O28   D    
O17   P3    D    
C46   H14   S    
C37   S3    S    
C7    C8    S    
C27   P5    S    
O4    P1    S    
C1    H9    S    
C45   O3    S    
Ba2   O46   S    
C25   C30   A    
C6    P8    S    
Ba2   P4    S    
C19   C20   A    
O41   S6    S    
C43   O38   D    
C17   P6    S    
C39   C41   S    
Ba1   O43   S    
C15   P1    S    
Ba1   O10   S    
H37   O20   S    
O11   P6    D    
C35   H12   S    
C28   C44   S    
C37   C40   S    
C4    C16   S    
C28   O45   S    
C36   H34   S    
C20   H30   S    
C23   H4    S    
C4    O23   S    
C34   H6    S    
C3    C5    D    
C33   H32   S    
C6    C7    S    
C23   C34   S    
Ba2   O44   S    
C3    C43   S    
O31   S4    D    
C28   C35   S    
H39   O27   S    
C48   H20   S    
C10   S6    S    
C36   O13   S    
C4    H29   S    
C45   C46   S    
O43   P4    S    
C10   C13   S    
O19   S1    D    
C21   C32   S    
O14   P6    S    
C31   C32   T    
O26   S3    D    
O15   P2    D    
C7    C9    S    
Ba1   O1    S    
C39   H2    S    
O35   S5    D    
O7    P7    S    
O9    P8    S    
C23   O7    S    
Ba1   O4    S    
C47   O9    S    
C2    C15   A    
O27   S3    S    
C22   H27   S    
C38   C39   S    
O2    P5    D    
O3    P5    S    
O47   P5    S    
C11   C13   A    
O32   S4    D    
O10   P6    S    
O40   S6    D    
C1    H51   S    
C12   C42   S    
H38   O24   S    
C6    C49   D    
C42   O30   D    
C4    H19   S    
C47   H16   S    
H47   O41   S    
C48   S5    S    
Ba2   O34   S    
O8    P8    D    
C49   H22   S    
C25   H26   S    
C38   H49   S    
C9    C10   D    
C16   H10   S    
C29   H28   S    
C1    C12   S    
Ba2   O43   S    
C27   C33   A    
C41   H41   S    
C30   C31   S    
C35   S1    S    
O36   S5    D    
C36   S2    S    
C16   H33   S    
C27   C29   A    
C43   H46   S    
C5    P4    S    
C18   C24   A    
O21   S2    D    
Ba2   O5    S    
C26   P7    S    
O34   P4    D    
Ba1   P1    S    
Ba1   O15   S    
C37   H45   S    
O20   S1    S    
C24   P3    S    
Ba1   O5    S    
C5    C49   S    
C38   O12   S    
O23   P3    S    
C39   H52   S    
C3    C8    S    
C18   C19   A    
O16   P3    S    
C47   C48   S    
O18   S1    D    
C11   C14   A    
C25   C26   A    
C20   C21   A    
C12   O14   S    
C46   H15   S    
C28   H36   S    
O44   P8    S    
O46   P7    S    
O24   S2    S    
C45   S4    S    
O13   P1    S    
