data_mof_unit_14362.cif
_audit_creation_date              2013-03-05T15:59:11-0500
_audit_creation_method            fapswitch 2.2
_symmetry_space_group_name_H-M    P1
_symmetry_Int_Tables_number       1
_space_group_crystal_system       triclinic
_cell_length_a                    12.717257
_cell_length_b                    12.977927
_cell_length_c                    15.708124
_cell_angle_alpha                 91.384052
_cell_angle_beta                  101.343221
_cell_angle_gamma                 83.169179
_cell_volume                      2523.84102055

loop_
_atom_site_label
_atom_site_type_symbol
_atom_site_description
_atom_site_fract_x
_atom_site_fract_y
_atom_site_fract_z
_atom_type_partial_charge
O1    O     O_R   0.366740 0.627160 0.478850 -0.563752
O2    O     O_R   0.544830 0.662520 0.507140 -0.585034
C1    C     C_R   0.439386 0.691111 0.488078 0.930015
O3    O     O_R   0.410920 0.482310 0.608710 -0.596640
O4    O     O_R   0.589010 0.517670 0.637000 -0.584719
C2    C     C_R   0.500290 0.499444 0.661020 0.897214
Zn1   Zn    Zn3+2 0.381090 0.476390 0.481110 1.040026
Zn2   Zn    Zn3+2 0.618910 0.523610 0.518890 1.067720
O5    O     O_R   0.455170 0.337480 0.492860 -0.634188
O6    O     O_R   0.633260 0.372840 0.521150 -0.603705
O7    O     O_R   0.410990 0.482330 0.363000 -0.603539
O8    O     O_R   0.589080 0.517690 0.391290 -0.558743
C3    C     C_R   0.559624 0.309225 0.512920 0.877322
C4    C     C_R   0.499414 0.501290 0.338842 0.910367
C5    C     C_3   0.374176 0.539045 0.931462 0.418714
C6    C     C_3   0.566129 0.589481 0.958934 -0.439129
C7    C     C_3   0.566413 0.600633 0.058955 0.462228
C8    C     C_1   0.497875 0.506795 0.249804 0.019167
C9    C     C_3   0.493166 0.506431 0.915820 -0.126725
C10   C     C_3   0.379889 0.531121 0.031910 -0.464811
C11   C     C_3   0.498874 0.514546 0.082898 -0.053338
C12   C     C_3   0.550362 0.406272 0.057650 -0.464294
C13   C     C_3   0.536845 0.397664 0.958072 0.127260
C14   C     C_1   0.498163 0.511766 0.174612 0.124217
C15   C     C_1   0.496768 0.502727 0.824577 0.145764
C16   C     C_1   0.499595 0.500545 0.749708 0.027908
C17   C     C_R   0.620995 0.094311 0.668582 -0.029701
C18   C     C_R   0.591480 0.203575 0.542201 -0.033039
C19   C     C_R   0.338501 0.822037 0.381395 0.183338
C20   C     C_R   0.330669 0.922689 0.348220 0.306160
C21   C     C_R   0.390080 0.995213 0.397011 -0.200544
C22   C     C_R   0.448707 0.972447 0.482206 0.010296
C23   C     C_R   0.438034 0.878615 0.520680 -0.079724
C24   C     C_R   0.515809 0.040797 0.530664 0.090652
C25   C     C_R   0.557184 0.022889 0.620692 -0.020562
C26   C     C_R   0.527941 0.938495 0.662013 0.246911
C27   C     C_R   0.466977 0.866362 0.612240 0.262437
C28   C     C_R   0.541032 0.128240 0.491941 -0.148110
C29   C     C_R   0.636419 0.185113 0.629707 -0.179669
C30   C     C_R   0.399029 0.799032 0.465779 -0.184405
H1    H     H_    0.383144 0.071156 0.368881 0.189893
C31   C     C_R   0.110958 0.309012 0.419382 0.247739
N1    N     N_R   0.222200 0.444690 0.455710 -0.130296
C32   C     C_R   0.799718 0.639025 0.595837 0.346948
C33   C     C_R   0.905385 0.666317 0.618501 0.200249
C34   C     C_R   0.987069 0.608069 0.585867 -0.230909
C35   C     C_R   0.966106 0.522531 0.531814 -0.025111
C36   C     C_R   0.858996 0.494160 0.512499 0.046252
C37   C     C_R   0.048664 0.465008 0.495178 0.003293
C38   C     C_R   0.030977 0.366835 0.457459 -0.024129
C39   C     C_R   0.931584 0.331142 0.454175 -0.194062
C40   C     C_R   0.842962 0.401160 0.463399 0.324985
C41   C     C_R   0.147848 0.502076 0.493118 0.046774
C42   C     C_R   0.206751 0.350459 0.419932 -0.019168
N2    N     N_R   0.776960 0.554780 0.543830 -0.196898
H2    H     H_    0.332848 0.597829 0.057759 0.279896
N3    N     N_R   0.295148 0.470441 0.887281 0.207604
O9    O     O_R   0.196195 0.486151 0.899573 -0.271550
O10   O     O_R   0.316943 0.403570 0.828257 -0.376950
H3    H     H_    0.339772 0.463237 0.045658 0.214101
H4    H     H_    0.636883 0.392994 0.089829 0.273934
H5    H     H_    0.674212 0.244921 0.669705 0.176731
N4    N     N_R   0.556535 0.928070 0.754600 0.234066
O11   O     O_R   0.655979 0.898706 0.791873 -0.236050
O12   O     O_R   0.482485 0.944820 0.801468 -0.251534
H6    H     H_    0.652841 0.084429 0.737360 0.219905
H7    H     H_    0.514560 0.145107 0.423673 0.145113
N5    N     N_R   0.290309 0.742231 0.328063 0.227279
O13   O     O_R   0.319595 0.717374 0.254781 -0.312463
O14   O     O_R   0.207190 0.704766 0.346845 -0.292681
N6    N     N_R   0.265359 0.951455 0.264568 0.272290
O15   O     O_R   0.176527 0.910433 0.235975 -0.205962
O16   O     O_R   0.288465 0.026361 0.220372 -0.290559
N7    N     N_R   0.335337 0.645551 0.898474 0.230488
O17   O     O_R   0.312627 0.662091 0.815111 -0.261548
O18   O     O_R   0.316095 0.722793 0.949756 -0.253112
N8    N     N_R   0.425377 0.787350 0.654862 0.213595
O19   O     O_R   0.482473 0.740945 0.724122 -0.296433
O20   O     O_R   0.325361 0.769588 0.629810 -0.327165
H8    H     H_    0.270657 0.306481 0.393435 0.166583
H9    H     H_    0.916132 0.257197 0.424031 0.233421
N9    N     N_R   0.095669 0.210482 0.378437 0.213726
O21   O     O_R   0.019573 0.204258 0.310391 -0.275175
O22   O     O_R   0.169474 0.131959 0.398509 -0.371412
H10   H     H_    0.168567 0.575550 0.520647 0.166678
N10   N     N_R   0.715246 0.703831 0.624294 0.239273
O23   O     O_R   0.689629 0.682972 0.697606 -0.284191
O24   O     O_R   0.692178 0.797864 0.593987 -0.391283
H11   H     H_    0.067876 0.628414 0.607164 0.213902
N11   N     N_R   0.930913 0.753284 0.674470 0.254573
O25   O     O_R   0.882133 0.776050 0.739108 -0.219290
O26   O     O_R   0.010933 0.803810 0.666426 -0.273384
N12   N     N_R   0.754768 0.396052 0.392702 0.231673
O27   O     O_R   0.753847 0.452692 0.325192 -0.308793
O28   O     O_R   0.709905 0.310439 0.379670 -0.403277
H12   H     H_    0.648097 0.571632 0.944562 0.269187
H13   H     H_    0.536789 0.665065 0.925518 0.252774
N13   N     N_R   0.519065 0.707046 0.075836 0.236249
O29   O     O_R   0.561047 0.785603 0.051720 -0.242290
O30   O     O_R   0.452903 0.724639 0.129407 -0.292082
N14   N     N_R   0.677257 0.586055 0.111765 0.223064
O31   O     O_R   0.760641 0.549374 0.079245 -0.271592
O32   O     O_R   0.693668 0.615622 0.192605 -0.274490
H14   H     H_    0.474966 0.343930 0.936563 0.189768
N15   N     N_R   0.636789 0.350612 0.932023 0.236195
O33   O     O_R   0.635666 0.266310 0.885448 -0.340093
O34   O     O_R   0.727461 0.389753 0.956470 -0.282352
H15   H     H_    0.510659 0.343572 0.081398 0.204737

loop_
_geom_bond_atom_site_label_1
_geom_bond_atom_site_label_2
_geom_bond_distance
_ccdc_geom_bond_type
C36   N2    1.391971 A    
N4    O12   1.300910 A    
N14   O31   1.301274 A    
C4    C8    1.398329 S    
C9    C13   1.566942 S    
C25   C26   1.409029 A    
C31   N9    1.434164 S    
C10   H2    1.107976 S    
C20   N6    1.440991 S    
N11   O25   1.301053 A    
C35   C37   1.421716 A    
C34   H11   1.078288 S    
C2    C16   1.394605 S    
N8    O19   1.300165 A    
C5    C9    1.586906 S    
N15   O34   1.300336 A    
N12   O27   1.302215 A    
N7    O18   1.301492 A    
C8    C14   1.185192 T    
C26   C27   1.409808 A    
O4    C2    1.306358 A    
Zn2   O6    1.943975 S    
O7    C4    1.306632 A    
C12   H15   1.114774 S    
C6    H13   1.112527 S    
N3    O10   1.301764 A    
C13   N15   1.470946 S    
C24   C25   1.422972 A    
C7    N14   1.481603 S    
O5    C3    1.312770 A    
N1    C41   1.350526 A    
C35   C36   1.426332 A    
C17   C29   1.391727 A    
C6    C7    1.573650 S    
C3    C18   1.442453 S    
Zn1   N1    2.069813 S    
C10   H3    1.114681 S    
C26   N4    1.433705 S    
C7    N13   1.478986 S    
C39   H9    1.081701 S    
N12   O28   1.302211 A    
O1    Zn1   1.943974 S    
C11   C12   1.554638 S    
C5    N3    1.480889 S    
O3    Zn1   1.966633 S    
C32   N10   1.420217 S    
Zn2   N2    2.057443 S    
C42   H8    1.082001 S    
N8    O20   1.301640 A    
C5    C10   1.570494 S    
C6    H12   1.106265 S    
C23   C30   1.402515 A    
N7    O17   1.301632 A    
C39   C40   1.389653 A    
O3    C2    1.303943 A    
N6    O16   1.301588 A    
N10   O23   1.299695 A    
N5    O13   1.300005 A    
C18   C29   1.395620 A    
C17   C25   1.410211 A    
C15   C16   1.183202 T    
C33   C34   1.384650 A    
C27   N8    1.442605 S    
N9    O21   1.301172 A    
C23   C27   1.420623 A    
O1    C1    1.298935 A    
C22   C24   1.409391 A    
Zn1   O7    1.970788 S    
C19   C20   1.403319 A    
C19   N5    1.434319 S    
N1    C42   1.352966 A    
N11   O26   1.301855 A    
C13   H14   1.110985 S    
C18   C28   1.379662 A    
Zn2   O8    1.966634 S    
C38   C39   1.388324 A    
C40   N12   1.421187 S    
C10   C11   1.559346 S    
C33   N11   1.441919 S    
C31   C38   1.411215 A    
N5    O14   1.301008 A    
O8    C4    1.305389 A    
C1    C30   1.459366 S    
N13   O29   1.302177 A    
N13   O30   1.300671 A    
C32   C33   1.406033 A    
Zn1   O5    1.927494 S    
C29   H5    1.083787 S    
C34   C35   1.400056 A    
C21   H1    1.076763 S    
C24   C28   1.399072 A    
C21   C22   1.417142 A    
O2    Zn2   1.927494 S    
O6    C3    1.306284 A    
O4    Zn2   1.970790 S    
N15   O33   1.301294 A    
N9    O22   1.300176 A    
C22   C23   1.404896 A    
O2    C1    1.324606 A    
N6    O15   1.301272 A    
C17   H6    1.081617 S    
C31   C42   1.387434 A    
C12   H4    1.111845 S    
C32   N2    1.373175 A    
N3    O9    1.301963 A    
C20   C21   1.396659 A    
C6    C9    1.561010 S    
C37   C41   1.408762 A    
C19   C30   1.414826 A    
N10   O24   1.299973 A    
C9    C15   1.442440 S    
C7    C11   1.582092 S    
N4    O11   1.300863 A    
C36   C40   1.429985 A    
C5    N7    1.481395 S    
C28   H7    1.078431 S    
N14   O32   1.301756 A    
C37   C38   1.415698 A    
C11   C14   1.443811 S    
C12   C13   1.542427 S    
C41   H10   1.077353 S    
