data_mof_unit_41570.cif
_audit_creation_date              2012-12-11T16:56:20-0500
_audit_creation_method            fapswitch 2.2
_symmetry_space_group_name_H-M    P1
_symmetry_Int_Tables_number       1
_space_group_crystal_system       triclinic
_cell_length_a                    6.946384
_cell_length_b                    14.564944
_cell_length_c                    16.24011
_cell_angle_alpha                 90.623773
_cell_angle_beta                  90.630241
_cell_angle_gamma                 89.88201
_cell_volume                      1642.87206203

loop_
_atom_site_label
_atom_site_type_symbol
_atom_type_description
_atom_site_fract_x
_atom_site_fract_y
_atom_site_fract_z
_atom_type_partial_charge
O1    O     O_R   0.505830 0.583360 0.413880 -0.535764
O2    O     O_R   0.175830 0.595460 0.585520 -0.543108
O3    O     O_R   0.005520 0.416640 0.586120 -0.547729
C1    C     C_R   0.345551 0.619197 0.613034 0.750679
O4    O     O_R   0.176120 0.594390 0.414490 -0.551028
O5    O     O_R   0.005810 0.415570 0.413870 -0.525417
C2    C     C_R   0.344885 0.617144 0.386518 0.744109
O6    O     O_R   0.505540 0.584430 0.586130 -0.535501
O7    O     O_3   0.339200 0.441330 0.500000 -0.358530
V1    V     V_3+5 0.064350 0.510880 0.500000 1.483739
O8    O     O_R   0.676100 0.404540 0.414480 -0.531497
C3    C     C_R   0.844468 0.381743 0.386827 0.725970
O9    O     O_R   0.675810 0.405610 0.585510 -0.519296
C4    C     C_R   0.847120 0.380021 0.610874 0.653427
V2    V     V_3+5 0.564340 0.489120 0.500000 1.517814
O10   O     O_3   0.839360 0.558670 0.500000 -0.387637
C5    C     C_2   0.739168 0.182648 0.765479 0.304810
C6    C     C_2   0.869995 0.188549 0.829112 0.228214
C7    C     C_2   0.717177 0.255011 0.699910 0.375435
C8    C     C_2   0.870048 0.301935 0.670058 0.105454
C9    C     C_R   0.769130 0.257075 0.184076 -0.166532
C10   C     C_R   0.889077 0.180036 0.188311 -0.265594
C11   C     C_R   0.011281 0.173743 0.259996 0.414371
C12   C     C_R   0.990759 0.236718 0.326595 0.399191
C13   C     C_R   0.856757 0.310661 0.321698 -0.283040
C14   C     C_R   0.755755 0.320731 0.247608 -0.061899
C15   C     C_3   0.551736 0.345647 0.225624 0.621511
C16   C     C_3   0.566153 0.274560 0.154740 0.582412
C17   C     C_R   0.497447 0.681597 0.742049 -0.010320
C18   C     C_R   0.359322 0.690933 0.679005 -0.186834
C19   C     C_R   0.235777 0.769334 0.682711 0.263694
C20   C     C_R   0.239700 0.828528 0.752983 0.429496
C21   C     C_R   0.376000 0.814954 0.817471 -0.188516
C22   C     C_R   0.503342 0.740979 0.809979 -0.138465
C23   C     C_3   0.536318 0.663613 0.868724 0.340853
C24   C     C_3   0.541145 0.599569 0.793512 0.189832
H1    H     H_    0.675632 0.670654 0.902974 -0.004458
H2    H     H_    0.685441 0.569612 0.780292 0.035790
C25   C     C_R   0.506861 0.683366 0.262904 -0.077090
C26   C     C_R   0.355760 0.686944 0.319912 -0.209714
C27   C     C_R   0.234045 0.765346 0.317903 0.379268
C28   C     C_R   0.241785 0.827267 0.251906 0.418045
C29   C     C_R   0.378230 0.816020 0.188105 -0.194454
C30   C     C_R   0.520245 0.748572 0.199104 -0.182043
C31   C     C_3   0.726158 0.770651 0.223035 0.757046
C32   C     C_3   0.714541 0.695062 0.287071 0.523828
O11   O     O_R   0.229930 0.912420 0.917160 -0.530892
O12   O     O_R   0.559420 0.902500 0.088780 -0.523205
O13   O     O_R   0.729660 0.081330 0.089380 -0.526448
C33   C     C_R   0.390978 0.882337 0.118822 0.766027
O14   O     O_R   0.559650 0.901420 0.917750 -0.560060
O15   O     O_R   0.729880 0.080250 0.917130 -0.552624
C34   C     C_R   0.389581 0.879116 0.889137 0.756062
O16   O     O_R   0.229700 0.913500 0.089410 -0.551938
O17   O     O_3   0.396250 0.055540 0.003280 -0.367675
V3    V     V_3+5 0.671130 0.986010 0.003260 1.459271
O18   O     O_R   0.059600 0.091310 0.917720 -0.537604
C35   C     C_R   0.888757 0.113246 0.889855 0.682152
O19   O     O_R   0.059370 0.092380 0.088750 -0.537789
C36   C     C_R   0.892239 0.112371 0.119134 0.735346
V4    V     V_3+5 0.171120 0.007820 0.003230 1.485377
O20   O     O_3   0.896130 0.938240 0.003240 -0.374727
O21   O     O_3   0.622657 0.105413 0.759285 -0.589565
C37   C     C_3   0.439066 0.125357 0.791962 -0.093609
H3    H     H_    0.341495 0.152893 0.743787 0.203352
H4    H     H_    0.443573 0.173402 0.845916 0.121132
H5    H     H_    0.374602 0.060318 0.813064 0.159358
O22   O     O_3   0.438763 0.199783 0.161123 -0.627862
H6    H     H_    0.483158 0.160226 0.206968 0.284810
O23   O     O_3   0.109682 0.791463 0.619743 -0.616117
H7    H     H_    0.149451 0.759308 0.569026 0.285648
O24   O     O_3   0.118379 0.904027 0.755724 -0.548850
C38   C     C_3   0.932485 0.874708 0.777925 -0.095402
H8    H     H_    0.934830 0.834988 0.836162 0.104908
H9    H     H_    0.863309 0.833399 0.727942 0.160780
H10   H     H_    0.841144 0.936188 0.788271 0.162439
O25   O     O_3   0.371536 0.650423 0.917787 -0.534293
C39   C     C_3   0.412474 0.587340 0.980881 -0.175607
H11   H     H_    0.508792 0.530166 0.961001 0.127870
H12   H     H_    0.275190 0.556294 0.000835 0.166858
H13   H     H_    0.475562 0.623867 0.034790 0.121219
O26   O     O_3   0.390017 0.535708 0.790925 -0.610270
H14   H     H_    0.442176 0.478700 0.815584 0.296452
O27   O     O_3   0.117766 0.789576 0.382830 -0.610989
H15   H     H_    0.167449 0.760359 0.433250 0.275960
O28   O     O_3   0.137614 0.906973 0.259840 -0.613518
H16   H     H_    0.063231 0.915535 0.208420 0.316271
O29   O     O_3   0.733057 0.860329 0.256498 -0.641340
H17   H     H_    0.826488 0.861445 0.302729 0.366010
O30   O     O_3   0.981166 0.266815 0.840434 -0.542086
C40   C     C_3   0.922588 0.313261 0.912600 -0.234086
H18   H     H_    0.960110 0.273553 0.968675 0.138184
H19   H     H_    0.765664 0.329103 0.910668 0.117611
H20   H     H_    0.000453 0.379595 0.916916 0.183760
O31   O     O_3   0.875722 0.757310 0.164403 -0.554613
C41   C     C_3   0.821467 0.704439 0.094687 -0.209897
H21   H     H_    0.766457 0.635954 0.112341 0.164642
H22   H     H_    0.950795 0.692886 0.056437 0.161632
H23   H     H_    0.714809 0.741895 0.056256 0.135331
O32   O     O_3   0.737684 0.726623 0.368976 -0.642191
H24   H     H_    0.830583 0.685754 0.397137 0.338747
O33   O     O_3   0.827568 0.617457 0.267798 -0.643189
H25   H     H_    0.777093 0.565856 0.300509 0.302521
O34   O     O_3   0.534146 0.270761 0.668131 -0.573960
C42   C     C_3   0.508136 0.216163 0.596256 -0.148069
H26   H     H_    0.512971 0.141697 0.610324 0.175032
H27   H     H_    0.616443 0.231800 0.548444 0.105265
H28   H     H_    0.364137 0.231208 0.569415 0.174900
O35   O     O_3   0.052682 0.268976 0.688490 -0.635902
H29   H     H_    0.151117 0.314096 0.672522 0.340769
O36   O     O_3   0.142977 0.103979 0.272090 -0.593731
H30   H     H_    0.165999 0.070842 0.220191 0.318129
O37   O     O_3   0.100427 0.220615 0.396587 -0.606345
H31   H     H_    0.039448 0.250513 0.444708 0.272228
O38   O     O_3   0.537423 0.436840 0.199351 -0.628258
H32   H     H_    0.403126 0.445003 0.179246 0.311582
O39   O     O_3   0.415519 0.325202 0.286539 -0.627835
H33   H     H_    0.455057 0.267760 0.314440 0.294331
O40   O     O_3   0.559302 0.314077 0.076397 -0.639638
H34   H     H_    0.589026 0.263910 0.036663 0.287696

loop_
_geom_bond_atom_site_label_1
_geom_bond_atom_site_label_2
_ccdc_geom_bond_type
O2    V1    S    
C9    C14   A    
C27   C28   A    
O31   C41   S    
C1    O6    A    
O30   C40   S    
C20   O24   S    
O25   C39   S    
C32   O33   S    
C17   C24   S    
C14   C15   S    
C33   O16   A    
O13   C36   A    
C16   O22   S    
C22   C23   S    
C10   C36   S    
C18   C19   A    
C39   H12   S    
O38   H32   S    
C41   H23   S    
O14   V3    S    
C38   H8    S    
O8    V2    S    
C6    C35   S    
C19   O23   S    
C7    C8    D    
C24   O26   S    
O22   H6    S    
C41   H22   S    
C2    C26   S    
O23   H7    S    
C28   O28   S    
O7    V1    S    
O11   C34   A    
O12   C33   A    
C12   O37   S    
O9    C4    A    
C38   H9    S    
V4    O20   S    
O34   C42   S    
C21   C22   A    
C15   O39   S    
C21   C34   S    
C42   H28   S    
O19   V4    S    
V2    O10   S    
C6    O30   S    
C37   H5    S    
C4    C8    S    
C31   O29   S    
C12   C13   A    
C40   H18   S    
O4    C2    A    
O28   H16   S    
C13   C14   A    
C31   C32   S    
C27   O27   S    
C17   C22   A    
C23   O25   S    
O21   C37   S    
O14   C34   A    
C23   C24   S    
C37   H4    S    
O2    C1    A    
C29   C30   A    
O5    V1    S    
C17   C18   A    
C40   H19   S    
C42   H27   S    
C7    O34   S    
C19   C20   A    
C11   C12   A    
C41   H21   S    
O17   V3    S    
C5    C6    D    
O27   H15   S    
O3    C4    A    
O15   C35   A    
C25   C32   S    
O1    V2    S    
C26   C27   A    
C9    C16   S    
O6    V2    S    
O9    V2    S    
C38   H10   S    
V3    O20   S    
C28   C29   A    
C31   O31   S    
C25   C26   A    
C30   C31   S    
O37   H31   S    
O12   V3    S    
C32   O32   S    
O36   H30   S    
C23   H1    S    
O1    C2    A    
O24   C38   S    
C16   O40   S    
O11   V4    S    
O40   H34   S    
C29   C33   S    
O18   V4    S    
C25   C30   A    
O16   V4    S    
O13   V3    S    
C11   O36   S    
C42   H26   S    
C3    C13   S    
C20   C21   A    
C24   H2    S    
O7    V2    S    
O4    V1    S    
O3    V1    S    
V1    O10   S    
O39   H33   S    
C37   H3    S    
C40   H20   S    
O5    C3    A    
C39   H11   S    
C39   H13   S    
O18   C35   A    
O17   V4    S    
O32   H24   S    
C5    C7    S    
O33   H25   S    
C1    C18   S    
C8    O35   S    
O19   C36   A    
O29   H17   S    
O26   H14   S    
O35   H29   S    
C15   C16   S    
C10   C11   A    
C9    C10   A    
C5    O21   S    
O15   V3    S    
O8    C3    A    
C15   O38   S    
