data_mof_unit_15871.cif
_audit_creation_date              2012-12-10T17:51:30-0500
_audit_creation_method            fapswitch 2.2
_symmetry_space_group_name_H-M    P1
_symmetry_Int_Tables_number       1
_space_group_crystal_system       triclinic
_cell_length_a                    9.890386
_cell_length_b                    10.7255
_cell_length_c                    16.628455
_cell_angle_alpha                 91.860862
_cell_angle_beta                  84.142504
_cell_angle_gamma                 89.289683
_cell_volume                      1753.58122503

loop_
_atom_site_label
_atom_site_type_symbol
_atom_type_description
_atom_site_fract_x
_atom_site_fract_y
_atom_site_fract_z
_atom_type_partial_charge
C1    C     C_R   0.498969 0.740165 0.495208 0.867332
C2    C     C_R   0.537142 0.455408 0.261583 -0.031575
C3    C     C_R   0.242069 0.892567 0.482884 -0.163237
C4    C     C_R   0.479869 0.496498 0.653651 0.866288
C5    C     C_R   0.120229 0.955757 0.508192 -0.146048
C6    C     C_R   0.122147 0.068819 0.551148 -0.143721
C7    C     C_R   0.246085 0.124399 0.561256 -0.141654
C8    C     C_R   0.370101 0.066314 0.528535 0.090791
C9    C     C_R   0.368573 0.942071 0.500815 0.094516
C10   C     C_R   0.494150 0.874236 0.492573 -0.126879
C11   C     C_R   0.617569 0.935792 0.494961 -0.217931
C12   C     C_R   0.359752 0.398186 0.775647 0.488349
C13   C     C_R   0.618380 0.062777 0.505250 -0.202537
C14   C     C_R   0.495543 0.128924 0.519328 -0.124059
C15   C     C_R   0.840689 0.667607 0.604559 -0.321419
C16   C     C_R   0.498740 0.261221 0.508429 0.891015
C17   C     C_R   0.901797 0.750999 0.656083 0.449166
C18   C     C_R   0.042003 0.749495 0.655221 -0.194006
C19   C     C_R   0.121192 0.666761 0.603742 -0.309097
C20   C     C_R   0.062822 0.582861 0.550925 0.148835
C21   C     C_R   0.918203 0.582879 0.551175 0.140789
C22   C     C_R   0.937859 0.420414 0.451347 -0.125109
C23   C     C_R   0.464914 0.323086 0.154317 -0.155122
C24   C     C_R   0.081119 0.420368 0.451424 -0.117084
C25   C     C_R   0.520294 0.494414 0.346528 0.859708
C26   C     C_R   0.467844 0.469499 0.739638 -0.164088
C27   C     C_R   0.576787 0.499897 0.783673 -0.267517
C28   C     C_R   0.582647 0.455186 0.860474 -0.135259
C29   C     C_R   0.481249 0.376176 0.893726 0.126426
C30   C     C_R   0.370391 0.348428 0.851171 -0.259230
C31   C     C_3   0.149812 0.466162 0.749169 0.127431
C32   C     C_3   0.061504 0.455753 0.829961 -0.418479
C33   C     C_3   0.953975 0.559661 0.840951 -0.918458
C34   C     C_R   0.442589 0.373837 0.232344 -0.202886
C35   C     C_R   0.656516 0.482708 0.212920 -0.200174
C36   C     C_R   0.677454 0.434031 0.133997 -0.170245
C37   C     C_R   0.579903 0.356939 0.103597 0.197137
C38   C     C_2   0.477507 0.338043 0.977546 -0.196616
C39   C     C_2   0.589653 0.331366 0.016151 -0.232609
H1    H     H_    0.658225 0.557616 0.758110 0.170670
H2    H     H_    0.732949 0.671360 0.608574 0.207228
H3    H     H_    0.353036 0.346789 0.270473 0.148022
H4    H     H_    0.090403 0.812568 0.695226 0.177434
H5    H     H_    0.227628 0.669270 0.608389 0.227889
H6    H     H_    0.142768 0.355282 0.411823 0.145426
H7    H     H_    0.732449 0.542592 0.235666 0.148311
H8    H     H_    0.689455 0.334911 0.982386 0.150095
H9    H     H_    0.289981 0.290023 0.877470 0.147106
H10   H     H_    0.390613 0.259884 0.133270 0.126946
H11   H     H_    0.377270 0.334569 0.010667 0.144175
H12   H     H_    0.766717 0.461002 0.095580 0.124356
H13   H     H_    0.665079 0.484793 0.894076 0.143516
H14   H     H_    0.729041 0.824276 0.702009 0.324342
H15   H     H_    0.082276 0.458236 0.699958 0.178717
H16   H     H_    0.196576 0.560224 0.745632 0.128564
H17   H     H_    0.011004 0.363749 0.831937 0.237188
H18   H     H_    0.125110 0.464047 0.881041 0.216225
H19   H     H_    0.002833 0.652382 0.839279 0.275873
H20   H     H_    0.893296 0.551906 0.900447 0.252263
H21   H     H_    0.885547 0.552384 0.792223 0.267787
H22   H     H_    0.714437 0.886212 0.487664 0.172731
H23   H     H_    0.234651 0.807643 0.447116 0.173772
H24   H     H_    0.024249 0.915501 0.495974 0.142814
H25   H     H_    0.027754 0.115495 0.574207 0.152401
H26   H     H_    0.243806 0.212557 0.594879 0.198680
H27   H     H_    0.715520 0.109071 0.500553 0.169451
H28   H     H_    0.891573 0.355473 0.411647 0.143546
N1    N     N_R   0.857140 0.501200 0.500750 -0.104309
N2    N     N_R   0.142740 0.501280 0.500770 -0.111463
O1    O     O_R   0.385310 0.683220 0.500000 -0.646164
O2    O     O_3   0.247705 0.368207 0.735967 -0.655597
O3    O     O_R   0.614640 0.683250 0.500010 -0.634744
O4    O     O_R   0.371780 0.500010 0.615800 -0.614020
O5    O     O_R   0.601110 0.500030 0.615800 -0.627393
O6    O     O_R   0.385360 0.316750 0.499990 -0.624711
O7    O     O_R   0.614690 0.316780 0.500000 -0.616758
O8    O     O_R   0.398890 0.499970 0.384200 -0.615651
O9    O     O_R   0.628220 0.499990 0.384200 -0.609561
O10   O     O_3   0.826953 0.834268 0.708400 -0.765337
Zn1   Zn    Zn3+2 0.346870 0.499980 0.499990 0.930960
Zn2   Zn    Zn3+2 0.653130 0.500020 0.500010 0.936473

loop_
_geom_bond_atom_site_label_1
_geom_bond_atom_site_label_2
_ccdc_geom_bond_type
C2    C35   A    
C33   H19   S    
C16   O6    A    
C28   H13   S    
C19   C20   A    
C34   H3    S    
C7    C8    A    
C26   C27   A    
C25   O8    A    
N1    Zn2   S    
C30   H9    S    
C36   C37   A    
H14   O10   S    
C5    C6    A    
C23   H10   S    
C17   O10   S    
C5    H24   S    
C18   C19   A    
C6    H25   S    
C35   C36   A    
C8    C9    A    
C29   C38   S    
C9    C10   A    
C4    O5    A    
O3    Zn2   S    
C2    C34   A    
C31   O2    S    
C33   H20   S    
C13   C14   A    
C32   H18   S    
C24   N2    A    
C13   H27   S    
C1    O3    A    
O1    Zn1   S    
C25   O9    A    
C15   H2    S    
C3    C5    A    
C23   C37   A    
C12   C26   A    
C29   C30   A    
C3    C9    A    
C7    H26   S    
C31   C32   S    
C27   H1    S    
C23   C34   A    
C17   C18   A    
C22   N1    A    
C4    O4    A    
C36   H12   S    
C12   O2    S    
C33   H21   S    
C21   N1    A    
C14   C16   S    
C20   N2    A    
C24   H6    S    
O5    Zn2   S    
C19   H5    S    
C39   H8    S    
O6    Zn1   S    
C3    H23   S    
C15   C17   A    
C28   C29   A    
C8    C14   A    
C12   C30   A    
C16   O7    A    
C1    C10   S    
C11   H22   S    
O7    Zn2   S    
C4    C26   S    
C6    C7    A    
C38   H11   S    
C1    O1    A    
C32   C33   S    
C37   C39   S    
C18   H4    S    
C11   C13   A    
O9    Zn2   S    
C38   C39   D    
O8    Zn1   S    
O4    Zn1   S    
C2    C25   S    
C22   C24   A    
C31   H15   S    
C22   H28   S    
C10   C11   A    
C15   C21   A    
C20   C21   A    
C27   C28   A    
N2    Zn1   S    
C31   H16   S    
C35   H7    S    
C32   H17   S    
