data_mof_unit_38133.cif
_audit_creation_date              2012-12-10T16:54:54-0500
_audit_creation_method            fapswitch 2.2
_symmetry_space_group_name_H-M    P1
_symmetry_Int_Tables_number       1
_space_group_crystal_system       triclinic
_cell_length_a                    8.159001
_cell_length_b                    8.885065
_cell_length_c                    15.607876
_cell_angle_alpha                 92.276823
_cell_angle_beta                  85.81707
_cell_angle_gamma                 90.529004
_cell_volume                      1127.53814188

loop_
_atom_site_label
_atom_site_type_symbol
_atom_type_description
_atom_site_fract_x
_atom_site_fract_y
_atom_site_fract_z
_atom_type_partial_charge
C1    C     C_R   0.543807 0.793243 0.500332 0.831665
C2    C     C_3   0.359823 0.601693 0.056065 -0.390951
C3    C     C_3   0.498247 0.499714 0.083011 0.353270
C4    C     C_3   0.471758 0.337590 0.046225 -0.398203
C5    C     C_3   0.486130 0.336400 0.947277 -0.392407
C6    C     C_1   0.496262 0.499805 0.174899 -0.117699
C7    C     C_1   0.503865 0.499761 0.825024 -0.117239
C8    C     C_1   0.504074 0.499972 0.749274 -0.123922
C9    C     C_2   0.575487 0.955821 0.504707 0.194641
C10   C     C_2   0.451869 0.053361 0.509044 -0.079492
C11   C     C_R   0.501436 0.500327 0.660267 0.868292
C12   C     C_R   0.461835 0.210458 0.504102 0.928597
C13   C     C_R   0.498600 0.499864 0.339708 0.872301
C14   C     C_3   0.354007 0.591897 0.957431 -0.397630
C15   C     C_3   0.662608 0.570830 0.947324 -0.395822
C16   C     C_3   0.665794 0.559867 0.045417 -0.397165
C17   C     C_1   0.495951 0.499939 0.250664 -0.129508
C18   C     C_3   0.501819 0.499692 0.916904 0.352486
H1    H     H_    0.383115 0.720281 0.077795 0.175920
H2    H     H_    0.237040 0.536606 0.940147 0.173615
H3    H     H_    0.238919 0.566815 0.087009 0.172491
H4    H     H_    0.563915 0.259578 0.069085 0.171031
H5    H     H_    0.010137 0.376347 0.438414 0.229591
H6    H     H_    0.989742 0.619050 0.564346 0.227434
H7    H     H_    0.355676 0.707007 0.932079 0.171346
H8    H     H_    0.771596 0.512542 0.914713 0.173013
H9    H     H_    0.670443 0.691129 0.930421 0.175381
H10   H     H_    0.693713 0.672510 0.074952 0.172692
H11   H     H_    0.765527 0.482069 0.059912 0.174181
H12   H     H_    0.376471 0.279262 0.921790 0.171548
H13   H     H_    0.596155 0.270507 0.922434 0.177661
H14   H     H_    0.347946 0.295342 0.068962 0.175233
N1    N     N_2   0.950340 0.457950 0.477370 -0.131787
N2    N     N_2   0.049660 0.542050 0.522630 -0.153689
O1    O     O_R   0.389240 0.738570 0.505550 -0.587529
O2    O     O_R   0.678400 0.711630 0.491050 -0.536488
O3    O     O_R   0.355360 0.513470 0.630110 -0.612838
O4    O     O_R   0.644510 0.486530 0.615610 -0.606412
O5    O     O_R   0.321600 0.288370 0.508950 -0.574829
O6    O     O_R   0.610760 0.261430 0.494450 -0.550000
O7    O     O_R   0.355490 0.513470 0.384390 -0.613905
O8    O     O_R   0.644640 0.486530 0.369890 -0.608758
Zn1   Zn    Zn3+2 0.306930 0.517990 0.509680 1.023086
Zn2   Zn    Zn3+2 0.693070 0.482010 0.490320 1.069744
S1    S     S_3+6 0.784474 0.013014 0.503827 0.046484
O9    O     O_2   0.837588 0.083781 0.420141 -0.282354
O10   O     O_2   0.813260 0.119207 0.579296 -0.280250
O11   O     O_3   0.895184 0.861330 0.514306 -0.565653
H15   H     H_    0.992341 0.902907 0.522842 0.437808
Br1   Br    Br    0.245847 0.003605 0.515116 -0.474980

loop_
_geom_bond_atom_site_label_1
_geom_bond_atom_site_label_2
_ccdc_geom_bond_type
O3    Zn1   S    
C15   C18   S    
O4    Zn2   S    
C11   O4    A    
O1    Zn1   S    
C9    C10   D    
C14   C18   S    
C15   H9    S    
C16   H10   S    
C13   C17   S    
C3    C6    S    
C7    C18   S    
C12   O5    A    
C13   O7    A    
C2    C3    S    
C16   H11   S    
C7    C8    T    
S1    O9    D    
C9    S1    S    
O7    Zn1   S    
C4    H14   S    
O8    Zn2   S    
C2    H3    S    
C8    C11   S    
C10   C12   S    
C13   O8    A    
N1    N2    D    
S1    O10   D    
C14   H7    S    
C2    C14   S    
O2    Zn2   S    
N2    Zn1   S    
C3    C4    S    
C10   Br1   S    
C14   H2    S    
O6    Zn2   S    
C1    C9    S    
C1    O1    A    
C5    H12   S    
S1    O11   S    
C11   O3    A    
C6    C17   T    
C4    H4    S    
O11   H15   S    
C15   H8    S    
O5    Zn1   S    
C5    C18   S    
C5    H13   S    
C2    H1    S    
N1    Zn2   S    
H6    N2    S    
C3    C16   S    
C15   C16   S    
C1    O2    A    
C4    C5    S    
H5    N1    S    
C12   O6    A    
