data_mof_unit_45554.cif
_audit_creation_date              2013-03-05T16:00:10-0500
_audit_creation_method            fapswitch 2.2
_symmetry_space_group_name_H-M    P1
_symmetry_Int_Tables_number       1
_space_group_crystal_system       triclinic
_cell_length_a                    7.370582
_cell_length_b                    23.409035
_cell_length_c                    25.818536
_cell_angle_alpha                 89.999986
_cell_angle_beta                  89.999984
_cell_angle_gamma                 89.999948
_cell_volume                      4454.68403811

loop_
_atom_site_label
_atom_site_type_symbol
_atom_site_description
_atom_site_fract_x
_atom_site_fract_y
_atom_site_fract_z
_atom_type_partial_charge
O1    O     O_R   0.694650 0.802620 0.195790 -0.570273
O2    O     O_R   0.305350 0.197380 0.804210 -0.584958
O3    O     O_R   0.305350 0.197380 0.695790 -0.570276
O4    O     O_R   0.694650 0.802620 0.304210 -0.584956
O5    O     O_R   0.194650 0.697380 0.304210 -0.570273
O6    O     O_R   0.805350 0.302620 0.695790 -0.584960
O7    O     O_R   0.805350 0.302620 0.804210 -0.570273
O8    O     O_R   0.194650 0.697380 0.195790 -0.584956
O9    O     O_R   0.364900 0.809540 0.303840 -0.587678
O10   O     O_R   0.635100 0.190460 0.696160 -0.599087
O11   O     O_R   0.635100 0.190460 0.803840 -0.587676
O12   O     O_R   0.364900 0.809540 0.196160 -0.599080
O13   O     O_R   0.864900 0.690460 0.196160 -0.587677
O14   O     O_R   0.135100 0.309540 0.803840 -0.599080
O15   O     O_R   0.135100 0.309540 0.696160 -0.587673
O16   O     O_R   0.864900 0.690460 0.303840 -0.599080
C1    C     C_R   0.534955 0.823956 0.320242 0.914635
C2    C     C_R   0.465370 0.176085 0.679763 0.951261
C3    C     C_R   0.465045 0.176044 0.820243 0.914636
C4    C     C_R   0.534631 0.823916 0.179763 0.951252
C5    C     C_R   0.034955 0.676044 0.179757 0.914635
C6    C     C_R   0.965369 0.323916 0.820237 0.951254
C7    C     C_R   0.965045 0.323956 0.679757 0.914637
C8    C     C_R   0.034631 0.676084 0.320237 0.951252
H1    H     H_    0.818564 0.526030 0.514766 0.212711
H2    H     H_    0.160046 0.465017 0.477443 0.172144
H3    H     H_    0.181436 0.473970 0.014766 0.212711
H4    H     H_    0.839954 0.534983 0.977443 0.172144
H5    H     H_    0.318565 0.973969 0.985234 0.212711
H6    H     H_    0.660046 0.034983 0.022557 0.172144
H7    H     H_    0.681430 0.026033 0.485231 0.212709
H8    H     H_    0.339953 0.965019 0.522556 0.172139
H9    H     H_    0.218640 0.458429 0.569032 0.172378
H10   H     H_    0.765969 0.539525 0.424287 0.144939
H11   H     H_    0.781360 0.541571 0.069032 0.172378
H12   H     H_    0.234031 0.460474 0.924287 0.144939
H13   H     H_    0.718641 0.041571 0.930968 0.172378
H14   H     H_    0.265969 0.960475 0.075713 0.144939
H15   H     H_    0.281357 0.958430 0.430966 0.172378
H16   H     H_    0.734034 0.039532 0.575706 0.144945
O17   O     O_3   0.528130 0.713200 0.250000 -0.273430
O18   O     O_3   0.471870 0.286800 0.750000 -0.273429
O19   O     O_3   0.028130 0.786800 0.250000 -0.273431
O20   O     O_3   0.971870 0.213200 0.750000 -0.273444
V1    V     V_3+5 0.253280 0.756820 0.250000 1.251322
V2    V     V_3+5 0.746720 0.243180 0.750000 1.251317
V3    V     V_3+5 0.753280 0.743180 0.250000 1.251323
V4    V     V_3+5 0.246720 0.256820 0.750000 1.251321
C9    C     C_R   0.047861 0.629883 0.360660 -0.204326
C10   C     C_R   0.948549 0.368812 0.638109 -0.195023
C11   C     C_R   0.952139 0.370116 0.860660 -0.204326
C12   C     C_R   0.051451 0.631188 0.138109 -0.195026
C13   C     C_R   0.547860 0.870116 0.139340 -0.204325
C14   C     C_R   0.448549 0.131188 0.861891 -0.195027
C15   C     C_R   0.452140 0.129885 0.639339 -0.204327
C16   C     C_R   0.551450 0.868813 0.361890 -0.195026
C17   C     C_R   0.888665 0.602681 0.376910 -0.116300
C18   C     C_R   0.105061 0.395455 0.619086 -0.084924
C19   C     C_R   0.111335 0.397319 0.876910 -0.116299
C20   C     C_R   0.894939 0.604545 0.119086 -0.084927
C21   C     C_R   0.388665 0.897319 0.123090 -0.116300
C22   C     C_R   0.605061 0.104545 0.880914 -0.084924
C23   C     C_R   0.611337 0.102686 0.623085 -0.116275
C24   C     C_R   0.394937 0.895455 0.380913 -0.084928
C25   C     C_R   0.891254 0.559676 0.413986 -0.060632
C26   C     C_R   0.096073 0.436883 0.580414 -0.113963
C27   C     C_R   0.108746 0.440323 0.913986 -0.060632
C28   C     C_R   0.903926 0.563117 0.080414 -0.113962
C29   C     C_R   0.391253 0.940324 0.086014 -0.060632
C30   C     C_R   0.596074 0.063117 0.919586 -0.113962
C31   C     C_R   0.608748 0.059681 0.586009 -0.060644
C32   C     C_R   0.403924 0.936884 0.419584 -0.113961
C33   C     C_R   0.053400 0.541315 0.436282 0.131802
C34   C     C_R   0.931219 0.451270 0.557019 0.129632
C35   C     C_R   0.946600 0.458685 0.936282 0.131802
C36   C     C_R   0.068781 0.548730 0.057019 0.129632
C37   C     C_R   0.553400 0.958685 0.063718 0.131803
C38   C     C_R   0.431219 0.048730 0.942981 0.129632
C39   C     C_R   0.446599 0.041317 0.563716 0.131800
C40   C     C_R   0.568778 0.951271 0.442979 0.129631
C41   C     C_R   0.217196 0.565824 0.419289 -0.105059
C42   C     C_R   0.771061 0.425334 0.575186 -0.088647
C43   C     C_R   0.782804 0.434176 0.919289 -0.105058
C44   C     C_R   0.228938 0.574666 0.075186 -0.088647
C45   C     C_R   0.717196 0.934176 0.080711 -0.105059
C46   C     C_R   0.271062 0.074666 0.924813 -0.088647
C47   C     C_R   0.282804 0.065823 0.580712 -0.105056
C48   C     C_R   0.728936 0.925335 0.424813 -0.088649
C49   C     C_R   0.215372 0.610623 0.382341 -0.113514
C50   C     C_R   0.778202 0.386163 0.616868 -0.109418
C51   C     C_R   0.784628 0.389377 0.882341 -0.113514
C52   C     C_R   0.221798 0.613837 0.116868 -0.109417
C53   C     C_R   0.715372 0.889377 0.117659 -0.113515
C54   C     C_R   0.278202 0.113837 0.883132 -0.109417
C55   C     C_R   0.284628 0.110622 0.617660 -0.113513
C56   C     C_R   0.721796 0.886164 0.383131 -0.109416
C57   C     C_2   0.051938 0.496283 0.477066 -0.182969
C58   C     C_2   0.926576 0.494602 0.514778 -0.200165
C59   C     C_2   0.948062 0.503716 0.977066 -0.182968
C60   C     C_2   0.073424 0.505398 0.014778 -0.200166
C61   C     C_2   0.551938 0.003717 0.022934 -0.182970
C62   C     C_2   0.426576 0.005398 0.985221 -0.200164
C63   C     C_2   0.448060 0.996286 0.522932 -0.182962
C64   C     C_2   0.573421 0.994604 0.485219 -0.200165
H17   H     H_    0.760576 0.613981 0.360321 0.178209
H18   H     H_    0.235388 0.385353 0.634919 0.165447
H19   H     H_    0.239424 0.386019 0.860321 0.178209
H20   H     H_    0.764612 0.614647 0.134919 0.165447
H21   H     H_    0.260576 0.886019 0.139679 0.178209
H22   H     H_    0.735388 0.114647 0.865081 0.165447
H23   H     H_    0.739428 0.113989 0.639671 0.178205
H24   H     H_    0.264611 0.885352 0.365080 0.165448
C65   C     C_2   0.390252 0.543384 0.439449 0.978959
O21   O     O_2   0.483833 0.572909 0.467908 -0.585766
O22   O     O_R   0.442716 0.487796 0.426413 -0.792117
H25   H     H_    0.557307 0.474967 0.444562 0.329214
C66   C     C_2   0.596327 0.436536 0.549129 0.916952
O23   O     O_2   0.533464 0.484807 0.548395 -0.632428
O24   O     O_R   0.504221 0.391226 0.525632 -0.746419
H26   H     H_    0.389126 0.403616 0.507492 0.329919
C67   C     C_2   0.609748 0.456615 0.939449 0.978957
O25   O     O_2   0.516167 0.427090 0.967908 -0.585766
O26   O     O_R   0.557283 0.512204 0.926412 -0.792117
H27   H     H_    0.442693 0.525033 0.944562 0.329214
C68   C     C_2   0.403673 0.563464 0.049129 0.916952
O27   O     O_2   0.466536 0.515193 0.048395 -0.632428
O28   O     O_R   0.495779 0.608774 0.025632 -0.746419
H28   H     H_    0.610874 0.596384 0.007492 0.329919
C69   C     C_2   0.890252 0.956615 0.060551 0.978959
O29   O     O_2   0.983833 0.927091 0.032092 -0.585766
O30   O     O_R   0.942716 0.012204 0.073587 -0.792117
H29   H     H_    0.057307 0.025033 0.055438 0.329214
C70   C     C_2   0.096327 0.063464 0.950870 0.916952
O31   O     O_2   0.033464 0.015193 0.951605 -0.632427
O32   O     O_R   0.004221 0.108774 0.974368 -0.746420
H30   H     H_    0.889126 0.096384 0.992508 0.329919
C71   C     C_2   0.109748 0.043385 0.560551 0.978948
O33   O     O_2   0.016174 0.072909 0.532090 -0.585780
O34   O     O_R   0.057279 0.987797 0.573589 -0.792105
H31   H     H_    0.942690 0.974968 0.555439 0.329215
C72   C     C_2   0.903670 0.936537 0.450870 0.916954
O35   O     O_2   0.966533 0.984809 0.451604 -0.632425
O36   O     O_R   0.995777 0.891227 0.474368 -0.746420
H32   H     H_    0.110871 0.903618 0.492508 0.329918
C73   C     C_2   0.605601 0.369742 0.641545 1.030307
O37   O     O_2   0.519548 0.328910 0.625152 -0.604704
O38   O     O_R   0.547843 0.399822 0.685335 -0.769320
H33   H     H_    0.434423 0.383298 0.701561 0.340938
C74   C     C_2   0.389949 0.634787 0.365499 1.026076
O39   O     O_2   0.459460 0.617649 0.325421 -0.626668
O40   O     O_R   0.469249 0.678901 0.394110 -0.751127
H34   H     H_    0.581345 0.695206 0.376879 0.322077
C75   C     C_2   0.394399 0.630258 0.141544 1.030308
O41   O     O_2   0.480452 0.671090 0.125152 -0.604708
O42   O     O_R   0.452157 0.600178 0.185335 -0.769320
H35   H     H_    0.565577 0.616702 0.201561 0.340938
C76   C     C_2   0.610051 0.365213 0.865499 1.026075
O43   O     O_2   0.540540 0.382352 0.825421 -0.626668
O44   O     O_R   0.530752 0.321099 0.894110 -0.751127
H36   H     H_    0.418655 0.304793 0.876878 0.322077
C77   C     C_2   0.105601 0.130258 0.858455 1.030307
O45   O     O_2   0.019548 0.171090 0.874848 -0.604708
O46   O     O_R   0.047843 0.100178 0.814665 -0.769316
H37   H     H_    0.934423 0.116702 0.798439 0.340940
C78   C     C_2   0.889949 0.865213 0.134500 1.026075
O47   O     O_2   0.959460 0.882351 0.174579 -0.626668
O48   O     O_R   0.969249 0.821099 0.105890 -0.751127
H38   H     H_    0.081345 0.804794 0.123121 0.322077
C79   C     C_2   0.894398 0.869743 0.358455 1.030308
O49   O     O_2   0.980451 0.828910 0.374848 -0.604708
O50   O     O_R   0.952156 0.899822 0.314664 -0.769320
H39   H     H_    0.065576 0.883297 0.298439 0.340938
C80   C     C_2   0.110052 0.134784 0.634505 1.026077
O51   O     O_2   0.040533 0.117636 0.674579 -0.626670
O52   O     O_R   0.030769 0.178909 0.605904 -0.751135
H40   H     H_    0.918677 0.195214 0.623138 0.322077

loop_
_geom_bond_atom_site_label_1
_geom_bond_atom_site_label_2
_geom_bond_distance
_ccdc_geom_bond_type
C17   H17   1.069912 S    
O50   H39   1.011917 S    
C48   C56   1.414816 A    
O9    V1    2.032781 S    
C78   O47   1.222381 D    
H16   C31   1.070488 S    
C30   C38   1.398099 A    
C79   O49   1.222719 D    
C29   C37   1.394427 A    
O38   H33   1.011915 S    
C21   H21   1.069911 S    
C36   C44   1.407871 A    
C39   C47   1.406827 A    
C57   C58   1.342894 D    
H12   C27   1.070489 S    
C25   C33   1.394426 A    
O26   H27   1.011497 S    
C34   C58   1.489790 S    
C80   O51   1.222386 D    
C33   C57   1.489994 S    
C71   O34   1.398615 S    
O11   C3    1.365374 A    
C61   C62   1.342896 D    
C40   C64   1.489787 S    
C47   C71   1.474381 S    
C69   O29   1.222015 D    
C50   C73   1.473800 S    
C66   O24   1.397846 S    
C73   O37   1.222721 D    
C24   H24   1.070400 S    
C74   O39   1.222378 D    
C38   C62   1.489790 S    
O22   H25   1.011496 S    
C26   C34   1.398099 A    
O3    V4    2.020341 S    
C8    C9    1.506132 S    
C9    C17   1.399388 A    
C22   C30   1.393469 A    
O3    C2    1.345662 A    
O8    V1    2.020342 S    
C12   C20   1.400348 A    
C77   O46   1.398328 S    
C45   C53   1.417731 A    
C18   C26   1.393471 A    
C76   O43   1.222380 D    
O46   H37   1.011917 S    
O20   V2    1.801783 S    
C47   C55   1.417730 A    
O10   V2    2.032782 S    
C54   C77   1.473799 S    
H15   C32   1.075578 S    
C16   C24   1.400348 A    
C52   C75   1.473799 S    
C75   O42   1.398327 S    
C46   C54   1.414814 A    
C20   H20   1.070399 S    
C41   C49   1.417731 A    
C38   C46   1.407869 A    
O15   C7    1.365374 A    
H14   C29   1.070489 S    
C37   C45   1.406829 A    
C76   O44   1.397730 S    
H13   C30   1.075576 S    
C11   C51   1.428635 A    
C79   O50   1.398328 S    
C39   C63   1.489991 S    
C78   O48   1.397730 S    
C13   C21   1.399388 A    
O15   V4    2.032781 S    
C34   C42   1.407871 A    
O16   V3    2.032780 S    
C33   C41   1.406829 A    
C73   O38   1.398327 S    
C10   C50   1.429036 A    
H9    C26   1.075576 S    
C77   O45   1.222721 D    
C80   O52   1.397740 S    
C14   C54   1.429037 A    
H3    C60   1.084007 S    
C67   O26   1.398612 S    
C13   C53   1.428636 A    
C10   C18   1.400349 A    
O7    V2    2.020340 S    
C36   C60   1.489788 S    
O32   H30   1.011487 S    
C15   C55   1.428633 A    
C17   C25   1.389302 A    
O48   H38   1.013042 S    
O13   V3    2.032782 S    
O1    V3    2.020341 S    
C7    C10   1.507857 S    
O14   V4    2.032779 S    
C14   C22   1.400348 A    
O2    V4    2.020339 S    
O5    V1    2.020340 S    
C19   H19   1.069912 S    
C31   C39   1.394427 A    
C32   C40   1.398099 A    
C15   C23   1.399388 A    
C18   H18   1.070400 S    
C72   O36   1.397844 S    
C46   C70   1.476494 S    
C45   C69   1.474387 S    
C19   C27   1.389300 A    
O44   H36   1.013044 S    
C22   H22   1.070401 S    
O34   H31   1.011497 S    
O12   C4    1.362901 A    
C35   C59   1.489995 S    
O8    C5    1.343964 A    
O17   V3    1.801784 S    
H8    C63   1.081995 S    
O13   C5    1.365374 A    
O18   V4    1.801784 S    
C43   C67   1.474386 S    
O19   V1    1.801783 S    
C1    C16   1.507855 S    
C67   O25   1.222016 D    
C2    C15   1.506131 S    
O4    C1    1.343965 A    
H4    C59   1.081994 S    
O9    C1    1.365373 A    
C23   C31   1.389300 A    
C56   C79   1.473800 S    
H10   C25   1.070488 S    
C70   O31   1.221435 D    
C12   C52   1.429036 A    
C27   C35   1.394426 A    
O28   H28   1.011489 S    
C48   C72   1.476494 S    
O42   H35   1.011916 S    
C3    C14   1.507857 S    
C68   O28   1.397845 S    
C65   O21   1.222014 D    
C21   C29   1.389302 A    
C44   C68   1.476493 S    
C16   C56   1.429036 A    
O1    C4    1.345662 A    
O6    V2    2.020341 S    
O2    C3    1.343964 A    
C9    C49   1.428636 A    
C4    C13   1.506132 S    
O24   H26   1.011488 S    
O12   V1    2.032782 S    
C28   C36   1.398102 A    
O7    C6    1.345661 A    
C43   C51   1.417732 A    
C71   O33   1.222017 D    
H5    C62   1.084007 S    
C42   C50   1.414814 A    
C59   C60   1.342895 D    
H7    C64   1.084006 S    
O14   C6    1.362901 A    
C74   O40   1.397731 S    
O36   H32   1.011488 S    
C55   C80   1.471297 S    
C40   C48   1.407870 A    
O52   H40   1.013043 S    
C72   O35   1.221435 D    
C35   C43   1.406828 A    
C68   O27   1.221435 D    
O5    C8    1.345663 A    
H11   C28   1.075577 S    
O10   C2    1.362901 A    
O6    C7    1.343964 A    
H6    C61   1.081993 S    
C49   C74   1.471304 S    
C37   C61   1.489993 S    
C24   C32   1.393468 A    
C23   H23   1.069911 S    
C51   C76   1.471304 S    
H2    C57   1.081993 S    
C53   C78   1.471302 S    
H1    C58   1.084006 S    
C11   C19   1.399389 A    
C20   C28   1.393470 A    
O16   C8    1.362901 A    
C41   C65   1.474387 S    
C63   C64   1.342897 D    
C70   O32   1.397844 S    
O11   V2    2.032780 S    
C44   C52   1.414814 A    
C42   C66   1.476493 S    
C65   O22   1.398612 S    
C75   O41   1.222720 D    
C66   O23   1.221435 D    
O40   H34   1.013043 S    
C5    C12   1.507857 S    
O30   H29   1.011497 S    
C6    C11   1.506134 S    
C69   O30   1.398611 S    
O4    V3    2.020339 S    
