data_mof_unit_35515.cif
_audit_creation_date              2012-12-11T16:53:36-0500
_audit_creation_method            fapswitch 2.2
_symmetry_space_group_name_H-M    P1
_symmetry_Int_Tables_number       1
_space_group_crystal_system       triclinic
_cell_length_a                    26.246854
_cell_length_b                    7.183894
_cell_length_c                    24.00802
_cell_angle_alpha                 89.651448
_cell_angle_beta                  101.275788
_cell_angle_gamma                 90.437102
_cell_volume                      4439.26559464

loop_
_atom_site_label
_atom_site_type_symbol
_atom_type_description
_atom_site_fract_x
_atom_site_fract_y
_atom_site_fract_z
_atom_type_partial_charge
O1    O     O_R   0.297620 0.601080 0.203310 -0.544314
O2    O     O_R   0.702380 0.398920 0.796690 -0.536393
O3    O     O_R   0.202380 0.101080 0.296690 -0.530250
O4    O     O_R   0.797620 0.898920 0.703310 -0.537313
O5    O     O_R   0.192690 0.268060 0.187220 -0.530291
O6    O     O_R   0.807310 0.731940 0.812780 -0.531554
O7    O     O_R   0.307310 0.768060 0.312780 -0.534632
O8    O     O_R   0.692690 0.231940 0.687220 -0.531926
C1    C     C_R   0.174553 0.439720 0.172073 0.707448
C2    C     C_R   0.825520 0.560279 0.827814 0.706847
C3    C     C_R   0.325561 0.939933 0.327768 0.708064
C4    C     C_R   0.674518 0.060040 0.672122 0.708675
O9    O     O_R   0.296630 0.271160 0.196520 -0.536326
O10   O     O_R   0.703370 0.728840 0.803480 -0.541617
O11   O     O_R   0.203370 0.771160 0.303480 -0.541630
O12   O     O_R   0.796630 0.228840 0.696520 -0.538696
O13   O     O_R   0.307060 0.104040 0.306060 -0.529657
O14   O     O_R   0.692940 0.895960 0.693940 -0.529887
O15   O     O_R   0.192940 0.604040 0.193940 -0.529349
O16   O     O_R   0.807060 0.395960 0.806060 -0.529395
C5    C     C_R   0.313687 0.441268 0.185773 0.677314
C6    C     C_R   0.688584 0.558343 0.816789 0.682701
C7    C     C_R   0.187197 0.940321 0.315651 0.679350
C8    C     C_R   0.813143 0.061187 0.685183 0.685597
O17   O     O_3   0.253300 0.435560 0.285930 -0.373922
O18   O     O_3   0.746700 0.564440 0.714070 -0.371399
O19   O     O_3   0.246700 0.935560 0.214070 -0.372301
O20   O     O_3   0.753300 0.064440 0.785930 -0.373603
V1    V     V_3+5 0.249390 0.159480 0.243340 1.394937
V2    V     V_3+5 0.750610 0.840520 0.756660 1.394383
V3    V     V_3+5 0.250610 0.659480 0.256660 1.381577
V4    V     V_3+5 0.749390 0.340520 0.743340 1.394307
C9    C     C_R   0.888701 0.195491 0.642505 0.130632
C10   C     C_R   0.134670 0.117346 0.379689 0.132327
C11   C     C_R   0.648231 0.384872 0.892367 0.132761
C12   C     C_R   0.388212 0.612289 0.150441 0.122384
C13   C     C_R   0.923620 0.171426 0.605358 -0.159331
C14   C     C_R   0.100588 0.110303 0.418345 -0.174716
C15   C     C_R   0.610603 0.381058 0.926937 -0.177085
C16   C     C_R   0.422741 0.617984 0.112061 -0.144472
H1    H     H_    0.952282 0.278176 0.602187 0.111237
H2    H     H_    0.090943 0.237296 0.438070 0.103229
H3    H     H_    0.606962 0.259725 0.952992 0.100836
H4    H     H_    0.448406 0.735653 0.110893 0.130669
C17   C     C_R   0.922999 0.009698 0.572956 0.070480
C18   C     C_R   0.075739 0.944591 0.429016 0.091297
C19   C     C_R   0.577875 0.532155 0.929364 0.090170
C20   C     C_R   0.424961 0.473376 0.073893 0.072322
C21   C     C_R   0.887799 0.867279 0.578527 -0.171544
C22   C     C_R   0.085309 0.784302 0.400111 -0.144203
C23   C     C_R   0.581632 0.688671 0.895396 -0.164364
C24   C     C_R   0.392868 0.317305 0.074463 -0.158089
H5    H     H_    0.887182 0.740305 0.554285 0.121336
H6    H     H_    0.063723 0.657177 0.403597 0.103046
H7    H     H_    0.556387 0.806609 0.896505 0.120253
H8    H     H_    0.395172 0.201356 0.046452 0.111047
C25   C     C_R   0.852664 0.887997 0.614816 -0.202883
C26   C     C_R   0.121539 0.788510 0.364414 -0.218470
C27   C     C_R   0.618222 0.695222 0.860108 -0.209356
C28   C     C_R   0.357484 0.309223 0.111102 -0.185257
H9    H     H_    0.825548 0.775196 0.617218 0.133174
H10   H     H_    0.126742 0.667707 0.341250 0.153618
H11   H     H_    0.619659 0.818395 0.834201 0.127196
H12   H     H_    0.332619 0.187571 0.109472 0.135722
C29   C     C_R   0.851828 0.051287 0.647032 -0.063208
C30   C     C_R   0.148363 0.950399 0.354557 -0.077178
C31   C     C_R   0.651820 0.544705 0.857268 -0.060961
C32   C     C_R   0.353632 0.455799 0.148840 -0.101015
C33   C     C_R   0.958332 0.103436 0.485664 0.159431
C34   C     C_R   0.037476 0.833245 0.513859 0.157675
C35   C     C_R   0.554389 0.516277 0.027033 0.157566
C36   C     C_R   0.447747 0.500018 0.975619 0.158355
C37   C     C_R   0.995718 0.079993 0.451778 -0.216720
C38   C     C_R   0.999090 0.853546 0.546970 -0.223287
C39   C     C_R   0.516080 0.495348 0.060187 -0.232620
C40   C     C_R   0.486178 0.516845 0.942302 -0.230145
H13   H     H_    0.993812 0.166667 0.414296 0.130725
H14   H     H_    0.000483 0.767600 0.584512 0.122292
H15   H     H_    0.527527 0.489622 0.106071 0.125156
H16   H     H_    0.474770 0.525626 0.896465 0.124920
C41   C     C_R   0.035681 0.948520 0.465284 0.032905
C42   C     C_R   0.960082 0.988387 0.534031 0.024489
C43   C     C_R   0.463041 0.485532 0.035453 0.035389
C44   C     C_R   0.539225 0.523630 0.967097 0.038603
H17   H     H_    0.545247 0.717080 0.543623 0.113640
H18   H     H_    0.455224 0.282792 0.455728 0.113316
H19   H     H_    0.955141 0.217247 0.955029 0.113513
H20   H     H_    0.044815 0.782247 0.044892 0.113684
C45   C     C_R   0.481488 0.823225 0.481380 -0.155238
C46   C     C_R   0.518997 0.176652 0.517954 -0.155389
C47   C     C_R   0.018831 0.322937 0.017672 -0.155604
C48   C     C_R   0.981128 0.676539 0.982266 -0.155906
H21   H     H_    0.467485 0.685440 0.467710 0.112135
H22   H     H_    0.532985 0.314439 0.531641 0.112319
H23   H     H_    0.032895 0.185073 0.030886 0.112264
H24   H     H_    0.967065 0.814403 0.969048 0.112113
C49   C     C_R   0.455471 0.981725 0.456036 0.135257
C50   C     C_R   0.544998 0.018152 0.543324 0.134862
C51   C     C_R   0.044753 0.481228 0.043592 0.134731
C52   C     C_R   0.955208 0.518257 0.956350 0.135424
C53   C     C_R   0.474616 0.158566 0.474666 -0.154704
C54   C     C_R   0.525869 0.841310 0.524669 -0.154536
C55   C     C_R   0.025509 0.658156 0.025521 -0.154035
C56   C     C_R   0.974448 0.341323 0.974411 -0.154050
C57   C     C_1   0.409451 0.963488 0.411025 -0.058565
C58   C     C_1   0.590912 0.036392 0.588480 -0.058687
C59   C     C_1   0.090744 0.462748 0.088651 -0.057522
C60   C     C_1   0.909234 0.536827 0.911292 -0.056727
C61   C     C_1   0.629106 0.049223 0.626387 -0.178944
C62   C     C_1   0.371133 0.950689 0.373284 -0.180591
C63   C     C_1   0.870985 0.549799 0.873477 -0.186198
C64   C     C_1   0.129023 0.450001 0.126455 -0.178736
C65   C     C_3   0.893937 0.373192 0.677174 -0.360731
C66   C     C_3   0.916785 0.335951 0.739766 -0.712696
H25   H     H_    0.891567 0.241103 0.759157 0.222302
H26   H     H_    0.955857 0.272647 0.744147 0.217817
H27   H     H_    0.920751 0.469330 0.763406 0.206375
H28   H     H_    0.920306 0.473806 0.661357 0.167780
H29   H     H_    0.856345 0.446643 0.672090 0.195589
C67   C     C_3   0.148490 0.306826 0.360386 -0.334570
C68   C     C_3   0.116748 0.345872 0.300430 -0.680687
H30   H     H_    0.111365 0.220251 0.273170 0.215667
H31   H     H_    0.077478 0.396363 0.303432 0.193769
H32   H     H_    0.136708 0.452152 0.278581 0.207352
H33   H     H_    0.139584 0.413095 0.390275 0.148413
H34   H     H_    0.190891 0.321928 0.362749 0.196741
C69   C     C_3   0.684008 0.217920 0.896357 -0.351506
C70   C     C_3   0.739556 0.267543 0.925305 -0.695942
H35   H     H_    0.756216 0.377979 0.901714 0.212727
H36   H     H_    0.740178 0.316562 0.969232 0.210520
H37   H     H_    0.764387 0.142236 0.927428 0.211656
H38   H     H_    0.670630 0.104498 0.921914 0.162596
H39   H     H_    0.682778 0.154785 0.854170 0.203337
C71   C     C_3   0.388746 0.769790 0.193154 -0.323453
C72   C     C_3   0.434651 0.906135 0.199923 -0.804767
H40   H     H_    0.472051 0.830176 0.210141 0.231514
H41   H     H_    0.432861 0.991072 0.160794 0.231733
H42   H     H_    0.432777 0.002986 0.235350 0.223913
H43   H     H_    0.352728 0.852724 0.180673 0.199863
H44   H     H_    0.389577 0.707435 0.235813 0.180014
C73   C     C_3   0.916740 0.248931 0.467782 -0.366374
C74   C     C_3   0.939281 0.445819 0.476418 -0.760361
H45   H     H_    0.957730 0.467753 0.521580 0.219806
H46   H     H_    0.968706 0.470495 0.449597 0.223295
H47   H     H_    0.907731 0.549072 0.464369 0.218067
H48   H     H_    0.899102 0.229496 0.422171 0.176541
H49   H     H_    0.884556 0.234626 0.491373 0.186624
C75   C     C_3   0.080665 0.694839 0.533498 -0.360074
C76   C     C_3   0.131768 0.792760 0.558582 -0.734957
H50   H     H_    0.146039 0.877359 0.525928 0.231685
H51   H     H_    0.126531 0.884409 0.594116 0.225300
H52   H     H_    0.161660 0.687200 0.575204 0.212788
H53   H     H_    0.070523 0.601338 0.566837 0.173847
H54   H     H_    0.085965 0.602259 0.498425 0.170371
C77   C     C_3   0.610556 0.537611 0.057013 -0.357244
C78   C     C_3   0.629243 0.738836 0.054675 -0.743352
H55   H     H_    0.628912 0.783176 0.010278 0.231223
H56   H     H_    0.604014 0.833111 0.073691 0.223696
H57   H     H_    0.669643 0.751395 0.079121 0.213843
H58   H     H_    0.615166 0.496651 0.102453 0.171741
H59   H     H_    0.636092 0.443833 0.038485 0.179683
C79   C     C_3   0.391207 0.505915 0.946227 -0.356341
C80   C     C_3   0.367251 0.695020 0.953642 -0.743058
H60   H     H_    0.366831 0.721921 0.998991 0.230659
H61   H     H_    0.389554 0.807611 0.937098 0.222533
H62   H     H_    0.326576 0.697559 0.929584 0.214500
H63   H     H_    0.387395 0.480678 0.899942 0.171520
H64   H     H_    0.368637 0.393716 0.962322 0.177803

loop_
_geom_bond_atom_site_label_1
_geom_bond_atom_site_label_2
_ccdc_geom_bond_type
C26   H10   S    
C72   H42   S    
C51   C55   A    
C57   C62   T    
O1    C5    A    
C45   C54   A    
O19   V1    S    
O13   V1    S    
C59   C64   T    
O3    C7    A    
C80   H60   S    
O1    V3    S    
C47   C56   A    
C36   C40   A    
O15   V3    S    
C70   H35   S    
C10   C30   A    
C66   H25   S    
C9    C29   A    
C72   H40   S    
C77   H59   S    
O7    C3    A    
C22   H6    S    
C7    C30   S    
O9    V1    S    
C78   H55   S    
C80   H61   S    
O10   V2    S    
C65   C66   S    
C76   H51   S    
C71   H44   S    
O4    C8    A    
C67   H34   S    
C33   C73   S    
C48   H24   S    
C21   C25   A    
O2    V4    S    
O3    V1    S    
C34   C41   A    
C16   C20   A    
C69   H38   S    
C68   H32   S    
C33   C42   A    
C24   C28   A    
C48   C55   A    
C27   C31   A    
C65   H29   S    
C76   H50   S    
C1    O15   A    
C52   C56   A    
C17   C42   S    
C2    O16   A    
C34   C38   A    
C33   C37   A    
O14   V2    S    
C11   C31   A    
C16   H4    S    
C49   C57   S    
C65   H28   S    
C1    C64   S    
O11   C7    A    
O12   C8    A    
C3    C62   S    
C45   H21   S    
C74   H47   S    
C40   C44   A    
C75   H54   S    
C38   C42   A    
C20   C43   S    
C37   C41   A    
C4    C61   S    
C26   C30   A    
C46   H22   S    
O5    V1    S    
C10   C67   S    
C52   C60   S    
O7    V3    S    
C22   C26   A    
C69   H39   S    
C12   C16   A    
C80   H62   S    
C75   C76   S    
C76   H52   S    
C71   H43   S    
C67   H33   S    
C15   H3    S    
C50   C54   A    
O11   V3    S    
C79   C80   S    
C9    C13   A    
C79   H63   S    
C45   C49   A    
O8    V4    S    
C11   C15   A    
C46   C53   A    
O5    C1    A    
C18   C41   S    
C66   H26   S    
C17   C21   A    
O8    C4    A    
C35   C77   S    
O9    C5    A    
C2    C63   S    
C19   C44   S    
C11   C69   S    
C68   H30   S    
C73   H48   S    
C79   H64   S    
C8    C29   S    
O6    V2    S    
C5    C32   S    
C74   H46   S    
C34   C75   S    
C75   H53   S    
C13   C17   A    
C69   C70   S    
C70   H37   S    
C36   C43   A    
H20   C55   S    
C67   C68   S    
C48   C52   A    
C15   C19   A    
C35   C44   A    
O16   V4    S    
C72   H41   S    
C3    O13   A    
C37   H13   S    
C77   H58   S    
C10   C14   A    
C27   H11   S    
O17   V3    S    
C78   H57   S    
C40   H16   S    
C25   C29   A    
C12   C71   S    
O6    C2    A    
C19   C23   A    
C12   C32   A    
C25   H9    S    
C71   C72   S    
O18   V4    S    
C70   H36   S    
O12   V4    S    
C51   C59   S    
C18   C22   A    
C9    C65   S    
C50   C58   S    
C60   C63   T    
C28   H12   S    
O10   C6    A    
C78   H56   S    
O2    C6    A    
C14   C18   A    
C35   C39   A    
C39   C43   A    
C21   H5    S    
O20   V2    S    
C23   H7    S    
C13   H1    S    
O4    V2    S    
C6    C31   S    
C68   H31   S    
C66   H27   S    
C73   H49   S    
C47   H23   S    
H19   C56   S    
C14   H2    S    
C20   C24   A    
C23   C27   A    
C28   C32   A    
C38   H14   S    
C4    O14   A    
C77   C78   S    
C36   C79   S    
C74   H45   S    
C47   C51   A    
C73   C74   S    
H18   C53   S    
C39   H15   S    
C46   C50   A    
C49   C53   A    
H17   C54   S    
C24   H8    S    
C58   C61   T    
