data_mof_unit_18436.cif
_audit_creation_date              2012-12-11T17:22:20-0500
_audit_creation_method            fapswitch 2.2
_symmetry_space_group_name_H-M    P1
_symmetry_Int_Tables_number       1
_space_group_crystal_system       triclinic
_cell_length_a                    20.535379
_cell_length_b                    7.172633
_cell_length_c                    20.594635
_cell_angle_alpha                 90.000782
_cell_angle_beta                  101.933332
_cell_angle_gamma                 89.999164
_cell_volume                      2967.8840567

loop_
_atom_site_label
_atom_site_type_symbol
_atom_type_description
_atom_site_fract_x
_atom_site_fract_y
_atom_site_fract_z
_atom_type_partial_charge
O1    O     O_R   0.807340 0.614490 0.194100 -0.537075
O2    O     O_R   0.192660 0.385510 0.805900 -0.536045
O3    O     O_R   0.692660 0.114490 0.305900 -0.537079
O4    O     O_R   0.307340 0.885510 0.694100 -0.536032
O5    O     O_R   0.672910 0.282300 0.178070 -0.519751
O6    O     O_R   0.327090 0.717700 0.821930 -0.531674
O7    O     O_R   0.827090 0.782300 0.321930 -0.519745
O8    O     O_R   0.172910 0.217700 0.678070 -0.531642
C1    C     C_R   0.648854 0.454113 0.161153 0.738029
C2    C     C_R   0.351007 0.546017 0.839179 0.757746
C3    C     C_R   0.851147 0.954113 0.338845 0.738033
C4    C     C_R   0.148990 0.046016 0.660824 0.757773
O9    O     O_R   0.805620 0.284620 0.186180 -0.532272
O10   O     O_R   0.194380 0.715380 0.813820 -0.531461
O11   O     O_R   0.694380 0.784620 0.313820 -0.532269
O12   O     O_R   0.305620 0.215380 0.686180 -0.531466
O13   O     O_R   0.826310 0.116750 0.314070 -0.541607
O14   O     O_R   0.173690 0.883250 0.685930 -0.539985
O15   O     O_R   0.673690 0.616750 0.185930 -0.541608
O16   O     O_R   0.326310 0.383250 0.814070 -0.539981
C5    C     C_R   0.825203 0.453182 0.171718 0.708079
C6    C     C_R   0.175242 0.546603 0.828674 0.719564
C7    C     C_R   0.674798 0.953185 0.328283 0.708077
C8    C     C_R   0.324758 0.046599 0.671326 0.719539
O17   O     O_3   0.756630 0.448770 0.291950 -0.372665
O18   O     O_3   0.243370 0.551230 0.708050 -0.377672
O19   O     O_3   0.743370 0.948770 0.208050 -0.372663
O20   O     O_3   0.256630 0.051230 0.791950 -0.377647
V1    V     V_3+5 0.748770 0.172970 0.242220 1.448267
V2    V     V_3+5 0.251230 0.827030 0.757780 1.408840
V3    V     V_3+5 0.751230 0.672970 0.257780 1.448278
V4    V     V_3+5 0.248770 0.327030 0.742220 1.408827
H1    H     H_    0.516766 0.267645 0.429642 0.184348
H2    H     H_    0.477394 0.724299 0.565633 0.177585
H3    H     H_    0.983224 0.767671 0.070358 0.184542
H4    H     H_    0.022669 0.224275 0.934418 0.177681
C9    C     C_R   0.463391 0.164035 0.501981 0.441740
C10   C     C_R   0.532868 0.828312 0.494477 0.447686
C11   C     C_R   0.036612 0.664070 0.998034 0.441665
C12   C     C_R   0.967180 0.328289 0.005560 0.447667
C13   C     C_R   0.452979 0.011417 0.541671 -0.035013
C14   C     C_R   0.543044 0.981333 0.454743 -0.033364
C15   C     C_R   0.047052 0.511430 0.958357 -0.035244
C16   C     C_R   0.956980 0.481324 0.045279 -0.033650
C17   C     C_R   0.486888 0.843712 0.536749 -0.329213
C18   C     C_R   0.508436 0.148228 0.459130 -0.324285
C19   C     C_R   0.013165 0.343697 0.963294 -0.328895
C20   C     C_R   0.991567 0.648242 0.040881 -0.323789
C21   C     C_1   0.407381 0.025489 0.587180 0.029134
C22   C     C_1   0.589868 0.970034 0.410346 0.038213
C23   C     C_1   0.092633 0.525510 0.912833 0.028650
C24   C     C_1   0.910147 0.470020 0.089667 0.038231
C25   C     C_1   0.628773 0.961969 0.373171 -0.184105
C26   C     C_1   0.369543 0.036420 0.625313 -0.176995
C27   C     C_1   0.871235 0.461958 0.126835 -0.184090
C28   C     C_1   0.130463 0.536433 0.874691 -0.177145
C29   C     C_R   0.912641 0.972155 0.391412 -0.198220
C30   C     C_R   0.087064 0.028248 0.608601 -0.211775
C31   C     C_R   0.587361 0.472155 0.108587 -0.198138
C32   C     C_R   0.412932 0.528252 0.891402 -0.211846
C33   C     C_R   0.980677 0.867662 0.571876 0.444007
C34   C     C_R   0.022623 0.113773 0.426241 0.444658
C35   C     C_R   0.519314 0.367638 0.928124 0.443983
C36   C     C_R   0.477375 0.613753 0.073763 0.444682
C37   C     C_R   0.036816 0.909895 0.621002 -0.338998
C38   C     C_R   0.966113 0.073849 0.377185 -0.326134
C39   C     C_R   0.463179 0.409892 0.879000 -0.338705
C40   C     C_R   0.533888 0.573843 0.122817 -0.326159
C41   C     C_R   0.080591 0.108962 0.545091 0.368990
C42   C     C_R   0.915673 0.908965 0.456796 0.392589
C43   C     C_R   0.419403 0.608954 0.954915 0.368891
C44   C     C_R   0.584326 0.408957 0.043203 0.392360
C45   C     C_R   0.025812 0.057956 0.492907 -0.158688
C46   C     C_R   0.973524 0.944297 0.507347 -0.161173
C47   C     C_R   0.474185 0.557944 0.007096 -0.158648
C48   C     C_R   0.526473 0.444282 0.992654 -0.161377
H5    H     H_    0.963960 0.124255 0.327163 0.149414
H6    H     H_    0.041405 0.847333 0.669654 0.152438
H7    H     H_    0.536041 0.624241 0.172840 0.149414
H8    H     H_    0.458586 0.347307 0.830350 0.152515
O21   O     O_3   0.432769 0.332961 0.507913 -0.542844
C49   C     C_3   0.374095 0.343242 0.458306 0.113670
H9    H     H_    0.340060 0.224700 0.462456 0.111756
H10   H     H_    0.386026 0.342917 0.407933 0.116037
C50   C     C_3   0.337728 0.523657 0.466643 -0.706901
H11   H     H_    0.369302 0.645242 0.460330 0.228231
H12   H     H_    0.290701 0.531358 0.428743 0.167988
H13   H     H_    0.325755 0.529018 0.516796 0.225714
O22   O     O_3   0.564739 0.660830 0.488347 -0.542159
C51   C     C_3   0.609405 0.619864 0.548618 0.120978
H14   H     H_    0.581967 0.580334 0.587801 0.128498
H15   H     H_    0.642400 0.741012 0.566087 0.104575
C52   C     C_3   0.653209 0.455899 0.538200 -0.714155
H16   H     H_    0.677723 0.483805 0.495953 0.225819
H17   H     H_    0.692110 0.432932 0.583681 0.171557
H18   H     H_    0.622838 0.327453 0.527661 0.226175
O23   O     O_3   0.067173 0.833077 0.992092 -0.542814
C53   C     C_3   0.126107 0.842917 0.041377 0.113532
H19   H     H_    0.160182 0.724975 0.036614 0.112110
H20   H     H_    0.114583 0.841094 0.091918 0.115763
C54   C     C_3   0.162143 0.024086 0.033295 -0.706768
H21   H     H_    0.130531 0.145027 0.040236 0.228196
H22   H     H_    0.209381 0.031445 0.070911 0.167968
H23   H     H_    0.173691 0.030991 0.982985 0.225710
O24   O     O_3   0.935317 0.160797 0.011683 -0.542103
C55   C     C_3   0.890618 0.119923 0.951423 0.121056
H24   H     H_    0.918027 0.080486 0.912207 0.128477
H25   H     H_    0.857614 0.241086 0.934002 0.104559
C56   C     C_3   0.846828 0.955923 0.961832 -0.714180
H26   H     H_    0.822360 0.983721 0.004119 0.225835
H27   H     H_    0.807893 0.933059 0.916371 0.171548
H28   H     H_    0.877201 0.827462 0.972303 0.226162
O25   O     O_3   0.861342 0.815897 0.471118 -0.534262
C57   C     C_3   0.818247 0.948480 0.490724 0.153571
H29   H     H_    0.798436 0.046698 0.449493 0.080009
H30   H     H_    0.844018 0.029580 0.534689 0.130805
C58   C     C_3   0.759764 0.847896 0.509512 -0.692940
H31   H     H_    0.777529 0.754462 0.552520 0.233731
H32   H     H_    0.724561 0.951233 0.523066 0.166086
H33   H     H_    0.733449 0.763724 0.466878 0.222196
O26   O     O_3   0.130634 0.225509 0.533300 -0.539655
C59   C     C_3   0.111540 0.412256 0.541118 0.172470
H34   H     H_    0.102272 0.436884 0.591789 0.093735
H35   H     H_    0.065919 0.448900 0.503881 0.118190
C60   C     C_3   0.167062 0.542411 0.530993 -0.668661
H36   H     H_    0.175409 0.528396 0.479652 0.215336
H37   H     H_    0.153168 0.689039 0.539005 0.164939
H38   H     H_    0.213829 0.508027 0.566753 0.224745
O27   O     O_3   0.638656 0.315880 0.028878 -0.534316
C61   C     C_3   0.681754 0.448458 0.009279 0.153551
H39   H     H_    0.701553 0.546698 0.050507 0.080062
H40   H     H_    0.655990 0.529527 0.965305 0.130813
C62   C     C_3   0.740249 0.347876 0.990512 -0.693016
H41   H     H_    0.722500 0.254478 0.947490 0.233628
H42   H     H_    0.775463 0.451221 0.976985 0.166094
H43   H     H_    0.766545 0.263671 0.033146 0.222230
O28   O     O_3   0.369352 0.725460 0.966718 -0.539668
C63   C     C_3   0.388421 0.912224 0.958891 0.172570
H44   H     H_    0.397555 0.936915 0.908177 0.093986
H45   H     H_    0.434112 0.948837 0.996040 0.117866
C64   C     C_3   0.332947 0.042351 0.969173 -0.668677
H46   H     H_    0.324722 0.028256 0.020555 0.215424
H47   H     H_    0.346818 0.188995 0.961156 0.164864
H48   H     H_    0.286119 0.008016 0.933495 0.224659
O29   O     O_3   0.932681 0.751252 0.588003 -0.532835
C65   C     C_3   0.952739 0.564522 0.582633 0.163080
H49   H     H_    0.998026 0.532939 0.621095 0.081912
H50   H     H_    0.962582 0.535644 0.532371 0.109196
C66   C     C_3   0.897471 0.434395 0.593318 -0.702470
H51   H     H_    0.852356 0.455802 0.553745 0.230167
H52   H     H_    0.914155 0.287522 0.591692 0.163802
H53   H     H_    0.885025 0.461511 0.642434 0.217796
O30   O     O_3   0.074221 0.211061 0.408220 -0.537985
C67   C     C_3   0.116081 0.082645 0.384655 0.168420
H54   H     H_    0.090619 0.025097 0.335767 0.098422
H55   H     H_    0.131091 0.965596 0.420332 0.116873
C68   C     C_3   0.179091 0.182142 0.375828 -0.720256
H56   H     H_    0.206691 0.235006 0.424443 0.237175
H57   H     H_    0.211599 0.083727 0.355571 0.162968
H58   H     H_    0.166292 0.301029 0.340975 0.215537
O31   O     O_3   0.567284 0.251151 0.911989 -0.532829
C69   C     C_3   0.547277 0.064458 0.917555 0.162972
H59   H     H_    0.501802 0.032774 0.879350 0.081613
H60   H     H_    0.537773 0.035768 0.967961 0.109788
C70   C     C_3   0.602382 0.934225 0.906526 -0.702460
H61   H     H_    0.647779 0.956166 0.945704 0.230203
H62   H     H_    0.585804 0.787369 0.908551 0.163794
H63   H     H_    0.614308 0.960748 0.857149 0.217678
O32   O     O_3   0.425769 0.710986 0.091794 -0.537953
C71   C     C_3   0.383912 0.582491 0.115324 0.168487
H64   H     H_    0.409396 0.524700 0.164165 0.098351
H65   H     H_    0.368857 0.465619 0.079579 0.116957
C72   C     C_3   0.320936 0.681964 0.124261 -0.720488
H66   H     H_    0.293316 0.735096 0.075695 0.236990
H67   H     H_    0.288428 0.583465 0.144478 0.163023
H68   H     H_    0.333784 0.800662 0.159192 0.215568

loop_
_geom_bond_atom_site_label_1
_geom_bond_atom_site_label_2
_ccdc_geom_bond_type
O17   V3    S    
C12   C19   A    
O18   V4    S    
C70   H61   S    
O19   V1    S    
C58   H31   S    
O13   V1    S    
O32   C71   S    
O24   C55   S    
O3    C7    A    
C29   C38   A    
C44   C48   A    
O15   V3    S    
C58   H32   S    
O23   C53   S    
C44   O27   S    
C43   O28   S    
C72   H66   S    
O1    C5    A    
C10   O22   S    
O5    C1    A    
C52   H16   S    
C55   H25   S    
C49   C50   S    
C36   C40   A    
O9    V1    S    
C69   H59   S    
C56   H27   S    
O29   C65   S    
O4    C8    A    
C11   O23   S    
C55   H24   S    
C8    C26   S    
C21   C26   T    
C65   C66   S    
O1    V3    S    
C68   H58   S    
H4    C19   S    
O2    V4    S    
C23   C28   T    
C14   C18   A    
C36   O32   S    
O3    V1    S    
C33   O29   S    
C52   H17   S    
C55   C56   S    
C10   C17   A    
O25   C57   S    
C51   H15   S    
C1    O15   A    
C68   H56   S    
C32   C39   A    
C2    O16   A    
O2    C6    A    
C60   H38   S    
C34   C45   A    
C41   C45   A    
O14   V2    S    
C29   C42   A    
C65   H50   S    
C24   C27   T    
C31   C44   A    
C4    C30   S    
C16   C24   S    
C40   H7    S    
O11   C7    A    
C70   H62   S    
H1    C18   S    
C9    O21   S    
O10   V2    S    
H3    C20   S    
C13   C21   S    
O31   C69   S    
C69   H60   S    
C72   H67   S    
C42   O25   S    
C35   C39   A    
C22   C25   T    
O7    V3    S    
C34   C38   A    
C50   H12   S    
O8    V4    S    
C54   H21   S    
C67   C68   S    
C58   H33   S    
C5    C27   S    
O27   C61   S    
C11   C15   A    
C32   C43   A    
C50   H11   S    
O21   C49   S    
C56   H28   S    
C1    C31   S    
C64   H47   S    
C68   H57   S    
C61   H40   S    
C47   C48   A    
C42   C46   A    
C31   C40   A    
C62   H43   S    
C69   C70   S    
C30   C37   A    
O7    C3    A    
C41   O26   S    
O8    C4    A    
C4    O14   A    
O26   C59   S    
O9    C5    A    
H2    C17   S    
C67   H54   S    
C63   H45   S    
C14   C22   S    
C66   H53   S    
O6    V2    S    
C53   H19   S    
C70   H63   S    
C49   H10   S    
C60   H36   S    
C64   H48   S    
C61   C62   S    
O12   V4    S    
C59   H35   S    
O22   C51   S    
O5    V1    S    
C51   C52   S    
C62   H42   S    
C65   H49   S    
O16   V4    S    
C50   H13   S    
C35   O31   S    
C38   H5    S    
C2    C32   S    
C3    O13   A    
C45   C46   A    
C37   H6    S    
C67   H55   S    
C39   H8    S    
C63   C64   S    
O6    C2    A    
C57   H30   S    
C30   C41   A    
O11   V3    S    
C33   C46   A    
C52   H18   S    
C53   C54   S    
O28   C63   S    
C53   H20   S    
C34   O30   S    
C6    C28   S    
O10   C6    A    
C59   C60   S    
C66   H52   S    
C61   H39   S    
C9    C18   A    
C3    C29   S    
C66   H51   S    
C43   C47   A    
C15   C23   S    
C51   H14   S    
C62   H41   S    
C71   H65   S    
C7    C25   S    
O20   V2    S    
C72   H68   S    
C36   C47   A    
C57   H29   S    
C9    C13   A    
C57   C58   S    
C63   H44   S    
C10   C14   A    
C33   C37   A    
C12   C16   A    
O12   C8    A    
C49   H9    S    
C71   H64   S    
C56   H26   S    
C60   H37   S    
C13   C17   A    
C35   C48   A    
C11   C20   A    
C54   H23   S    
C59   H34   S    
C64   H46   S    
C15   C19   A    
C71   C72   S    
O4    V2    S    
C16   C20   A    
C12   O24   S    
O30   C67   S    
C54   H22   S    
