data_mof_unit_9406.cif
_audit_creation_date              2012-12-11T14:51:46-0500
_audit_creation_method            fapswitch 2.2
_symmetry_space_group_name_H-M    P1
_symmetry_Int_Tables_number       1
_space_group_crystal_system       triclinic
_cell_length_a                    6.940471
_cell_length_b                    16.671498
_cell_length_c                    16.949538
_cell_angle_alpha                 101.427651
_cell_angle_beta                  90.75891
_cell_angle_gamma                 89.960456
_cell_volume                      1922.1461607

loop_
_atom_site_label
_atom_site_type_symbol
_atom_type_description
_atom_site_fract_x
_atom_site_fract_y
_atom_site_fract_z
_atom_type_partial_charge
O1    O     O_R   0.506340 0.439070 0.579550 -0.526083
O2    O     O_R   0.170010 0.404890 0.412100 -0.543062
O3    O     O_R   0.005010 0.560930 0.420450 -0.542305
C1    C     C_R   0.339418 0.381448 0.383614 0.733316
O4    O     O_R   0.176280 0.429360 0.578400 -0.532972
O5    O     O_R   0.011320 0.585570 0.587940 -0.542357
C2    C     C_R   0.346328 0.411060 0.602399 0.750158
O6    O     O_R   0.500030 0.414430 0.412060 -0.537721
O7    O     O_3   0.340950 0.551220 0.502940 -0.374904
V1    V     V_3+5 0.064020 0.490500 0.499460 1.464474
O8    O     O_R   0.681910 0.595110 0.587900 -0.541882
C3    C     C_R   0.851660 0.618434 0.616660 0.688522
O9    O     O_R   0.675640 0.570640 0.421600 -0.539982
C4    C     C_R   0.842325 0.586400 0.394753 0.688656
V2    V     V_3+5 0.564670 0.509500 0.500540 1.465795
O10   O     O_3   0.837610 0.448780 0.497060 -0.352006
C5    C     C_R   0.926314 0.861897 0.167865 -0.092502
C6    C     C_R   0.840299 0.638785 0.332857 -0.071521
C7    C     C_R   0.666433 0.686712 0.224827 -0.128914
C8    C     C_R   0.683053 0.633554 0.278807 -0.142969
C9    C     C_R   0.982819 0.698385 0.331196 -0.187914
C10   C     C_R   0.965923 0.753823 0.277823 0.102876
C11   C     C_R   0.805096 0.747667 0.224189 0.139882
C12   C     C_R   0.785228 0.802145 0.170402 -0.205797
C13   C     C_R   0.083849 0.868163 0.221872 -0.152384
C14   C     C_R   0.103821 0.815857 0.276792 0.149546
H1    H     H_    0.663774 0.796208 0.128752 0.123275
H2    H     H_    0.193497 0.914266 0.221285 0.159684
H3    H     H_    0.542860 0.680921 0.184320 0.124099
H4    H     H_    0.571086 0.588267 0.278687 0.121865
H5    H     H_    0.102316 0.702571 0.373380 0.152792
C15   C     C_3   0.806619 0.817864 0.731154 -0.123725
C16   C     C_3   0.976652 0.768648 0.687150 -0.125895
H6    H     H_    0.053441 0.783585 0.634838 0.128399
H7    H     H_    0.743877 0.874350 0.716128 0.124327
C17   C     C_3   0.865915 0.688716 0.687410 -0.020211
C18   C     C_3   0.695719 0.737109 0.730594 -0.116261
C19   C     C_3   0.789447 0.731398 0.812784 -0.136611
C20   C     C_3   0.959484 0.682188 0.768787 -0.133656
C21   C     C_3   0.070383 0.762940 0.769343 -0.121427
C22   C     C_3   0.900187 0.811327 0.812534 -0.020043
H8    H     H_    0.541318 0.726116 0.714125 0.112214
H9    H     H_    0.712645 0.716456 0.865089 0.113361
H10   H     H_    0.022236 0.625704 0.783811 0.120272
H11   H     H_    0.224786 0.773935 0.785806 0.110946
C23   C     C_3   0.556420 0.283148 0.275609 -0.213111
C24   C     C_3   0.497531 0.192648 0.272293 0.178614
H12   H     H_    0.699581 0.310141 0.295298 0.142588
C25   C     C_3   0.408975 0.188290 0.187530 -0.163367
C26   C     C_3   0.464392 0.277997 0.191520 0.275243
C27   C     C_3   0.270530 0.305539 0.229039 0.308307
C28   C     C_3   0.210493 0.215981 0.225722 -0.209737
C29   C     C_3   0.300796 0.220847 0.311229 -0.156226
C30   C     C_3   0.357696 0.310957 0.313394 -0.141008
H13   H     H_    0.067221 0.189493 0.205437 0.159128
H14   H     H_    0.233250 0.197233 0.361108 0.179060
C31   C     C_R   0.413626 0.138760 0.833951 -0.129158
C32   C     C_R   0.353547 0.359145 0.663947 -0.135768
C33   C     C_R   0.248214 0.342120 0.795456 0.230319
C34   C     C_R   0.248045 0.385521 0.733480 -0.202574
C35   C     C_R   0.464221 0.286668 0.655957 0.129686
C36   C     C_R   0.439656 0.233961 0.712458 -0.000077
C37   C     C_R   0.327118 0.262080 0.783229 0.013427
C38   C     C_R   0.297513 0.209117 0.838698 0.138520
C39   C     C_R   0.525374 0.113071 0.766043 -0.203135
C40   C     C_R   0.522983 0.154501 0.702361 0.221826
H15   H     H_    0.600143 0.054994 0.759070 0.139121
H16   H     H_    0.178300 0.444817 0.742604 0.140381
O11   O     O_R   0.266070 0.085680 0.087850 -0.535986
O12   O     O_R   0.590090 0.070660 0.921580 -0.533027
O13   O     O_R   0.754780 0.914400 0.912080 -0.544004
C41   C     C_R   0.420142 0.088333 0.896851 0.752528
O14   O     O_R   0.596110 0.095130 0.087880 -0.538109
O15   O     O_R   0.760850 0.939050 0.079570 -0.532828
C42   C     C_R   0.426769 0.118467 0.116518 0.749833
O16   O     O_R   0.260010 0.061030 0.920360 -0.524179
O17   O     O_3   0.425070 0.948840 0.997010 -0.379254
V3    V     V_3+5 0.702100 0.009490 0.000550 1.472656
O18   O     O_R   0.090200 0.929250 0.078500 -0.547764
C43   C     C_R   0.923509 0.913588 0.105356 0.721038
O19   O     O_R   0.084180 0.904770 0.912200 -0.544197
C44   C     C_R   0.914442 0.881552 0.883342 0.679403
V4    V     V_3+5 0.201420 0.990350 0.999580 1.459556
O20   O     O_3   0.928580 0.051150 0.002990 -0.351853
I1    I     I_    0.681952 0.102996 0.307584 -0.333507
N1    N     N_2   0.551740 0.308517 0.126256 -0.517338
H17   H     H_    0.662294 0.272182 0.099611 0.262016
C45   C     C_3   0.597246 0.394950 0.143581 -0.513821
H18   H     H_    0.654280 0.412919 0.088704 0.220914
H19   H     H_    0.706639 0.408780 0.192770 0.171130
H20   H     H_    0.466606 0.431979 0.161764 0.230424
N2    N     N_2   0.147089 0.367500 0.206581 -0.550581
H21   H     H_    0.036032 0.384194 0.246215 0.243858
C46   C     C_3   0.084247 0.351272 0.123308 -0.466914
H22   H     H_    0.004149 0.404892 0.110459 0.209896
H23   H     H_    0.990390 0.296321 0.110771 0.195201
H24   H     H_    0.208789 0.341115 0.082375 0.264826
I2    I     I_    0.045090 0.218138 0.911978 -0.362902
I3    I     I_    0.182128 0.417406 0.909051 -0.422160
I4    I     I_    0.596893 0.075482 0.591731 -0.259885
I5    I     I_    0.693013 0.272067 0.569987 -0.277823
I6    I     I_    0.347131 0.835998 0.355856 -0.360564

loop_
_geom_bond_atom_site_label_1
_geom_bond_atom_site_label_2
_ccdc_geom_bond_type
O12   V3    S    
C6    C9    A    
C33   I3    S    
C4    C6    S    
O2    C1    A    
C7    C8    A    
C12   H1    S    
C41   O16   A    
O19   C44   A    
C24   C25   S    
C8    H4    S    
C29   C30   S    
C13   H2    S    
C9    H5    S    
C36   C37   A    
C24   I1    S    
C17   C18   S    
O5    C3    A    
C19   C20   S    
N1    C45   S    
O17   V4    S    
C32   C34   A    
V2    O10   S    
C16   C17   S    
C40   I4    S    
C18   H8    S    
O8    V2    S    
C39   H15   S    
C11   C12   A    
C25   C42   S    
O1    V2    S    
C3    C17   S    
O7    V1    S    
C2    C32   S    
C28   H13   S    
C1    O6    A    
C24   C29   S    
O13   C44   A    
C32   C35   A    
C38   I2    S    
C33   C34   A    
O15   C43   A    
O9    C4    A    
O14   C42   A    
C46   H22   S    
O16   V4    S    
O19   V4    S    
C26   C27   S    
C21   H11   S    
C23   H12   S    
C5    C12   A    
C36   C40   A    
C27   C28   S    
C16   C21   S    
C15   H7    S    
C19   C22   S    
C20   C21   S    
O4    C2    A    
N1    H17   S    
C46   H24   S    
C13   C14   A    
O17   V3    S    
O14   V3    S    
C5    C43   S    
O18   C43   A    
C35   I5    S    
C18   C19   S    
O11   V4    S    
C27   N2    S    
V4    O20   S    
C45   H20   S    
C15   C22   S    
C25   C28   S    
C23   C30   S    
N2    C46   S    
C16   H6    S    
C15   C18   S    
C46   H23   S    
O3    C4    A    
C21   C22   S    
C45   H19   S    
C39   C40   A    
O6    V2    S    
O9    V2    S    
C10   C14   A    
O2    V1    S    
C28   C29   S    
C7    C11   A    
C31   C38   A    
C29   H14   S    
C23   C24   S    
C1    C30   S    
O1    C2    A    
C17   C20   S    
C31   C39   A    
O5    V1    S    
O8    C3    A    
C20   H10   S    
C23   C26   S    
C33   C37   A    
C27   C30   S    
C5    C13   A    
C15   C16   S    
O7    V2    S    
C19   H9    S    
O3    V1    S    
V1    O10   S    
C14   I6    S    
O18   V4    S    
C22   C44   S    
N2    H21   S    
O11   C42   A    
C6    C8    A    
C31   C41   S    
C35   C36   A    
C26   N1    S    
C37   C38   A    
V3    O20   S    
O4    V1    S    
C45   H18   S    
C34   H16   S    
C25   C26   S    
O15   V3    S    
C10   C11   A    
O12   C41   A    
C9    C10   A    
O13   V3    S    
C7    H3    S    
