data_mof_unit_56471.cif
_audit_creation_date              2012-12-11T17:09:32-0500
_audit_creation_method            fapswitch 2.2
_symmetry_space_group_name_H-M    P1
_symmetry_Int_Tables_number       1
_space_group_crystal_system       monoclinic
_cell_length_a                    14.80147
_cell_length_b                    6.927411
_cell_length_c                    13.528705
_cell_angle_alpha                 90.0
_cell_angle_beta                  99.849084
_cell_angle_gamma                 90.0
_cell_volume                      1366.73287729

loop_
_atom_site_label
_atom_site_type_symbol
_atom_type_description
_atom_site_fract_x
_atom_site_fract_y
_atom_site_fract_z
_atom_type_partial_charge
O1    O     O_R   0.586930 0.505770 0.416350 -0.544003
O2    O     O_R   0.413070 0.005770 0.583650 -0.544003
O3    O     O_R   0.397900 0.173100 0.389630 -0.538653
O4    O     O_R   0.602100 0.673100 0.610370 -0.538653
C1    C     C_R   0.364481 0.345473 0.362545 0.710803
C2    C     C_R   0.635518 0.845473 0.637455 0.710804
O5    O     O_R   0.585280 0.175870 0.404330 -0.538768
O6    O     O_R   0.414720 0.675870 0.595670 -0.538770
O7    O     O_R   0.601790 0.008380 0.598460 -0.531917
O8    O     O_R   0.398210 0.508380 0.401540 -0.531918
C3    C     C_R   0.614787 0.344911 0.382896 0.708433
C4    C     C_R   0.385213 0.844911 0.617104 0.708432
O9    O     O_3   0.505200 0.340120 0.563670 -0.370946
O10   O     O_3   0.494800 0.840120 0.436330 -0.370945
V1    V     V_3+5 0.499040 0.064180 0.488190 1.405777
V2    V     V_3+5 0.500960 0.564180 0.511810 1.405774
C5    C     C_R   0.249391 0.002298 0.674097 0.007248
C6    C     C_R   0.750609 0.502298 0.325903 0.007247
C7    C     C_R   0.314347 0.853153 0.682406 -0.112019
C8    C     C_R   0.685653 0.353153 0.317594 -0.112018
C9    C     C_R   0.306379 0.704780 0.751702 -0.149387
C10   C     C_R   0.693621 0.204780 0.248298 -0.149386
H1    H     H_    0.353950 0.585107 0.760003 0.119008
H2    H     H_    0.646050 0.085107 0.239997 0.119008
C11   C     C_R   0.240940 0.715919 0.815997 -0.187908
C12   C     C_R   0.759060 0.215919 0.184003 -0.187908
C13   C     C_R   0.181233 0.875402 0.812727 -0.129821
C14   C     C_R   0.818766 0.375402 0.187273 -0.129820
C15   C     C_R   0.184560 0.012968 0.737719 0.056173
C16   C     C_R   0.815440 0.512969 0.262280 0.056172
C17   C     C_3   0.190668 0.227798 0.744923 0.058529
C18   C     C_3   0.809331 0.727799 0.255076 0.058527
C19   C     C_3   0.262277 0.217008 0.675330 -0.003002
C20   C     C_3   0.737723 0.717008 0.324670 -0.003003
C21   C     C_1   0.783454 0.877106 0.782879 -0.187378
C22   C     C_1   0.216545 0.377106 0.217121 -0.187378
C23   C     C_1   0.716101 0.860153 0.716928 -0.179866
C24   C     C_1   0.283898 0.360153 0.283071 -0.179865
O11   O     O_R   0.101720 0.231700 0.098560 -0.538490
O12   O     O_R   0.898280 0.731700 0.901440 -0.538490
O13   O     O_R   0.914700 0.558980 0.095690 -0.533670
O14   O     O_R   0.085300 0.058980 0.904310 -0.533671
C25   C     C_R   0.885125 0.389643 0.116984 0.705972
C26   C     C_R   0.114875 0.889643 0.883016 0.705971
O15   O     O_R   0.102080 0.561590 0.110390 -0.536282
O16   O     O_R   0.897920 0.061590 0.889610 -0.536282
O17   O     O_R   0.086950 0.728940 0.916330 -0.540029
O18   O     O_R   0.913050 0.228940 0.083670 -0.540029
C27   C     C_R   0.136063 0.391898 0.137508 0.727365
C28   C     C_R   0.863937 0.891898 0.862491 0.727365
O19   O     O_3   0.994770 0.394510 0.936380 -0.361437
O20   O     O_3   0.005230 0.894510 0.063620 -0.361437
V3    V     V_3+5 0.000970 0.670520 0.011800 1.453912
V4    V     V_3+5 0.999030 0.170520 0.988200 1.453912
H3    H     H_    0.240047 0.604116 0.871651 0.122401
H4    H     H_    0.759952 0.104116 0.128349 0.122401
H5    H     H_    0.218516 0.278217 0.822067 0.097016
H6    H     H_    0.781482 0.778217 0.177932 0.097017
N1    N     N_3   0.103650 0.321126 0.702713 -0.625499
H7    H     H_    0.074115 0.255749 0.635173 0.240894
H8    H     H_    0.116940 0.465301 0.687534 0.263177
N2    N     N_3   0.896349 0.821128 0.297285 -0.625500
H9    H     H_    0.925886 0.755748 0.364825 0.240891
H10   H     H_    0.883059 0.965301 0.312466 0.263177
H11   H     H_    0.332198 0.261254 0.712174 0.106397
H12   H     H_    0.667802 0.761254 0.287827 0.106399
N3    N     N_3   0.233625 0.307151 0.576851 -0.645675
H13   H     H_    0.185419 0.220869 0.531329 0.228640
H14   H     H_    0.291072 0.313910 0.541686 0.243009
N4    N     N_3   0.766375 0.807150 0.423149 -0.645673
H15   H     H_    0.814586 0.720874 0.468668 0.228640
H16   H     H_    0.708931 0.813894 0.458318 0.243008

loop_
_geom_bond_atom_site_label_1
_geom_bond_atom_site_label_2
_ccdc_geom_bond_type
C13   C15   A    
C5    C15   A    
O1    C3    A    
C18   H6    S    
O2    C4    A    
C20   H12   S    
C2    O7    A    
C19   H11   S    
O18   V4    S    
C5    C19   S    
C21   C23   T    
O11   V4    S    
C17   N1    S    
N2    H10   S    
C13   C26   S    
C17   C19   S    
N4    H15   S    
C6    C16   A    
C25   O18   A    
C20   N4    S    
C6    C8    A    
C26   O17   A    
O17   V3    S    
O5    V1    S    
O15   V3    S    
N1    H7    S    
O6    V2    S    
C1    C24   S    
O13   C25   A    
O14   C26   A    
O20   V4    S    
C3    C8    S    
N1    H8    S    
N3    H13   S    
O4    C2    A    
O19   V3    S    
C18   C20   S    
O4    V2    S    
O5    C3    A    
N2    H9    S    
O9    V1    S    
O15   C27   A    
O6    C4    A    
O16   V4    S    
C21   C28   S    
C2    C23   S    
O1    V2    S    
O2    V1    S    
C6    C20   S    
O13   V3    S    
O11   C27   A    
C8    C10   A    
C9    H1    S    
O10   V2    S    
O3    V1    S    
O20   V3    S    
C19   N3    S    
C9    C11   A    
C7    C9    A    
C11   H3    S    
O3    C1    A    
C12   H4    S    
C11   C13   A    
O16   C28   A    
C14   C25   S    
C12   C14   A    
O19   V4    S    
C17   H5    S    
C22   C24   T    
O7    V1    S    
C18   N2    S    
C1    O8    A    
C15   C17   S    
O8    V2    S    
O14   V4    S    
C16   C18   S    
O12   C28   A    
C4    C7    S    
C14   C16   A    
C5    C7    A    
C10   H2    S    
O12   V3    S    
C10   C12   A    
O9    V2    S    
O10   V1    S    
N4    H16   S    
N3    H14   S    
C22   C27   S    
