data_mof_unit_41094.cif
_audit_creation_date              2013-03-05T16:00:16-0500
_audit_creation_method            fapswitch 2.2
_symmetry_space_group_name_H-M    P1
_symmetry_Int_Tables_number       1
_space_group_crystal_system       triclinic
_cell_length_a                    11.710986
_cell_length_b                    14.674549
_cell_length_c                    14.793246
_cell_angle_alpha                 64.534565
_cell_angle_beta                  103.475993
_cell_angle_gamma                 102.868759
_cell_volume                      2210.24141323

loop_
_atom_site_label
_atom_site_type_symbol
_atom_site_description
_atom_site_fract_x
_atom_site_fract_y
_atom_site_fract_z
_atom_type_partial_charge
O1    O     O_R   0.459870 0.022090 0.338120 -0.533637
O2    O     O_R   0.540130 0.977910 0.661880 -0.563701
O3    O     O_R   0.511290 0.160150 0.379180 -0.596599
O4    O     O_R   0.488710 0.839850 0.620820 -0.558824
C1    C     C_R   0.478900 0.120392 0.312205 0.791015
C2    C     C_R   0.514112 0.880111 0.687849 0.806823
O5    O     O_R   0.311490 0.930960 0.479480 -0.612112
O6    O     O_R   0.688510 0.069040 0.520520 -0.510852
O7    O     O_R   0.362910 0.069020 0.520540 -0.526486
O8    O     O_R   0.637090 0.930980 0.479460 -0.578509
C3    C     C_R   0.284108 0.000266 0.499865 0.803847
C4    C     C_R   0.715907 0.999815 0.500082 0.836959
Cu1   Cu    Cu3+1 0.469550 0.918260 0.475690 1.009259
Cu2   Cu    Cu3+1 0.530450 0.081740 0.524310 1.038007
C5    C     C_1   0.162501 0.000636 0.499799 -0.121241
C6    C     C_1   0.837571 0.999791 0.499904 -0.126140
C7    C     C_1   0.060010 0.000562 0.499755 0.046261
C8    C     C_1   0.940111 0.000141 0.499803 0.034776
C9    C     C_R   0.452944 0.189978 0.205215 -0.059498
C10   C     C_R   0.510559 0.814150 0.796060 -0.056200
C11   C     C_R   0.360328 0.221547 0.032565 -0.085960
C12   C     C_R   0.555077 0.790342 0.972462 -0.095141
C13   C     C_R   0.398331 0.153761 0.130258 -0.203967
C14   C     C_R   0.551248 0.853836 0.870255 -0.206693
C15   C     C_R   0.474666 0.294885 0.180073 -0.169778
C16   C     C_R   0.462118 0.711733 0.825271 -0.154208
C17   C     C_R   0.432583 0.365081 0.083470 0.061468
C18   C     C_R   0.462819 0.645535 0.928344 0.056355
C19   C     C_R   0.373298 0.327194 0.008202 0.004150
C20   C     C_R   0.516103 0.684973 0.003364 0.022797
C21   C     C_R   0.451686 0.471921 0.059237 -0.006345
C22   C     C_R   0.420657 0.539751 0.957948 -0.041396
C23   C     C_R   0.349143 0.499979 0.888851 -0.203741
C24   C     C_R   0.500663 0.513224 0.132773 -0.278270
C25   C     C_R   0.327747 0.395703 0.911333 0.429824
C26   C     C_R   0.530782 0.617959 0.106622 0.386252
H1    H     H_    0.428179 0.684601 0.766107 0.207841
H2    H     H_    0.525630 0.319726 0.237909 0.159834
H3    H     H_    0.581719 0.934022 0.849689 0.156938
H4    H     H_    0.382938 0.072919 0.147370 0.204661
H5    H     H_    0.319598 0.189448 0.977401 0.212029
H6    H     H_    0.591475 0.824998 0.026197 0.214013
H7    H     H_    0.307734 0.549975 0.816509 0.208784
H8    H     H_    0.513834 0.465548 0.212306 0.194656
N1    N     N_R   0.576230 0.204580 0.560790 -0.252937
N2    N     N_R   0.423770 0.795420 0.439210 -0.238930
C27   C     C_R   0.724547 0.304200 0.635561 0.272439
C28   C     C_R   0.264440 0.696798 0.370067 0.212499
C29   C     C_R   0.679484 0.211503 0.624355 0.572215
C30   C     C_R   0.320569 0.791860 0.373409 0.564263
C31   C     C_R   0.511510 0.283439 0.514354 0.044652
C32   C     C_R   0.482992 0.712988 0.489643 0.067397
C33   C     C_R   0.535480 0.366188 0.544750 -0.065587
C34   C     C_R   0.438424 0.618953 0.479344 -0.058466
C35   C     C_R   0.645940 0.376512 0.607286 -0.166469
C36   C     C_R   0.331663 0.614295 0.412103 -0.160717
C37   C     C_R   0.459109 0.443112 0.508322 -0.056941
C38   C     C_R   0.498603 0.530667 0.532265 -0.098780
C39   C     C_R   0.588853 0.521937 0.616594 0.287976
C40   C     C_R   0.345132 0.437458 0.449204 0.292196
C41   C     C_R   0.671823 0.454498 0.644351 0.465087
C42   C     C_R   0.294281 0.526771 0.389627 0.497482
H9    H     H_    0.567423 0.722819 0.534694 0.189094
H10   H     H_    0.442462 0.280630 0.453420 0.202752
S1    S     S_3+6 0.247206 0.355153 0.814388 0.045507
O9    O     O_2   0.330199 0.315674 0.780416 -0.250764
O10   O     O_2   0.149075 0.271088 0.855041 -0.270893
O11   O     O_3   0.188434 0.452237 0.714684 -0.491030
H11   H     H_    0.184174 0.436918 0.654845 0.402703
S2    S     S_3+6 0.595659 0.660605 0.205463 -0.018426
O12   O     O_2   0.720190 0.711654 0.190213 -0.221400
O13   O     O_2   0.524847 0.735848 0.202578 -0.329925
O14   O     O_3   0.599603 0.562407 0.319547 -0.565674
H12   H     H_    0.645851 0.591980 0.368169 0.383016
S3    S     S_3+6 0.563762 0.553062 0.713283 -0.008806
O15   O     O_2   0.640202 0.650055 0.713314 -0.369273
O16   O     O_2   0.435627 0.565525 0.694746 -0.303764
O17   O     O_3   0.593866 0.457830 0.827101 -0.464751
H13   H     H_    0.599346 0.487231 0.877230 0.368543
S4    S     S_3+6 0.244017 0.322338 0.469742 0.026058
O18   O     O_2   0.235330 0.288559 0.385427 -0.331591
O19   O     O_2   0.281344 0.239382 0.570216 -0.270116
O20   O     O_3   0.109024 0.344544 0.469299 -0.432393
H14   H     H_    0.054947 0.281897 0.470066 0.392635
O21   O     O_3   0.764035 0.449610 0.723997 -0.504788
C43   C     C_3   0.839441 0.544062 0.703091 -0.041468
H15   H     H_    0.829371 0.579115 0.753297 0.192156
H16   H     H_    0.826120 0.599493 0.622379 0.101894
H17   H     H_    0.932849 0.529442 0.722474 0.211623
O22   O     O_3   0.205311 0.526519 0.309608 -0.479518
C44   C     C_3   0.257947 0.549800 0.224407 -0.143752
H18   H     H_    0.315141 0.492169 0.239154 0.145371
H19   H     H_    0.309154 0.627646 0.200320 0.178900
H20   H     H_    0.186686 0.548374 0.160605 0.198312
O23   O     O_3   0.299451 0.881369 0.289334 -0.578670
C45   C     C_3   0.194626 0.916270 0.284608 -0.139167
H21   H     H_    0.210722 0.000703 0.254674 0.147435
H22   H     H_    0.165016 0.889536 0.358715 0.172723
H23   H     H_    0.123089 0.895675 0.229954 0.228654
O24   O     O_3   0.745032 0.131213 0.666667 -0.519791
C46   C     C_3   0.760974 0.093122 0.773558 -0.192692
H24   H     H_    0.772561 0.011671 0.804460 0.174881
H25   H     H_    0.684394 0.098334 0.803125 0.114031
H26   H     H_    0.843326 0.132510 0.802927 0.229817
S5    S     S_3+6 0.881238 0.336175 0.659830 0.070720
O25   O     O_2   0.916924 0.445122 0.591782 -0.253971
O26   O     O_2   0.919019 0.322084 0.768779 -0.222317
O27   O     O_3   0.950251 0.261341 0.636445 -0.478821
H27   H     H_    0.035027 0.274874 0.663698 0.411811
S6    S     S_3+6 0.105914 0.674719 0.338626 0.076151
O28   O     O_2   0.072490 0.711054 0.225523 -0.211355
O29   O     O_2   0.058041 0.563617 0.386862 -0.144803
O30   O     O_3   0.037902 0.735379 0.380233 -0.540441
H28   H     H_    0.061710 0.706717 0.454815 0.340943

loop_
_geom_bond_atom_site_label_1
_geom_bond_atom_site_label_2
_geom_bond_distance
_ccdc_geom_bond_type
C28   S6    1.796413 S    
C46   H24   1.108827 S    
C17   C19   1.425146 A    
O14   H12   0.990563 S    
O23   C45   1.408359 S    
S3    O15   1.503332 D    
O22   C44   1.408292 S    
C27   C29   1.410584 A    
O21   C43   1.417768 S    
O5    C3    1.296991 A    
S5    O26   1.502642 D    
O20   H14   0.990642 S    
O1    C1    1.303306 A    
Cu1   N2    2.024676 S    
C43   H16   1.116302 S    
C30   O23   1.389185 S    
C25   S1    1.775912 S    
C13   H4    1.082455 S    
C45   H23   1.108385 S    
N2    C32   1.362844 A    
C14   H3    1.077136 S    
O27   H27   0.991015 S    
C40   C42   1.399600 A    
O4    Cu1   1.936446 S    
S6    O28   1.502509 D    
C3    C5    1.425136 S    
C4    C6    1.425498 S    
C26   S2    1.778809 S    
O11   H11   0.991055 S    
C27   S5    1.780614 S    
C45   H22   1.105768 S    
S2    O12   1.503437 D    
C24   C26   1.395379 A    
C32   H9    1.074546 S    
C28   C30   1.419940 A    
C46   H25   1.115178 S    
Cu1   Cu2   2.695131 S    
O2    C2    1.298364 A    
S4    O20   1.681748 S    
O2    Cu2   1.943958 S    
O8    C4    1.297623 A    
C32   C34   1.422224 A    
Cu2   N1    2.024676 S    
C33   C35   1.423950 A    
S5    O27   1.682600 S    
C34   C36   1.413538 A    
C39   C41   1.408906 A    
C17   C21   1.426345 A    
C23   H7    1.077096 S    
C10   C14   1.397571 A    
C18   C22   1.421293 A    
C24   H8    1.073858 S    
O4    C2    1.307213 A    
C44   H18   1.112204 S    
C33   C37   1.437544 A    
C43   H15   1.107476 S    
C37   C40   1.422102 A    
S1    O10   1.502270 D    
C38   C39   1.413536 A    
C11   C19   1.413013 A    
O8    Cu1   1.918970 S    
C31   C33   1.419304 A    
C9    C13   1.394966 A    
O7    Cu2   1.918968 S    
C15   H2    1.074429 S    
C44   H19   1.111748 S    
O7    C3    1.297002 A    
C21   C22   1.411661 A    
N1    C29   1.361686 A    
O6    C4    1.296463 A    
S1    O11   1.683894 S    
C45   H21   1.108991 S    
S2    O14   1.681924 S    
C7    C8    1.402935 S    
C21   C24   1.414580 A    
S3    O16   1.499248 D    
S6    O30   1.679598 S    
O3    Cu2   1.936443 S    
C41   O21   1.388649 S    
C11   H5    1.079068 S    
S4    O19   1.503485 D    
C46   H26   1.106934 S    
C11   C13   1.391885 A    
C12   C14   1.389885 A    
O1    Cu1   1.943957 S    
C35   C41   1.417681 A    
C39   S3    1.777168 S    
C27   C35   1.422116 A    
O30   H28   0.990822 S    
C34   C38   1.437146 A    
C28   C36   1.421692 A    
N2    C30   1.370482 A    
C40   S4    1.784267 S    
O6    Cu2   1.917091 S    
C12   C20   1.408264 A    
O17   H13   0.990356 S    
C31   H10   1.070284 S    
S4    O18   1.503947 D    
O3    C1    1.299722 A    
C43   H17   1.109196 S    
C16   H1    1.072174 S    
C5    C7    1.199877 T    
C1    C9    1.471175 S    
C15   C17   1.406495 A    
C2    C10   1.477105 S    
S5    O25   1.502827 D    
C19   C25   1.411563 A    
C16   C18   1.411624 A    
C20   C26   1.411063 A    
C22   C23   1.408245 A    
C18   C20   1.422901 A    
C29   O24   1.383467 S    
C37   C38   1.428441 A    
C12   H6    1.079526 S    
C10   C16   1.394023 A    
C42   O22   1.383502 S    
O24   C46   1.412992 S    
C23   C25   1.394749 A    
C36   C42   1.414477 A    
C9    C15   1.396523 A    
S3    O17   1.682741 S    
S6    O29   1.503490 D    
O5    Cu1   1.917091 S    
C6    C8    1.200059 T    
S1    O9    1.503893 D    
N1    C31   1.360119 A    
S2    O13   1.503179 D    
C44   H20   1.108976 S    
