data_mof_unit_55775.cif
_audit_creation_date              2012-12-11T16:37:10-0500
_audit_creation_method            fapswitch 2.2
_symmetry_space_group_name_H-M    P1
_symmetry_Int_Tables_number       1
_space_group_crystal_system       triclinic
_cell_length_a                    19.155442
_cell_length_b                    18.825499
_cell_length_c                    20.487004
_cell_angle_alpha                 106.365522
_cell_angle_beta                  106.667244
_cell_angle_gamma                 111.192011
_cell_volume                      5952.78669756

loop_
_atom_site_label
_atom_site_type_symbol
_atom_type_description
_atom_site_fract_x
_atom_site_fract_y
_atom_site_fract_z
_atom_type_partial_charge
C1    C     C_R   0.078793 0.088158 0.351800 0.414642
C2    C     C_R   0.243050 0.073932 0.510948 -0.171914
C3    C     C_3   0.010751 0.760510 0.726286 0.221964
C4    C     C_3   0.072444 0.783120 0.691568 -0.391347
C5    C     C_3   0.106791 0.721316 0.680280 -0.969440
C6    C     C_3   0.897838 0.163718 0.670648 0.193477
C7    C     C_3   0.856267 0.105981 0.703440 -0.327224
C8    C     C_3   0.909653 0.138431 0.787435 -0.962099
C9    C     C_R   0.157552 0.217684 0.712584 -0.170404
C10   C     C_R   0.754668 0.930572 0.478380 0.458065
C11   C     C_R   0.002552 0.764690 0.439344 0.538007
C12   C     C_R   0.236278 0.260086 0.716704 0.087743
C13   C     C_R   0.948137 0.711475 0.458391 -0.183796
C14   C     C_R   0.252728 0.005635 0.476056 -0.037732
C15   C     C_R   0.027056 0.977334 0.723320 0.119851
C16   C     C_R   0.960986 0.381970 0.390095 -0.179353
C17   C     C_R   0.988904 0.331371 0.414538 -0.166320
C18   C     C_R   0.745594 0.003422 0.496205 -0.180030
C19   C     C_R   0.942574 0.276943 0.438729 0.140987
C20   C     C_R   0.864049 0.267395 0.430835 -0.180220
C21   C     C_R   0.835781 0.317565 0.405601 -0.172985
C22   C     C_R   0.839138 0.806611 0.281229 -0.057175
C23   C     C_R   0.885877 0.377638 0.388329 0.228295
C24   C     C_R   0.870269 0.481112 0.338489 0.414552
C25   C     C_R   0.884123 0.564500 0.356363 0.353509
C26   C     C_R   0.913224 0.620056 0.432278 0.040041
C27   C     C_R   0.913035 0.588950 0.486493 -0.153306
C28   C     C_R   0.893960 0.505739 0.468119 -0.251022
C29   C     C_R   0.758348 0.775665 0.273803 0.090682
C30   C     C_R   0.876866 0.452809 0.395604 -0.094334
C31   C     C_R   0.524608 0.955474 0.407904 -0.346172
C32   C     C_R   0.592843 0.943199 0.417367 0.552546
C33   C     C_R   0.672211 0.013118 0.463924 -0.076663
C34   C     C_R   0.958928 0.205568 0.526708 -0.160801
C35   C     C_R   0.681414 0.094157 0.475321 -0.365266
C36   C     C_R   0.612102 0.105557 0.452349 0.560553
C37   C     C_R   0.533406 0.036910 0.426473 -0.040955
C38   C     C_R   0.472857 0.101781 0.500865 0.579085
C39   C     C_R   0.402899 0.089017 0.513871 -0.378462
C40   C     C_R   0.977838 0.233229 0.474979 0.007432
C41   C     C_R   0.327524 0.014443 0.465378 -0.048843
C42   C     C_R   0.323899 0.955594 0.402828 0.348675
C43   C     C_R   0.382684 0.984288 0.376630 0.328138
C44   C     C_R   0.462926 0.048460 0.430648 -0.149156
C45   C     C_R   0.303952 0.342248 0.775024 0.003649
C46   C     C_R   0.762148 0.797684 0.345569 -0.090999
C47   C     C_R   0.285020 0.404210 0.808598 -0.230551
C48   C     C_R   0.348253 0.482329 0.865479 -0.160864
C49   C     C_R   0.431503 0.499082 0.889470 0.218817
C50   C     C_R   0.450487 0.439204 0.852866 -0.241945
C51   C     C_R   0.233606 0.219969 0.647823 -0.044384
C52   C     C_R   0.387547 0.360455 0.796543 0.454218
C53   C     C_R   0.613368 0.724709 0.079678 0.465019
C54   C     C_R   0.684978 0.761993 0.146430 -0.292590
C55   C     C_R   0.539129 0.661155 0.070610 -0.085349
C56   C     C_R   0.682955 0.736460 0.204100 0.006449
C57   C     C_R   0.607939 0.676708 0.196517 -0.301608
C58   C     C_R   0.033449 0.208312 0.460869 -0.093783
C59   C     C_R   0.535352 0.640570 0.130851 0.510540
C60   C     C_R   0.075171 0.031622 0.222982 0.184611
C61   C     C_R   0.101179 0.976024 0.190636 -0.181449
C62   C     C_R   0.920097 0.758364 0.496358 0.358242
C63   C     C_R   0.128217 0.983429 0.135631 -0.138010
C64   C     C_R   0.129020 0.046782 0.111523 0.217229
C65   C     C_R   0.107232 0.105021 0.146855 -0.178793
C66   C     C_R   0.080252 0.097497 0.202141 -0.095657
C67   C     C_R   0.172918 0.045965 0.923773 -0.302695
C68   C     C_R   0.147267 0.042479 0.851437 0.504128
C69   C     C_R   0.131160 0.975782 0.935281 0.141549
C70   C     C_R   0.824410 0.069644 0.543465 0.443723
C71   C     C_R   0.073380 0.970773 0.791497 -0.228641
C72   C     C_R   0.043057 0.895326 0.800789 0.540126
C73   C     C_R   0.173931 0.935221 0.441178 0.537868
C74   C     C_R   0.071144 0.899560 0.873514 -0.348991
C75   C     C_R   0.002013 0.949104 0.284536 -0.254752
C76   C     C_R   0.046438 0.023746 0.280972 -0.062391
C77   C     C_3   0.120740 0.852407 0.313168 0.239371
C78   C     C_3   0.043070 0.766627 0.259547 -0.180346
C79   C     C_3   0.019870 0.747196 0.176371 -1.046356
C80   C     C_3   0.090229 0.708423 0.427767 0.288973
C81   C     C_3   0.161178 0.771565 0.507049 -0.346387
C82   C     C_3   0.216357 0.734930 0.535191 -0.932164
C83   C     C_3   0.672701 0.852649 0.522481 0.267722
C84   C     C_R   0.036095 0.051653 0.717065 -0.143280
C85   C     C_3   0.731891 0.843487 0.583953 -0.330714
C86   C     C_3   0.710086 0.851564 0.650737 -0.952487
C87   C     C_3   0.912832 0.445730 0.245609 0.215336
C88   C     C_3   0.880820 0.428318 0.162274 -0.191625
C89   C     C_3   0.951590 0.451061 0.138632 -1.019827
C90   C     C_3   0.598515 0.865114 0.313308 0.200329
C91   C     C_3   0.536699 0.876409 0.255299 -0.349231
C92   C     C_3   0.549348 0.863122 0.183648 -0.925669
C93   C     C_3   0.601639 0.191371 0.395919 0.167868
C94   C     C_3   0.611384 0.279258 0.409777 -0.250884
C95   C     C_R   0.969931 0.912057 0.652291 -0.098049
C96   C     C_3   0.593016 0.290796 0.337027 -0.948989
C97   C     C_3   0.583467 0.132357 0.606157 0.195880
C98   C     C_3   0.578159 0.165330 0.680940 -0.274696
C99   C     C_3   0.621623 0.139040 0.737057 -0.975140
C100  C     C_3   0.402860 0.600214 0.120788 0.188215
C101  C     C_3   0.403554 0.626981 0.198900 -0.342802
C102  C     C_3   0.334121 0.648721 0.198888 -0.881972
C103  C     C_3   0.232105 0.090530 0.796757 0.194697
C104  C     C_3   0.313702 0.096013 0.844029 -0.322926
C105  C     C_3   0.356790 0.074079 0.795417 -0.909165
Cl1   Cl    Cl    0.170232 0.184782 0.389704 -0.703306
Cl2   Cl    Cl    0.827122 0.715261 0.505399 -0.666792
Cl3   Cl    Cl    0.863187 0.597783 0.283930 -0.644625
Cl4   Cl    Cl    0.292625 0.850842 0.392232 -0.635814
Cl5   Cl    Cl    0.361799 0.924799 0.282837 -0.666840
Cl6   Cl    Cl    0.618415 0.756211 0.007299 -0.619307
Cl7   Cl    Cl    0.416511 0.284623 0.760219 -0.722792
H1    H     H_    0.074766 0.114962 0.761200 0.157281
H2    H     H_    0.899968 0.484725 0.512582 0.160871
H3    H     H_    0.055719 0.655731 0.642965 0.260103
H4    H     H_    0.917847 0.229938 0.707891 0.134833
H5    H     H_    0.955388 0.162404 0.670884 0.091964
H6    H     H_    0.794955 0.102337 0.695500 0.212989
H7    H     H_    0.845816 0.041425 0.673045 0.192826
H8    H     H_    0.972048 0.144629 0.797319 0.261999
H9    H     H_    0.879301 0.093357 0.808356 0.277139
H10   H     H_    0.916749 0.200899 0.819739 0.263823
H11   H     H_    0.464693 0.900162 0.384394 0.244065
H12   H     H_    0.741771 0.149161 0.501138 0.211497
H13   H     H_    0.858210 0.798099 0.236192 0.108527
H14   H     H_    0.409455 0.133827 0.564892 0.190383
H15   H     H_    0.742180 0.810451 0.153047 0.173536
H16   H     H_    0.514513 0.451865 0.872154 0.181203
H17   H     H_    0.605800 0.656825 0.240968 0.176539
H18   H     H_    0.331810 0.528037 0.892436 0.139030
H19   H     H_    0.920973 0.219429 0.552127 0.163815
H20   H     H_    0.950889 0.846326 0.634976 0.196433
H21   H     H_    0.221230 0.391902 0.791423 0.143157
H22   H     H_    0.223507 0.104043 0.971186 0.173209
H23   H     H_    0.107202 0.153814 0.128767 0.132720
H24   H     H_    0.061329 0.141725 0.227287 0.139210
H25   H     H_    0.145800 0.937923 0.110467 0.145257
H26   H     H_    0.040754 0.844866 0.882734 0.160395
H27   H     H_    0.100991 0.926942 0.207705 0.125743
H28   H     H_    0.710069 0.779624 0.358929 0.177203
H29   H     H_    0.059382 0.218782 0.422285 0.151293
H30   H     H_    0.978400 0.886370 0.242454 0.134166
H31   H     H_    0.286779 0.140072 0.533033 0.170938
H32   H     H_    0.278933 0.243739 0.627198 0.147415
H33   H     H_    0.169326 0.857058 0.293024 0.168388
H34   H     H_    0.108632 0.904556 0.310723 0.039512
H35   H     H_    0.054982 0.716023 0.269175 0.246826
H36   H     H_    0.989800 0.764939 0.271865 0.224738
H37   H     H_    0.997855 0.789701 0.161096 0.262521
H38   H     H_    0.968618 0.681305 0.140818 0.295025
H39   H     H_    0.073827 0.753412 0.163664 0.286142
H40   H     H_    0.118545 0.691745 0.389550 0.160934
H41   H     H_    0.052382 0.648495 0.428577 0.035848
H42   H     H_    0.134701 0.239635 0.752285 0.108535
H43   H     H_    0.200110 0.830833 0.505752 0.253194
H44   H     H_    0.135274 0.787093 0.547812 0.165153
H45   H     H_    0.179143 0.675644 0.537690 0.255006
H46   H     H_    0.266138 0.781092 0.592736 0.269819
H47   H     H_    0.245754 0.721568 0.497076 0.288953
H48   H     H_    0.609623 0.798006 0.498213 0.146792
H49   H     H_    0.666837 0.909781 0.547457 0.073352
H50   H     H_    0.728167 0.780799 0.559868 0.270650
H51   H     H_    0.796667 0.892966 0.604528 0.205059
H52   H     H_    0.715654 0.914856 0.677014 0.258894
H53   H     H_    0.002475 0.430973 0.380873 0.097862
H54   H     H_    0.753637 0.843838 0.693793 0.292646
H55   H     H_    0.645665 0.802041 0.631964 0.273039
H56   H     H_    0.940110 0.404112 0.253570 0.096785
H57   H     H_    0.963465 0.512660 0.279945 0.084912
H58   H     H_    0.834813 0.360306 0.126985 0.198988
H59   H     H_    0.849241 0.466002 0.152058 0.246690
H60   H     H_    0.997046 0.519464 0.171739 0.279215
H61   H     H_    0.926180 0.436874 0.077779 0.278461
H62   H     H_    0.983801 0.413633 0.147701 0.268260
H63   H     H_    0.595091 0.803713 0.285059 0.128659
H64   H     H_    0.049724 0.339993 0.420241 0.134790
H65   H     H_    0.663391 0.914218 0.332168 0.081549
H66   H     H_    0.472056 0.830916 0.240648 0.249360
H67   H     H_    0.545574 0.941447 0.279661 0.217374
H68   H     H_    0.614958 0.904701 0.197304 0.269500
H69   H     H_    0.508259 0.877981 0.145708 0.285786
H70   H     H_    0.532814 0.796450 0.153714 0.247410
H71   H     H_    0.535818 0.143689 0.355676 0.129657
H72   H     H_    0.643464 0.181422 0.370406 0.088668
H73   H     H_    0.567968 0.288560 0.433072 0.226532
H74   H     H_    0.675870 0.327953 0.451939 0.207758
H75   H     H_    0.826328 0.224137 0.447368 0.119354
H76   H     H_    0.636516 0.283005 0.313255 0.267190
H77   H     H_    0.600855 0.355233 0.349150 0.286501
H78   H     H_    0.528109 0.243918 0.294666 0.272581
H79   H     H_    0.650039 0.155816 0.617996 0.152477
H80   H     H_    0.553942 0.061875 0.581020 0.074686
H81   H     H_    0.607831 0.235393 0.705760 0.234917
H82   H     H_    0.511999 0.139862 0.670812 0.212903
H83   H     H_    0.592083 0.069093 0.713800 0.267422
H84   H     H_    0.616537 0.163608 0.790559 0.284768
H85   H     H_    0.688511 0.165195 0.749530 0.263912
H86   H     H_    0.778790 0.315247 0.406312 0.131280
H87   H     H_    0.341457 0.544659 0.079477 0.140286
H88   H     H_    0.408726 0.651441 0.101976 0.081588
H89   H     H_    0.395592 0.574806 0.216306 0.228833
H90   H     H_    0.464248 0.682911 0.240760 0.214253
H91   H     H_    0.339819 0.699838 0.180459 0.272829
H92   H     H_    0.338147 0.670568 0.256819 0.290420
H93   H     H_    0.272501 0.592164 0.160274 0.254667
H94   H     H_    0.246894 0.136941 0.772689 0.165478
H95   H     H_    0.191321 0.027273 0.747588 0.077541
H96   H     H_    0.355739 0.161094 0.889832 0.233369
H97   H     H_    0.931861 0.630358 0.544256 0.167492
H98   H     H_    0.301055 0.051345 0.870196 0.193601
H99   H     H_    0.316648 0.008201 0.750717 0.250230
H100  H     H_    0.416158 0.079737 0.831235 0.271801
H101  H     H_    0.370576 0.117819 0.768553 0.304465
H102  H     H_    0.956375 0.697883 0.685167 0.145679
H103  H     H_    0.038689 0.752641 0.777677 0.094286
H104  H     H_    0.040929 0.781894 0.636269 0.192567
H105  H     H_    0.125616 0.847647 0.729094 0.197944
H106  H     H_    0.141791 0.724434 0.735550 0.272292
H107  H     H_    0.149742 0.738193 0.653961 0.278661
N1    N     N_R   0.051550 0.054780 0.395070 -0.077782
N2    N     N_2   0.472999 0.606023 0.998738 -0.045728
N3    N     N_2   0.139456 0.046980 0.045790 -0.079750
N4    N     N_R   0.835860 0.954800 0.499920 -0.121082
N5    N     N_2   0.138758 0.982000 0.007432 -0.071654
N6    N     N_R   0.889940 0.849160 0.355180 -0.051845
N7    N     N_R   0.997480 0.160420 0.539810 -0.046945
N8    N     N_R   0.842280 0.845520 0.395070 -0.035704
N9    N     N_R   0.045130 0.164060 0.499920 -0.034585
N10   N     N_R   0.878630 0.041580 0.539810 -0.138285
N11   N     N_R   0.008780 0.968000 0.355180 -0.065261
N12   N     N_R   0.954870 0.835940 0.500080 -0.122499
N13   N     N_R   0.157720 0.154480 0.604930 -0.050161
N14   N     N_R   0.121370 0.958420 0.460190 -0.110034
N15   N     N_R   0.991220 0.032000 0.644820 -0.067219
N16   N     N_R   0.948450 0.945220 0.604930 -0.057054
N17   N     N_R   0.164140 0.045200 0.500080 -0.075365
N18   N     N_R   0.110060 0.150840 0.644820 -0.052363
N19   N     N_R   0.002520 0.839580 0.460190 -0.122356
N20   N     N_2   0.496519 0.568237 0.957061 -0.023370
Ni1   Ni    Ni4+2 0.103690 0.103690 0.500000 0.253968
Ni2   Ni    Ni4+2 0.896310 0.896310 0.500000 0.258784
Ni3   Ni    Ni4+2 0.005600 0.904650 0.408510 0.235240
Ni4   Ni    Ni4+2 0.994400 0.095350 0.591490 0.180228
O1    O     O_3   0.149108 0.856955 0.386816 -0.605130
O2    O     O_3   0.980858 0.819442 0.740522 -0.654604
O3    O     O_3   0.840942 0.144442 0.598376 -0.682639
O4    O     O_3   0.041007 0.742013 0.396084 -0.625219
O5    O     O_3   0.697224 0.850544 0.463222 -0.632713
O6    O     O_3   0.845177 0.425672 0.265081 -0.623416
O7    O     O_3   0.579599 0.864043 0.375321 -0.628627
O8    O     O_3   0.623197 0.185862 0.465505 -0.614399
O9    O     O_3   0.550161 0.164491 0.557712 -0.606681
O10   O     O_3   0.464290 0.575048 0.121558 -0.630567
O11   O     O_3   0.192745 0.112045 0.842225 -0.662400

loop_
_geom_bond_atom_site_label_1
_geom_bond_atom_site_label_2
_ccdc_geom_bond_type
C18   C70   A    
C87   C88   S    
C101  C102  S    
C4    H104  S    
C22   C29   A    
C55   C59   A    
C59   O10   S    
C77   O1    S    
C35   H12   S    
C41   C42   A    
C96   H76   S    
C35   C36   A    
C86   H54   S    
C103  H94   S    
C89   H61   S    
C21   H86   S    
C43   C44   A    
C6    C7    S    
C81   C82   S    
C90   C91   S    
C7    C8    S    
C39   C41   A    
C22   N6    A    
C77   C78   S    
C11   N19   A    
C90   O7    S    
C26   C27   A    
C84   H1    S    
C105  H100  S    
N2    N20   D    
N12   N19   A    
C34   C40   A    
C57   H17   S    
C36   C37   A    
C34   N7    A    
C42   Cl4   S    
C103  H95   S    
N9    Ni1   S    
C101  H90   S    
N4    Ni2   S    
C15   C95   A    
C38   C39   A    
N10   Ni4   S    
C93   H72   S    
C8    H9    S    
C57   C59   A    
C11   C13   A    
C52   Cl7   S    
C3    H103  S    
C87   H57   S    
C91   H66   S    
C99   H83   S    
C27   H97   S    
C36   O8    S    
C56   C57   A    
C98   H82   S    
C87   O6    S    
C96   H78   S    
C61   C63   A    
C102  H92   S    
N16   Ni2   S    
C94   C96   S    
C92   H68   S    
C17   C19   A    
C97   H80   S    
C38   O9    S    
C83   H48   S    
C19   C20   A    
C16   C17   A    
C91   H67   S    
C83   O5    S    
C50   C52   A    
C46   N8    A    
C94   H73   S    
C102  H91   S    
C43   Cl5   S    
C104  H98   S    
C88   H59   S    
C6    H5    S    
C73   N14   A    
C17   H64   S    
C49   N20   S    
C1    Cl1   S    
C79   H37   S    
C53   Cl6   S    
C45   C47   A    
C83   H49   S    
C90   H65   S    
C60   C66   A    
C39   H14   S    
C5    H3    S    
C85   H50   S    
C63   H25   S    
C7    H6    S    
C48   H18   S    
C95   N16   A    
C89   H62   S    
C104  C105  S    
N14   N17   A    
C73   O1    S    
C97   C98   S    
C97   O9    S    
C53   C55   A    
C5    H106  S    
N6    N8    A    
C54   C56   A    
C102  H93   S    
C40   C58   A    
C13   C62   A    
C67   C68   A    
C14   C73   A    
C7    H7    S    
C80   H41   S    
C67   H22   S    
C88   H58   S    
C24   C25   A    
C72   C74   A    
C91   C92   S    
C82   H45   S    
N18   Ni4   S    
C78   C79   S    
C61   H27   S    
C22   H13   S    
C62   Cl2   S    
C45   C52   A    
N6    Ni3   S    
C85   C86   S    
C50   H16   S    
C99   H84   S    
C60   C76   S    
C31   C37   A    
C98   H81   S    
N13   N18   A    
C60   C61   A    
C3    H102  S    
C72   O2    S    
C75   N11   A    
C84   N15   A    
C75   C76   A    
C23   C30   S    
C38   C44   A    
N11   Ni3   S    
C75   H30   S    
N1    N11   A    
C74   H26   S    
C47   C48   A    
N4    N10   A    
C97   H79   S    
C16   H53   S    
C99   H85   S    
C80   O4    S    
C64   N3    S    
C69   C74   A    
C93   C94   S    
C20   C21   A    
N3    N5    D    
C81   H44   S    
C6    H4    S    
C65   H23   S    
C28   H2    S    
C78   H35   S    
C70   O3    S    
C14   C41   S    
C66   H24   S    
C10   N4    A    
C2    N17   A    
C48   C49   A    
C83   C85   S    
C96   H77   S    
C34   H19   S    
C49   C50   A    
C16   C23   A    
N7    N9    A    
C21   C23   A    
C87   H56   S    
C9    N18   A    
C95   H20   S    
C85   H51   S    
C13   C26   S    
C86   H52   S    
C42   C43   A    
C100  O10   S    
C100  H88   S    
C81   H43   S    
C27   C28   A    
C12   C51   A    
C58   N9    A    
C8    H8    S    
C46   H28   S    
C79   H39   S    
C80   H40   S    
N19   Ni3   S    
C24   O6    S    
N17   Ni1   S    
C2    H31   S    
N12   Ni2   S    
C51   N13   A    
C9    C12   A    
C1    C76   A    
C6    O3    S    
C31   C32   A    
C86   H55   S    
C94   H74   S    
C89   H60   S    
C80   C81   S    
C105  H101  S    
C62   N12   A    
C9    H42   S    
C53   C54   A    
C15   C84   A    
C12   C45   S    
C29   C56   S    
C78   H36   S    
C15   C71   S    
C54   H15   S    
N15   Ni4   S    
C105  H99   S    
C55   N2    S    
C29   C46   A    
C92   H69   S    
C69   N5    S    
C11   O4    S    
C64   C65   A    
C37   C44   S    
C28   C30   A    
N8    Ni2   S    
C25   C26   A    
C70   N10   A    
C31   H11   S    
C71   C72   A    
C79   H38   S    
C92   H70   S    
C32   C33   A    
C20   H75   S    
C82   H47   S    
C93   H71   S    
C58   H29   S    
C8    H10   S    
N7    Ni4   S    
C5    H107  S    
C77   H33   S    
C10   C18   A    
C68   C71   A    
C82   H46   S    
C90   H63   S    
C100  C101  S    
C33   C35   A    
C98   C99   S    
C1    N1    A    
C65   C66   A    
C2    C14   A    
C18   C33   S    
C24   C30   A    
C19   C40   S    
C63   C64   A    
C100  H87   S    
C68   O11   S    
N14   Ni3   S    
C4    C5    S    
C10   O5    S    
C88   C89   S    
C104  H96   S    
C4    H105  S    
N15   N16   A    
C103  C104  S    
N13   Ni1   S    
C103  O11   S    
C51   H32   S    
N1    Ni1   S    
C32   O7    S    
C101  H89   S    
C3    O2    S    
C67   C69   A    
C93   O8    S    
C77   H34   S    
C47   H21   S    
C3    C4    S    
C25   Cl3   S    
