data_mof_unit_57834.cif
_audit_creation_date              2012-10-26T20:42:51-0400
_audit_creation_method            fapswitch 2.2
_symmetry_space_group_name_H-M    P1
_symmetry_Int_Tables_number       1
_space_group_crystal_system       triclinic
_cell_length_a                    10.788528
_cell_length_b                    9.521775
_cell_length_c                    15.052955
_cell_angle_alpha                 90.081757
_cell_angle_beta                  90.037345
_cell_angle_gamma                 90.23639
_cell_volume                      1546.31382537

loop_
_atom_site_label
_atom_site_type_symbol
_atom_type_description
_atom_site_fract_x
_atom_site_fract_y
_atom_site_fract_z
_atom_type_partial_charge
C1    C     C_R   0.262422 0.499592 0.500842 0.586867
C2    C     C_R   0.128476 0.498072 0.502330 -0.019064
C3    C     C_R   0.426246 0.073958 0.442580 0.027830
C4    C     C_R   0.573713 0.926044 0.557450 0.025357
C5    C     C_R   0.573708 0.074854 0.557446 0.023818
C6    C     C_R   0.426241 0.925149 0.442592 0.027085
C7    C     C_R   0.500389 0.499774 0.328668 0.544926
C8    C     C_R   0.500222 0.500026 0.671288 0.545646
C9    C     C_R   0.562860 0.607459 0.813683 -0.118168
C10   C     C_R   0.457247 0.382466 0.186114 -0.117869
C11   C     C_R   0.503948 0.498979 0.767939 -0.009346
C12   C     C_R   0.737574 0.500404 0.499096 0.585755
C13   C     C_R   0.504611 0.497957 0.231949 -0.010944
C14   C     C_R   0.452107 0.386377 0.813678 -0.130191
C15   C     C_R   0.559637 0.608633 0.186138 -0.134495
C16   C     C_R   0.460016 0.378456 0.906282 0.010965
C17   C     C_R   0.571256 0.603871 0.093547 0.010220
C18   C     C_R   0.517415 0.490500 0.953258 -0.005243
C19   C     C_R   0.517386 0.489706 0.046519 -0.004434
C20   C     C_R   0.571878 0.605070 0.906668 -0.010308
C21   C     C_R   0.461002 0.376526 0.093122 -0.008960
C22   C     C_R   0.408956 0.262529 0.952642 0.237452
C23   C     C_R   0.409469 0.260890 0.046012 0.061083
C24   C     C_R   0.633790 0.712277 0.047295 0.240126
C25   C     C_3   0.356229 0.132821 0.093491 -0.243811
C26   C     C_3   0.222152 0.157528 0.121777 -0.413750
C27   C     C_3   0.705269 0.830146 0.906572 -0.240120
C28   C     C_3   0.619818 0.951273 0.882102 -0.427859
C29   C     C_R   0.634142 0.713668 0.953887 0.061921
C30   C     C_R   0.066265 0.419943 0.436673 0.246067
C31   C     C_R   0.933725 0.580040 0.563226 0.246462
C32   C     C_R   0.936512 0.423301 0.433043 0.171436
C33   C     C_R   0.063472 0.576709 0.566845 0.173245
C34   C     C_R   0.871515 0.501921 0.497573 -0.019762
Cu1   Cu    Cu3+1 0.500000 0.640660 0.500000 0.983093
Cu2   Cu    Cu3+1 0.500000 0.359340 0.500000 0.983447
H1    H     H_    0.601198 0.692792 0.775188 0.136717
H2    H     H_    0.741108 0.778165 0.141513 0.322768
H3    H     H_    0.214973 0.249714 0.166641 0.160084
H4    H     H_    0.163247 0.175718 0.062377 0.194084
H5    H     H_    0.186679 0.063579 0.157387 0.144685
H6    H     H_    0.358516 0.038260 0.050239 0.204722
H7    H     H_    0.414141 0.103201 0.151402 0.127402
H8    H     H_    0.543634 0.914575 0.838145 0.147429
H9    H     H_    0.579506 0.997783 0.943269 0.197363
H10   H     H_    0.673379 0.033830 0.846748 0.136584
H11   H     H_    0.781158 0.872162 0.948966 0.204168
H12   H     H_    0.414279 0.299958 0.224535 0.136067
H13   H     H_    0.753826 0.789820 0.846864 0.129794
H14   H     H_    0.081091 0.293911 0.333819 0.371234
H15   H     H_    0.918888 0.705985 0.666118 0.373355
H16   H     H_    0.794191 0.392842 0.354567 0.333709
H17   H     H_    0.205763 0.607185 0.645342 0.335456
H18   H     H_    0.403050 0.307391 0.775608 0.142519
H19   H     H_    0.593711 0.697578 0.223862 0.144097
H20   H     H_    0.367127 0.129651 0.396587 0.136068
H21   H     H_    0.632795 0.870355 0.603470 0.136220
H22   H     H_    0.632799 0.131260 0.603460 0.119433
H23   H     H_    0.367095 0.868740 0.396618 0.121185
H24   H     H_    0.405959 0.126240 0.857035 0.313233
N1    N     N_R   0.500000 0.852070 0.500000 -0.229703
N2    N     N_R   0.500000 0.147930 0.500000 -0.229397
O1    O     O_R   0.319640 0.618740 0.499990 -0.499127
O2    O     O_3   0.693865 0.819837 0.091719 -0.720295
O3    O     O_3   0.135911 0.346546 0.374863 -0.693867
O4    O     O_3   0.864074 0.653399 0.625049 -0.691972
O5    O     O_3   0.877014 0.351817 0.365031 -0.699718
O6    O     O_3   0.122963 0.648241 0.634838 -0.696516
O7    O     O_R   0.680360 0.381260 0.500010 -0.498071
O8    O     O_R   0.680360 0.618740 0.500010 -0.465190
O9    O     O_R   0.319640 0.381260 0.499990 -0.463535
O10   O     O_R   0.499970 0.618800 0.370260 -0.515398
O11   O     O_R   0.500030 0.381200 0.629740 -0.517426
O12   O     O_R   0.500030 0.618800 0.629740 -0.504302
O13   O     O_R   0.499970 0.381200 0.370260 -0.504694
O14   O     O_3   0.353779 0.151174 0.908643 -0.717641

loop_
_geom_bond_atom_site_label_1
_geom_bond_atom_site_label_2
_ccdc_geom_bond_type
C31   O4    S    
C12   O7    A    
Cu1   O12   S    
C27   C29   S    
Cu1   Cu2   S    
C22   O14   S    
C3    C6    A    
C25   H7    S    
C28   H10   S    
C1    O9    A    
C5    H22   S    
C6    N1    A    
C19   C21   A    
C1    C2    S    
C11   C14   A    
C26   H3    S    
C18   C19   A    
H17   O6    S    
C24   C29   A    
Cu1   O8    S    
C4    H21   S    
C31   C33   A    
Cu2   O9    S    
C24   O2    S    
Cu2   N2    S    
C1    O1    A    
C8    O12   A    
H2    O2    S    
C20   C29   A    
C10   C21   A    
C28   H9    S    
C17   C24   A    
C7    O10   A    
C7    O13   A    
C25   C26   S    
C4    N1    A    
C28   H8    S    
H15   O4    S    
C15   H19   S    
Cu2   O13   S    
C3    H20   S    
C9    C20   A    
C9    H1    S    
C31   C34   A    
Cu1   N1    S    
C9    C11   A    
H16   O5    S    
C32   O5    S    
C2    C33   A    
C14   H18   S    
Cu1   O10   S    
C13   C15   A    
C10   H12   S    
C14   C16   A    
C12   C34   S    
Cu2   O7    S    
C3    N2    A    
C27   H11   S    
C15   C17   A    
C12   O8    A    
C16   C22   A    
C6    H23   S    
C4    C5    A    
C10   C13   A    
C25   H6    S    
C2    C30   A    
C21   C23   A    
C30   C32   A    
C26   H4    S    
C8    C11   S    
C8    O11   A    
C17   C19   A    
H24   O14   S    
C5    N2    A    
C18   C20   A    
C23   C25   S    
H14   O3    S    
C30   O3    S    
Cu2   O11   S    
C7    C13   S    
C26   H5    S    
C16   C18   A    
C27   C28   S    
C22   C23   A    
Cu1   O1    S    
C27   H13   S    
C33   O6    S    
C32   C34   A    
