data_mof_unit_45997.cif
_audit_creation_date              2012-12-10T19:45:01-0500
_audit_creation_method            fapswitch 2.2
_symmetry_space_group_name_H-M    P1
_symmetry_Int_Tables_number       1
_space_group_crystal_system       triclinic
_cell_length_a                    14.990016
_cell_length_b                    10.822797
_cell_length_c                    13.852761
_cell_angle_alpha                 88.295341
_cell_angle_beta                  94.220291
_cell_angle_gamma                 89.240071
_cell_volume                      2240.03254371

loop_
_atom_site_label
_atom_site_type_symbol
_atom_type_description
_atom_site_fract_x
_atom_site_fract_y
_atom_site_fract_z
_atom_type_partial_charge
C1    C     C_R   0.495509 0.262589 0.500370 0.771870
C2    C     C_R   0.585776 0.872305 0.666667 0.137471
C3    C     C_R   0.443145 0.118509 0.239757 -0.161841
C4    C     C_R   0.549919 0.871606 0.757546 -0.145851
C5    C     C_R   0.400310 0.181375 0.159256 -0.133787
C6    C     C_R   0.594818 0.808768 0.836833 -0.127860
C7    C     C_R   0.324142 0.254232 0.169741 -0.117703
C8    C     C_R   0.675946 0.747336 0.826057 -0.124115
C9    C     C_R   0.464466 0.937002 0.417933 -0.261435
C10   C     C_R   0.527480 0.062292 0.581971 -0.258556
C11   C     C_R   0.503765 0.871570 0.498966 -0.073558
C12   C     C_R   0.502413 0.737489 0.499359 0.781282
C13   C     C_R   0.490601 0.128398 0.500396 -0.079610
C14   C     C_R   0.536937 0.934958 0.581594 0.006364
C15   C     C_R   0.456825 0.065158 0.417631 0.013052
C16   C     C_R   0.328937 0.499773 0.496998 0.792513
C17   C     C_R   0.671185 0.498793 0.503084 0.795270
C18   C     C_R   0.564087 0.433695 0.804058 0.221960
C19   C     C_R   0.438684 0.574503 0.198567 0.233973
C20   C     C_R   0.436798 0.567675 0.786276 0.002630
C21   C     C_R   0.554668 0.420572 0.212521 0.010646
C22   C     C_R   0.435526 0.570207 0.888461 -0.007701
C23   C     C_R   0.054612 0.278119 0.538700 -0.257070
C24   C     C_R   0.552078 0.414714 0.110426 -0.004563
C25   C     C_R   0.493162 0.491706 0.948163 0.069367
C26   C     C_R   0.493883 0.493515 0.051334 0.062662
C27   C     C_R   0.553440 0.415751 0.904984 -0.023115
C28   C     C_R   0.437514 0.575446 0.094930 -0.013696
C29   C     C_R   0.379081 0.651307 0.932193 -0.223397
C30   C     C_R   0.606536 0.331082 0.066069 -0.217464
C31   C     C_R   0.380993 0.655618 0.033128 -0.217277
C32   C     C_R   0.606956 0.330959 0.965141 -0.222050
C33   C     C_R   0.811522 0.608069 0.489530 -0.237456
C34   C     C_R   0.947197 0.719290 0.467831 -0.267184
C35   C     C_R   0.189762 0.389441 0.515686 -0.241086
C36   C     C_R   0.768052 0.498703 0.509617 -0.048541
C37   C     C_R   0.232350 0.497978 0.490997 -0.059236
C38   C     C_R   0.816037 0.388048 0.528602 -0.268260
C39   C     C_R   0.183666 0.607161 0.469716 -0.272723
C40   C     C_R   0.909872 0.384325 0.526389 0.085472
C41   C     C_R   0.090631 0.610876 0.477230 0.099096
C42   C     C_R   0.953794 0.497258 0.505618 0.024239
C43   C     C_R   0.047083 0.499029 0.500477 0.023720
C44   C     C_R   0.904192 0.608632 0.488157 0.101911
C45   C     C_R   0.290113 0.263276 0.260562 -0.123177
C46   C     C_R   0.097115 0.388534 0.518243 0.095112
C47   C     C_R   0.961625 0.272850 0.542494 0.092049
C48   C     C_R   0.040051 0.722591 0.462800 0.087183
C49   C     C_3   0.657969 0.407236 0.774744 -0.337168
C50   C     C_3   0.667566 0.279185 0.732302 -0.330435
C51   C     C_3   0.762159 0.227398 0.751332 -0.923900
C52   C     C_3   0.369337 0.656630 0.241239 -0.365984
C53   C     C_3   0.273091 0.609768 0.220813 -0.362751
C54   C     C_3   0.205388 0.716530 0.217034 -0.886398
C55   C     C_3   0.923456 0.144762 0.558937 -0.408286
C56   C     C_R   0.712669 0.749382 0.736147 -0.144150
C57   C     C_3   0.953232 0.090069 0.660170 -0.347873
C58   C     C_3   0.916163 0.960597 0.675164 -0.869803
C59   C     C_3   0.081998 0.845478 0.438666 -0.402003
C60   C     C_3   0.139390 0.896002 0.524897 -0.347345
C61   C     C_3   0.206949 0.989058 0.490799 -0.886545
C62   C     C_R   0.332895 0.200912 0.341203 -0.099025
C63   C     C_R   0.667820 0.811664 0.656664 -0.118942
C64   C     C_R   0.410195 0.128929 0.331589 0.130794
Cu1   Cu    Cu3+1 0.500010 0.499980 0.597420 0.938862
Cu2   Cu    Cu3+1 0.499990 0.500020 0.402580 0.933890
H1    H     H_    0.772700 0.692384 0.473354 0.119331
H2    H     H_    0.650715 0.264624 0.934839 0.159700
H3    H     H_    0.094505 0.194153 0.550331 0.155050
H4    H     H_    0.907790 0.803800 0.455257 0.139195
H5    H     H_    0.291422 0.303442 0.107486 0.122501
H6    H     H_    0.710294 0.698079 0.887336 0.123050
H7    H     H_    0.230635 0.318648 0.268581 0.119748
H8    H     H_    0.775615 0.702114 0.727856 0.131137
H9    H     H_    0.306352 0.209110 0.411225 0.098247
H10   H     H_    0.696616 0.812483 0.587301 0.095820
H11   H     H_    0.502666 0.063423 0.230876 0.121849
H12   H     H_    0.229073 0.305938 0.533541 0.120798
H13   H     H_    0.486650 0.917805 0.766455 0.117906
H14   H     H_    0.426525 0.174301 0.088848 0.137911
H15   H     H_    0.566426 0.806986 0.906473 0.135151
H16   H     H_    0.810927 0.293564 0.723770 0.268592
H17   H     H_    0.778233 0.209588 0.830099 0.255843
H18   H     H_    0.767071 0.138823 0.713875 0.261526
H19   H     H_    0.621546 0.213778 0.765842 0.206327
H20   H     H_    0.651669 0.284263 0.653157 0.242413
H21   H     H_    0.684479 0.483425 0.732256 0.213653
H22   H     H_    0.706340 0.413372 0.839178 0.164115
H23   H     H_    0.436802 0.888010 0.355771 0.142371
H24   H     H_    0.222703 0.780227 0.276452 0.248579
H25   H     H_    0.206016 0.769246 0.147126 0.251034
H26   H     H_    0.137109 0.680448 0.224251 0.252494
H27   H     H_    0.264526 0.560040 0.151872 0.219214
H28   H     H_    0.257104 0.542863 0.278887 0.239517
H29   H     H_    0.378901 0.668406 0.318477 0.241957
H30   H     H_    0.376455 0.752592 0.212326 0.157044
H31   H     H_    0.777928 0.306820 0.542986 0.129791
H32   H     H_    0.220010 0.688865 0.450540 0.149832
H33   H     H_    0.842124 0.961675 0.663592 0.255393
H34   H     H_    0.552775 0.110045 0.645101 0.146893
H35   H     H_    0.943918 0.896036 0.623935 0.257406
H36   H     H_    0.935352 0.926032 0.750176 0.246756
H37   H     H_    0.027249 0.084029 0.670681 0.209848
H38   H     H_    0.930670 0.151030 0.716658 0.231220
H39   H     H_    0.849898 0.141933 0.548379 0.191362
H40   H     H_    0.948132 0.083129 0.503530 0.192241
H41   H     H_    0.256848 0.942017 0.448477 0.257994
H42   H     H_    0.172494 0.063395 0.444605 0.254111
H43   H     H_    0.242779 0.031283 0.554346 0.241579
H44   H     H_    0.095124 0.941897 0.573904 0.220232
H45   H     H_    0.389974 0.624905 0.740910 0.138627
H46   H     H_    0.176343 0.821108 0.568042 0.223906
H47   H     H_    0.121710 0.834314 0.375419 0.201456
H48   H     H_    0.029790 0.916275 0.415236 0.180670
H49   H     H_    0.599587 0.359886 0.257298 0.136925
H50   H     H_    0.334584 0.713758 0.888357 0.136768
H51   H     H_    0.650061 0.266905 0.109414 0.136625
H52   H     H_    0.336970 0.723325 0.060765 0.164502
N1    N     N_R   0.499960 0.499900 0.743810 -0.185261
N2    N     N_R   0.500040 0.500100 0.256190 -0.192054
O1    O     O_R   0.500000 0.319630 0.582270 -0.591446
O2    O     O_R   0.500000 0.680370 0.417730 -0.609369
O3    O     O_R   0.499990 0.319660 0.417730 -0.569569
O4    O     O_R   0.500010 0.680340 0.582270 -0.567532
O5    O     O_R   0.370260 0.499960 0.582280 -0.577054
O6    O     O_R   0.629740 0.500040 0.417720 -0.574476
O7    O     O_R   0.370250 0.499990 0.417740 -0.598476
O8    O     O_R   0.629750 0.500010 0.582260 -0.593443

loop_
_geom_bond_atom_site_label_1
_geom_bond_atom_site_label_2
_ccdc_geom_bond_type
C40   C47   A    
C38   C40   A    
C22   C29   A    
C49   H21   S    
C21   H49   S    
C61   H43   S    
C8    C56   A    
C39   C41   A    
C3    C64   A    
C52   C53   S    
C56   H8    S    
C55   H39   S    
C7    C45   A    
C35   C37   A    
C24   C26   A    
C54   H24   S    
C21   N2    A    
C7    H5    S    
C11   C14   A    
C17   O6    A    
C63   H10   S    
C45   C62   A    
C33   C36   A    
Cu2   O7    S    
C52   H29   S    
C45   H7    S    
Cu1   O4    S    
C61   H42   S    
C23   H3    S    
C62   C64   A    
C50   H19   S    
C19   C52   S    
C22   C25   A    
C15   C64   S    
Cu2   O2    S    
C58   H36   S    
C17   C36   S    
Cu1   O1    S    
C16   O5    A    
C34   H4    S    
C16   C37   S    
C32   H2    S    
C40   C42   A    
C27   C32   A    
C59   C60   S    
C23   C46   A    
Cu2   N2    S    
C41   C43   A    
C49   H22   S    
C42   C44   A    
C38   H31   S    
C2    C14   S    
C43   C46   A    
C1    O1    A    
C57   H37   S    
C8    H6    S    
C23   C47   A    
C58   H33   S    
C55   H40   S    
C53   H27   S    
Cu1   O8    S    
C34   C44   A    
C4    H13   S    
C4    C6    A    
C10   C14   A    
C9    H23   S    
C5    C7    A    
C39   H32   S    
C6    C8    A    
C25   C26   A    
C53   C54   S    
Cu2   O6    S    
C60   C61   S    
Cu1   O5    S    
C2    C4    A    
C1    O3    A    
C31   H52   S    
C54   H26   S    
C60   H46   S    
C20   H45   S    
C12   O4    A    
C59   H47   S    
C50   C51   S    
Cu1   N1    S    
C56   C63   A    
C12   O2    A    
C58   H35   S    
C5    H14   S    
C10   H34   S    
C19   C28   A    
C9    C11   A    
C51   H16   S    
C29   H50   S    
C20   C22   A    
C19   N2    A    
Cu1   Cu2   S    
C55   C57   S    
C62   H9    S    
C34   C48   A    
C42   C43   A    
C3    H11   S    
C51   H17   S    
C2    C63   A    
C33   H1    S    
C48   C59   S    
C47   C55   S    
C57   H38   S    
C53   H28   S    
C33   C44   A    
C28   C31   A    
C18   C27   A    
C3    C5    A    
C10   C13   A    
C11   C12   S    
C17   O8    A    
C30   H51   S    
C25   C27   A    
C35   H12   S    
C26   C28   A    
C13   C15   A    
C9    C15   A    
C54   H25   S    
C37   C39   A    
C30   C32   A    
C57   C58   S    
C59   H48   S    
C18   N1    A    
C36   C38   A    
C41   C48   A    
C52   H30   S    
C61   H41   S    
C16   O7    A    
C24   C30   A    
C60   H44   S    
C50   H20   S    
C1    C13   S    
C29   C31   A    
C49   C50   S    
C21   C24   A    
C6    H15   S    
Cu2   O3    S    
C35   C46   A    
C51   H18   S    
C20   N1    A    
C18   C49   S    
