data_mof_unit_38475.cif
_audit_creation_date              2012-12-10T17:23:42-0500
_audit_creation_method            fapswitch 2.2
_symmetry_space_group_name_H-M    P1
_symmetry_Int_Tables_number       1
_space_group_crystal_system       triclinic
_cell_length_a                    9.611451
_cell_length_b                    10.762213
_cell_length_c                    17.354281
_cell_angle_alpha                 92.471396
_cell_angle_beta                  85.947525
_cell_angle_gamma                 89.937832
_cell_volume                      1788.96600208

loop_
_atom_site_label
_atom_site_type_symbol
_atom_type_description
_atom_site_fract_x
_atom_site_fract_y
_atom_site_fract_z
_atom_type_partial_charge
C1    C     C_R   0.499825 0.737141 0.500680 0.810563
C2    C     C_R   0.343438 0.495593 0.776411 -0.205796
C3    C     C_R   0.412972 0.509540 0.146731 -0.138783
C4    C     C_R   0.405830 0.511204 0.226826 -0.193155
C5    C     C_R   0.657059 0.485101 0.223554 -0.162691
C6    C     C_R   0.664081 0.483062 0.143130 -0.159910
C7    C     C_R   0.542020 0.493383 0.104294 0.189680
C8    C     C_2   0.448383 0.451786 0.977473 -0.226037
C9    C     C_2   0.552855 0.491135 0.019573 -0.221281
C10   C     C_R   0.527606 0.498582 0.265843 -0.010212
C11   C     C_R   0.424707 0.880860 0.642990 -0.161996
C12   C     C_R   0.481752 0.498038 0.649651 0.754016
C13   C     C_R   0.389050 0.951155 0.710928 -0.141395
C14   C     C_R   0.389420 0.080494 0.710593 -0.128180
C15   C     C_R   0.425310 0.140223 0.642304 -0.141713
C16   C     C_R   0.461604 0.070890 0.572733 0.041158
C17   C     C_R   0.461266 0.939681 0.573191 0.092684
C18   C     C_R   0.499143 0.870999 0.503827 -0.158277
C19   C     C_R   0.536060 0.930024 0.435511 -0.212062
C20   C     C_R   0.535111 0.058465 0.434367 0.343754
C21   C     C_R   0.499184 0.129012 0.502726 -0.169109
C22   C     C_R   0.869643 0.335767 0.396861 -0.127617
C23   C     C_R   0.499974 0.262823 0.500069 0.850670
C24   C     C_R   0.948186 0.255618 0.346213 -0.187452
C25   C     C_R   0.091538 0.255281 0.346300 -0.211400
C26   C     C_R   0.157200 0.335200 0.396957 -0.132859
C27   C     C_R   0.081362 0.419097 0.449338 0.201628
C28   C     C_R   0.931907 0.419252 0.449323 0.191004
C29   C     C_R   0.919902 0.576814 0.548288 -0.054637
C30   C     C_R   0.067723 0.576798 0.548259 -0.055949
C31   C     C_R   0.518269 0.499589 0.350262 0.809086
C32   C     C_R   0.472474 0.485790 0.733383 -0.031587
C33   C     C_R   0.593134 0.458402 0.770464 -0.200828
C34   C     C_R   0.585647 0.443642 0.849589 -0.151077
C35   C     C_R   0.457547 0.457981 0.893096 0.189679
C36   C     C_R   0.336126 0.481324 0.855948 -0.174678
Cu1   Cu    Cu3+1 0.359340 0.500010 0.500010 0.942470
Cu2   Cu    Cu3+1 0.640660 0.499990 0.499990 0.947901
H1    H     H_    0.693456 0.447122 0.738338 0.157858
H2    H     H_    0.764611 0.472056 0.111142 0.123402
H3    H     H_    0.563636 0.875632 0.382556 0.172809
H4    H     H_    0.423924 0.780585 0.645703 0.121488
H5    H     H_    0.361351 0.905085 0.764058 0.137312
H6    H     H_    0.362009 0.134836 0.763456 0.141864
H7    H     H_    0.424554 0.240657 0.644596 0.129647
H8    H     H_    0.859718 0.639845 0.587905 0.138278
H9    H     H_    0.760681 0.328169 0.392349 0.235111
H10   H     H_    0.897148 0.193095 0.306673 0.198135
H11   H     H_    0.304797 0.523382 0.258082 0.159424
H12   H     H_    0.152666 0.192443 0.306874 0.177984
H13   H     H_    0.267443 0.326790 0.392366 0.218526
H14   H     H_    0.117737 0.639826 0.587850 0.135493
H15   H     H_    0.752531 0.475469 0.252430 0.154728
H16   H     H_    0.649899 0.523354 0.991489 0.144294
H17   H     H_    0.236292 0.491329 0.888770 0.123959
H18   H     H_    0.317570 0.523223 0.118604 0.124292
H19   H     H_    0.248653 0.515117 0.748833 0.151991
H20   H     H_    0.351000 0.419886 0.005266 0.145257
H21   H     H_    0.680093 0.420342 0.876313 0.125385
N1    N     N_R   0.852190 0.498790 0.499250 -0.201354
N2    N     N_R   0.148060 0.498710 0.499220 -0.200401
O1    O     O_R   0.381190 0.680360 0.500010 -0.573743
O2    O     O_R   0.618760 0.680340 0.500000 -0.572423
O3    O     O_R   0.367440 0.500030 0.613600 -0.592624
O4    O     O_R   0.605010 0.500010 0.613590 -0.586909
O5    O     O_R   0.381240 0.319660 0.500000 -0.595960
O6    O     O_R   0.618810 0.319640 0.499990 -0.584593
O7    O     O_R   0.394990 0.499990 0.386410 -0.605634
O8    O     O_R   0.632560 0.499970 0.386400 -0.604363
Cl1   Cl    Cl    0.574408 0.128183 0.345365 -0.704843

loop_
_geom_bond_atom_site_label_1
_geom_bond_atom_site_label_2
_ccdc_geom_bond_type
C17   C18   A    
Cu1   N2    S    
C24   C25   A    
C29   N1    A    
C16   C21   A    
C25   H12   S    
C12   O4    A    
C29   H8    S    
C31   O7    A    
C19   C20   A    
Cu2   O4    S    
C31   O8    A    
C4    H11   S    
Cu1   O5    S    
Cu1   O3    S    
C28   N1    A    
Cu1   O1    S    
C1    C18   S    
Cu2   O8    S    
C5    C10   A    
C36   H17   S    
C22   C28   A    
C13   C14   A    
C20   C21   A    
C11   C13   A    
C20   Cl1   S    
C26   C27   A    
C29   C30   A    
C11   H4    S    
Cu2   N1    S    
C1    O2    A    
C23   O5    A    
C2    C32   A    
Cu1   Cu2   S    
C33   C34   A    
C6    C7    A    
C3    C7    A    
C21   C23   S    
C5    C6    A    
C12   O3    A    
C16   C17   A    
C22   C24   A    
C8    C35   S    
C2    H19   S    
C12   C32   S    
C15   H7    S    
C4    C10   A    
C15   C16   A    
C24   H10   S    
Cu1   O7    S    
C13   H5    S    
C6    H2    S    
C2    C36   A    
Cu2   O6    S    
C1    O1    A    
C14   H6    S    
C34   C35   A    
C3    H18   S    
C30   N2    A    
C23   O6    A    
C27   C28   A    
C7    C9    S    
C30   H14   S    
C14   C15   A    
C18   C19   A    
C5    H15   S    
C9    H16   S    
C27   N2    A    
C8    H20   S    
C25   C26   A    
C26   H13   S    
C34   H21   S    
C10   C31   S    
C33   H1    S    
C22   H9    S    
C11   C17   A    
C3    C4    A    
C19   H3    S    
C32   C33   A    
C8    C9    D    
Cu2   O2    S    
C35   C36   A    
