data_mof_unit_61568.cif
_audit_creation_date              2012-12-10T20:18:26-0500
_audit_creation_method            fapswitch 2.2
_symmetry_space_group_name_H-M    P1
_symmetry_Int_Tables_number       1
_space_group_crystal_system       triclinic
_cell_length_a                    35.547305
_cell_length_b                    35.547305
_cell_length_c                    29.128595
_cell_angle_alpha                 90.000017
_cell_angle_beta                  90.000015
_cell_angle_gamma                 90.0
_cell_volume                      36807.2099329

loop_
_atom_site_label
_atom_site_type_symbol
_atom_type_description
_atom_site_fract_x
_atom_site_fract_y
_atom_site_fract_z
_atom_type_partial_charge
Br1   Br    Br    0.081843 0.300883 0.499984 -0.465211
Br2   Br    Br    0.800883 0.418157 0.999970 -0.465211
Br3   Br    Br    0.418157 0.199117 0.999970 -0.465211
Br4   Br    Br    0.199117 0.581843 0.999969 -0.465211
Br5   Br    Br    0.581843 0.199117 0.000030 -0.465211
Br6   Br    Br    0.800883 0.581843 0.000030 -0.465211
Br7   Br    Br    0.418157 0.800883 0.000029 -0.465211
Br8   Br    Br    0.199117 0.418157 0.000030 -0.465211
Br9   Br    Br    0.300883 0.918157 0.499972 -0.465211
Br10  Br    Br    0.918157 0.699117 0.499970 -0.465211
Br11  Br    Br    0.699117 0.081843 0.499969 -0.465211
Br12  Br    Br    0.081843 0.699117 0.500030 -0.465211
Br13  Br    Br    0.300883 0.081843 0.500028 -0.465211
Br14  Br    Br    0.918157 0.300883 0.500016 -0.465211
Br15  Br    Br    0.699117 0.918157 0.500031 -0.465211
Br16  Br    Br    0.581843 0.800883 0.999971 -0.465211
C1    C     C_R   0.000000 0.426597 0.500000 0.907623
C2    C     C_1   0.233296 0.000000 0.500000 0.008036
C3    C     C_1   0.500000 0.000000 0.678914 0.021885
C4    C     C_1   0.500000 1.000000 0.821086 0.021885
C5    C     C_1   1.000000 0.500000 0.821086 0.021885
C6    C     C_1   0.500000 0.000000 0.178914 0.021885
C7    C     C_1   0.000000 0.500000 0.178914 0.021885
C8    C     C_1   1.000000 0.500000 0.271147 0.026225
C9    C     C_1   0.500000 0.000000 0.271147 0.026225
C10   C     C_1   0.000000 0.500000 0.728853 0.026225
C11   C     C_1   0.500000 0.000000 0.728853 0.026225
C12   C     C_1   0.500000 0.000000 0.771147 0.026225
C13   C     C_1   0.000000 0.766703 0.500000 0.008036
C14   C     C_1   1.000000 0.500000 0.771147 0.026225
C15   C     C_1   0.500000 0.000000 0.228853 0.026225
C16   C     C_1   0.000000 0.500000 0.228853 0.026225
C17   C     C_R   0.999988 0.173976 0.541671 -0.125727
C18   C     C_R   0.173976 0.000013 0.541671 -0.125727
C19   C     C_R   0.000012 0.826024 0.541671 -0.125728
C20   C     C_R   0.826024 0.999987 0.541671 -0.125728
C21   C     C_R   0.999988 0.826024 0.458329 -0.125727
C22   C     C_R   0.173976 0.999987 0.458329 -0.125728
C23   C     C_R   0.000012 0.173976 0.458329 -0.125727
C24   C     C_1   0.766703 0.000000 0.500000 0.008036
C25   C     C_R   0.826024 0.000013 0.458329 -0.125727
C26   C     C_R   0.499987 0.673976 0.041671 -0.125727
C27   C     C_R   0.673976 0.500011 0.041671 -0.125727
C28   C     C_R   0.500011 0.326024 0.041671 -0.125728
C29   C     C_R   0.326024 0.499987 0.041671 -0.125728
C30   C     C_R   0.499989 0.326024 0.958329 -0.125727
C31   C     C_R   0.673976 0.499989 0.958329 -0.125728
C32   C     C_R   0.500012 0.673976 0.958329 -0.125727
C33   C     C_R   0.326024 0.500012 0.958329 -0.125727
C34   C     C_R   0.999988 0.134854 0.541720 -0.185129
C35   C     C_1   0.500000 0.733297 0.000000 0.008036
C36   C     C_R   0.134854 0.000013 0.541720 -0.185129
C37   C     C_R   0.000011 0.865146 0.541720 -0.185129
C38   C     C_R   0.865146 0.999987 0.541720 -0.185129
C39   C     C_R   0.999988 0.865146 0.458280 -0.185130
C40   C     C_R   0.134854 0.999987 0.458280 -0.185129
C41   C     C_R   0.000012 0.134854 0.458280 -0.185129
C42   C     C_R   0.865146 0.000013 0.458280 -0.185129
C43   C     C_R   0.499987 0.634854 0.041720 -0.185129
C44   C     C_R   0.634854 0.500011 0.041720 -0.185129
C45   C     C_R   0.500011 0.365146 0.041720 -0.185129
C46   C     C_1   0.733297 0.500000 0.000000 0.008036
C47   C     C_R   0.365146 0.499987 0.041720 -0.185129
C48   C     C_R   0.499989 0.365146 0.958280 -0.185130
C49   C     C_R   0.634854 0.499989 0.958280 -0.185129
C50   C     C_R   0.500012 0.634854 0.958280 -0.185129
C51   C     C_R   0.365146 0.500012 0.958280 -0.185129
C52   C     C_R   0.000000 0.115090 0.500000 -0.058780
C53   C     C_R   0.115090 0.000000 0.500000 -0.058781
C54   C     C_R   0.000000 0.884910 0.500000 -0.058780
C55   C     C_R   0.884910 0.000000 0.500000 -0.058781
C56   C     C_R   0.500000 0.615090 0.000000 -0.058780
C57   C     C_1   0.500000 0.266703 1.000000 0.008036
C58   C     C_R   0.615090 0.500000 0.000000 -0.058781
C59   C     C_R   0.500000 0.384910 0.000000 -0.058780
C60   C     C_R   0.384910 0.500000 0.000000 -0.058781
C61   C     C_R   0.000000 0.193375 0.500000 0.139223
C62   C     C_R   0.193375 0.000000 0.500000 0.139223
C63   C     C_R   0.000000 0.806624 0.500000 0.139223
C64   C     C_R   0.806624 0.000000 0.500000 0.139223
C65   C     C_R   0.500000 0.693375 0.000000 0.139223
C66   C     C_R   0.693375 0.500000 0.000000 0.139223
C67   C     C_R   0.500000 0.306625 1.000000 0.139223
C68   C     C_1   0.266703 0.500000 0.000000 0.008036
C69   C     C_R   0.306625 0.500000 0.000000 0.139223
C70   C     C_1   0.000000 0.266883 0.500000 0.099790
C71   C     C_1   0.266883 0.000000 0.500000 0.099791
C72   C     C_1   0.000000 0.733117 0.500000 0.099791
C73   C     C_R   0.426597 0.000000 0.500000 0.907623
C74   C     C_1   0.733117 0.000000 0.500000 0.099791
C75   C     C_1   0.500000 0.766883 0.000000 0.099791
C76   C     C_1   0.766883 0.500000 0.000000 0.099791
C77   C     C_1   0.500000 0.233117 1.000000 0.099791
C78   C     C_1   0.233117 0.500000 0.000000 0.099791
C79   C     C_R   0.034276 0.326491 0.499993 0.267188
C80   C     C_R   0.326491 0.965724 0.499988 0.267189
C81   C     C_R   0.965724 0.673508 0.499988 0.267189
C82   C     C_R   0.673508 0.034276 0.499987 0.267189
C83   C     C_R   0.034276 0.673508 0.500012 0.267189
C84   C     C_R   0.000000 0.573403 0.500000 0.907623
C85   C     C_R   0.326491 0.034276 0.500012 0.267189
C86   C     C_R   0.965724 0.326491 0.500007 0.267188
C87   C     C_R   0.673508 0.965724 0.500013 0.267189
C88   C     C_R   0.534276 0.826492 0.999988 0.267189
C89   C     C_R   0.826492 0.465724 0.999987 0.267189
C90   C     C_R   0.465724 0.173508 0.999988 0.267189
C91   C     C_R   0.173508 0.534276 0.999987 0.267189
C92   C     C_R   0.534276 0.173508 0.000012 0.267189
C93   C     C_R   0.826492 0.534276 0.000013 0.267189
C94   C     C_R   0.465724 0.826492 0.000012 0.267189
C95   C     C_R   0.573403 0.000000 0.500000 0.907623
C96   C     C_R   0.173508 0.465724 0.000013 0.267189
C97   C     C_R   0.034137 0.365631 0.499993 -0.210264
C98   C     C_R   0.365631 0.965862 0.499988 -0.210264
C99   C     C_R   0.965862 0.634369 0.499988 -0.210264
C100  C     C_R   0.634369 0.034137 0.499987 -0.210264
C101  C     C_R   0.034137 0.634369 0.500012 -0.210264
C102  C     C_R   0.365631 0.034137 0.500012 -0.210264
C103  C     C_R   0.965862 0.365631 0.500007 -0.210264
C104  C     C_R   0.634369 0.965862 0.500013 -0.210264
C105  C     C_R   0.534137 0.865631 0.999988 -0.210264
C106  C     C_R   0.500000 0.926597 0.000000 0.907623
C107  C     C_R   0.865631 0.465862 0.999987 -0.210264
C108  C     C_R   0.465862 0.134369 0.999988 -0.210264
C109  C     C_R   0.134369 0.534137 0.999987 -0.210264
C110  C     C_R   0.534137 0.134369 0.000012 -0.210264
C111  C     C_R   0.865631 0.534137 0.000013 -0.210264
C112  C     C_R   0.465863 0.865631 0.000012 -0.210264
C113  C     C_R   0.134369 0.465862 0.000013 -0.210264
C114  C     C_R   0.000000 0.385425 0.500000 -0.154086
C115  C     C_R   0.385425 0.000000 0.500000 -0.154087
C116  C     C_R   0.000000 0.614575 0.500000 -0.154087
C117  C     C_R   0.926597 0.500000 0.000000 0.907623
C118  C     C_R   0.614575 0.000000 0.500000 -0.154087
C119  C     C_R   0.500000 0.885425 0.000000 -0.154087
C120  C     C_R   0.885425 0.500000 0.000000 -0.154087
C121  C     C_R   0.500000 0.114575 0.000000 -0.154087
C122  C     C_R   0.114575 0.500000 0.000000 -0.154087
C123  C     C_R   0.000000 0.306917 0.500000 -0.020522
C124  C     C_R   0.306917 0.000000 0.500000 -0.020522
C125  C     C_R   0.000000 0.693083 0.500000 -0.020521
C126  C     C_R   0.693083 0.000000 0.500000 -0.020521
C127  C     C_R   0.500000 0.806917 0.000000 -0.020522
C128  C     C_R   0.500000 0.073403 0.000000 0.907623
C129  C     C_R   0.806917 0.500000 0.000000 -0.020522
C130  C     C_R   0.500000 0.193083 1.000000 -0.020521
C131  C     C_R   0.193083 0.500000 0.000000 -0.020521
C132  C     C_R   0.074035 0.000000 0.500000 0.903020
C133  C     C_R   1.000000 0.925965 0.500000 0.903021
C134  C     C_R   0.925965 0.000000 0.500000 0.903021
C135  C     C_R   0.000000 0.074035 0.500000 0.903020
C136  C     C_R   0.574035 0.500000 0.000000 0.903020
C137  C     C_R   0.500000 0.425965 0.000000 0.903021
C138  C     C_R   0.425965 0.500000 0.000000 0.903021
C139  C     C_R   0.073403 0.500000 0.000000 0.907623
C140  C     C_R   0.500000 0.574035 0.000000 0.903020
C141  C     C_R   0.000000 0.500000 0.414171 0.884600
C142  C     C_R   0.500000 0.000000 0.414171 0.884600
C143  C     C_R   0.000000 0.500000 0.585829 0.884599
C144  C     C_R   0.500000 0.000000 0.585829 0.884599
C145  C     C_R   0.500000 0.000000 0.914171 0.884600
C146  C     C_R   1.000000 0.500000 0.914171 0.884600
C147  C     C_R   0.500000 0.000000 0.085829 0.884599
C148  C     C_R   0.000000 0.500000 0.085829 0.884599
C149  C     C_1   0.000000 0.500000 0.363380 -0.181721
C150  C     C_1   0.000000 0.233296 0.500000 0.008036
C151  C     C_1   0.500000 0.000000 0.363380 -0.181721
C152  C     C_1   0.000000 0.500000 0.636620 -0.181721
C153  C     C_1   0.500000 0.000000 0.636620 -0.181721
C154  C     C_1   0.500000 0.000000 0.863380 -0.181721
C155  C     C_1   0.000000 0.500000 0.863380 -0.181721
C156  C     C_1   0.500000 0.000000 0.136620 -0.181721
C157  C     C_1   0.000000 0.500000 0.136620 -0.181721
C158  C     C_1   0.000000 0.500000 0.321086 0.021885
C159  C     C_1   0.500000 0.000000 0.321086 0.021885
C160  C     C_1   0.000000 0.500000 0.678914 0.021885
H1    H     H_    0.999978 0.189067 0.573999 0.150458
H2    H     H_    0.689067 0.500019 0.073999 0.150458
H3    H     H_    0.500020 0.310932 0.073999 0.150458
H4    H     H_    0.310932 0.499978 0.073999 0.150458
H5    H     H_    0.499980 0.310933 0.926001 0.150458
H6    H     H_    0.689067 0.499981 0.926001 0.150458
H7    H     H_    0.500022 0.689067 0.926001 0.150458
H8    H     H_    0.310932 0.500022 0.926001 0.150459
H9    H     H_    0.999978 0.120103 0.574258 0.161391
H10   H     H_    0.120103 0.000023 0.574258 0.161391
H11   H     H_    0.000020 0.879897 0.574258 0.161391
H12   H     H_    0.189067 0.000022 0.573999 0.150459
H13   H     H_    0.879897 0.999978 0.574258 0.161391
H14   H     H_    0.999979 0.879897 0.425742 0.161391
H15   H     H_    0.120103 0.999977 0.425742 0.161391
H16   H     H_    0.000022 0.120103 0.425742 0.161391
H17   H     H_    0.879897 0.000022 0.425742 0.161391
H18   H     H_    0.499978 0.620103 0.074258 0.161391
H19   H     H_    0.620103 0.500019 0.074258 0.161391
H20   H     H_    0.500020 0.379897 0.074258 0.161391
H21   H     H_    0.379897 0.499978 0.074258 0.161391
H22   H     H_    0.499980 0.379897 0.925742 0.161391
H23   H     H_    0.000020 0.810933 0.573999 0.150459
H24   H     H_    0.620103 0.499981 0.925742 0.161391
H25   H     H_    0.500022 0.620103 0.925742 0.161391
H26   H     H_    0.379897 0.500022 0.925742 0.161391
H27   H     H_    0.060748 0.380470 0.499988 0.199721
H28   H     H_    0.380470 0.939252 0.499979 0.199721
H29   H     H_    0.939252 0.619530 0.499978 0.199721
H30   H     H_    0.619530 0.060748 0.499977 0.199721
H31   H     H_    0.060748 0.619530 0.500022 0.199721
H32   H     H_    0.380470 0.060747 0.500021 0.199721
H33   H     H_    0.939252 0.380470 0.500012 0.199721
H34   H     H_    0.810932 0.999978 0.573999 0.150458
H35   H     H_    0.619530 0.939252 0.500023 0.199721
H36   H     H_    0.560748 0.880470 0.999978 0.199721
H37   H     H_    0.880470 0.439252 0.999977 0.199721
H38   H     H_    0.439252 0.119530 0.999978 0.199721
H39   H     H_    0.119530 0.560747 0.999977 0.199721
H40   H     H_    0.560747 0.119530 0.000022 0.199721
H41   H     H_    0.880470 0.560747 0.000022 0.199721
H42   H     H_    0.439252 0.880470 0.000022 0.199721
H43   H     H_    0.119530 0.439252 0.000023 0.199721
H44   H     H_    0.999980 0.810932 0.426001 0.150458
H45   H     H_    0.189067 0.999977 0.426001 0.150458
H46   H     H_    0.000022 0.189067 0.426001 0.150458
H47   H     H_    0.810932 0.000022 0.426001 0.150459
H48   H     H_    0.499978 0.689067 0.073999 0.150458
O1    O     O_R   0.968700 0.444570 0.500010 -0.613526
O2    O     O_R   0.944570 0.531300 0.000010 -0.613527
O3    O     O_R   0.531300 0.055430 0.000010 -0.613526
O4    O     O_R   0.055430 0.468700 0.000010 -0.613526
O5    O     O_R   0.468700 0.055430 0.999990 -0.613526
O6    O     O_R   0.944570 0.468700 0.999990 -0.613526
O7    O     O_R   0.531300 0.944570 0.999990 -0.613527
O8    O     O_R   0.055430 0.531300 0.999990 -0.613526
O9    O     O_R   0.968700 0.500000 0.436870 -0.593604
O10   O     O_R   0.500000 0.031300 0.436870 -0.593605
O11   O     O_R   0.031300 0.500000 0.436870 -0.593604
O12   O     O_R   0.444570 0.031300 0.500010 -0.613527
O13   O     O_R   0.500000 0.968700 0.436870 -0.593604
O14   O     O_R   0.968700 0.500000 0.563130 -0.593604
O15   O     O_R   0.500000 0.968700 0.563130 -0.593604
O16   O     O_R   0.031300 0.500000 0.563130 -0.593605
O17   O     O_R   0.500000 0.031300 0.563130 -0.593605
O18   O     O_R   0.468700 0.000000 0.936870 -0.593604
O19   O     O_R   0.000000 0.531300 0.936870 -0.593605
O20   O     O_R   0.531300 0.000000 0.936870 -0.593605
O21   O     O_R   0.000000 0.468700 0.936870 -0.593604
O22   O     O_R   0.468700 0.000000 0.063130 -0.593604
O23   O     O_R   0.031300 0.555430 0.500010 -0.613526
O24   O     O_R   0.000000 0.468700 0.063130 -0.593604
O25   O     O_R   0.531300 0.000000 0.063130 -0.593605
O26   O     O_R   0.000000 0.531300 0.063130 -0.593605
O27   O     O_R   0.055320 0.999990 0.464380 -0.620133
O28   O     O_R   0.999990 0.944680 0.464380 -0.620132
O29   O     O_R   0.944680 0.000010 0.464380 -0.620132
O30   O     O_R   0.000010 0.055320 0.464380 -0.620133
O31   O     O_R   0.055320 0.000010 0.535620 -0.620133
O32   O     O_R   0.999990 0.055320 0.535620 -0.620133
O33   O     O_R   0.944680 0.999990 0.535620 -0.620133
O34   O     O_R   0.555430 0.968700 0.500010 -0.613526
O35   O     O_R   0.000010 0.944680 0.535620 -0.620133
O36   O     O_R   0.555320 0.499990 0.964380 -0.620133
O37   O     O_R   0.499990 0.444680 0.964380 -0.620132
O38   O     O_R   0.444680 0.500010 0.964380 -0.620132
O39   O     O_R   0.500010 0.555320 0.964380 -0.620133
O40   O     O_R   0.555320 0.500010 0.035620 -0.620133
O41   O     O_R   0.499990 0.555320 0.035620 -0.620133
O42   O     O_R   0.444680 0.499990 0.035620 -0.620133
O43   O     O_R   0.500010 0.444680 0.035620 -0.620133
O44   O     O_R   0.968700 0.555430 0.499990 -0.613526
O45   O     O_R   0.444570 0.968700 0.499990 -0.613526
O46   O     O_R   0.031300 0.444570 0.499990 -0.613527
O47   O     O_R   0.555430 0.031300 0.499990 -0.613526
O48   O     O_R   0.468700 0.944570 0.000010 -0.613526
Zn1   Zn    Zn3+2 0.958200 0.500000 0.500000 1.005790
Zn2   Zn    Zn3+2 0.000000 0.000000 0.547590 0.977181
Zn3   Zn    Zn3+2 0.500000 0.500000 0.952410 0.977181
Zn4   Zn    Zn3+2 0.500000 0.500000 0.047590 0.977181
Zn5   Zn    Zn3+2 0.500000 0.041800 0.500000 1.005790
Zn6   Zn    Zn3+2 0.041800 0.500000 0.500000 1.005790
Zn7   Zn    Zn3+2 0.500000 0.958200 0.500000 1.005790
Zn8   Zn    Zn3+2 0.458200 0.000000 0.000000 1.005790
Zn9   Zn    Zn3+2 1.000000 0.541800 0.000000 1.005790
Zn10  Zn    Zn3+2 0.541800 0.000000 0.000000 1.005790
Zn11  Zn    Zn3+2 0.000000 0.458200 0.000000 1.005790
Zn12  Zn    Zn3+2 0.000000 0.000000 0.452410 0.977181

loop_
_geom_bond_atom_site_label_1
_geom_bond_atom_site_label_2
_ccdc_geom_bond_type
C122  C139  S    
C9    C15   T    
C4    C154  T    
O3    Zn10  S    
C110  C121  A    
C56   C140  S    
C144  O15   A    
C48   H22   S    
C19   C37   A    
C98   C115  A    
C72   C125  S    
O7    Zn10  S    
C102  H32   S    
C87   C104  A    
C70   C150  T    
O18   Zn8   S    
C71   C124  S    
O15   Zn7   S    
C28   C67   A    
C8    C158  S    
O11   Zn6   S    
C25   C64   A    
C144  C153  S    
C19   H23   S    
C27   H2    S    
C108  H38   S    
C18   C36   A    
C45   C59   A    
O38   Zn3   S    
C21   C63   A    
C89   C107  A    
O33   Zn2   S    
O40   Zn4   S    
Br11  C82   S    
C73   O45   A    
C85   C102  A    
C23   C61   A    
C30   H5    S    
C151  C159  T    
C38   H13   S    
C25   C42   A    
C4    C12   S    
Br8   C96   S    
C134  O33   A    
C57   C67   S    
C42   C55   A    
Br14  C86   S    
C55   C134  S    
C100  C118  A    
C47   C60   A    
C111  C120  A    
C23   C41   A    
C139  O8    A    
C103  C114  A    
C6    C156  T    
C143  C152  S    
O45   Zn7   S    
O35   Zn2   S    
C105  H36   S    
C19   C63   A    
C101  C116  A    
C136  O36   A    
C117  O6    A    
C133  O35   A    
C13   C72   T    
C36   C53   A    
C29   H4    S    
C35   C75   T    
O36   Zn3   S    
C1    O1    A    
Br16  C88   S    
Br7   C94   S    
C50   C56   A    
C146  C155  S    
O42   Zn4   S    
C145  O20   A    
C46   C76   T    
O44   Zn1   S    
O21   Zn11  S    
C117  C120  S    
C143  O16   A    
C24   C64   S    
C128  O3    A    
C102  C115  A    
C57   C77   T    
C96   C113  A    
C81   C99   A    
O14   Zn1   S    
C3    C11   S    
C35   C65   S    
C95   O34   A    
C75   C127  S    
C149  C158  T    
O29   Zn12  S    
C106  O48   A    
C43   C56   A    
C86   C123  A    
C136  O40   A    
C104  H35   S    
C1    C114  S    
C40   H15   S    
O9    Zn1   S    
O48   Zn8   S    
O10   Zn5   S    
C82   C126  A    
C50   H25   S    
C58   C136  S    
C51   H26   S    
C54   C133  S    
C36   H10   S    
C31   H6    S    
C26   H48   S    
C37   C54   A    
C24   C74   T    
C28   H3    S    
C85   C124  A    
C93   C111  A    
C142  C151  S    
C29   C69   A    
C92   C130  A    
C99   C116  A    
C141  O9    A    
Br3   C90   S    
O43   Zn4   S    
Br4   C91   S    
C139  O4    A    
C103  H33   S    
C97   C114  A    
C140  O41   A    
C26   C65   A    
C17   H1    S    
O12   Zn5   S    
C39   H14   S    
O17   Zn5   S    
C128  O5    A    
C147  O25   A    
C49   H24   S    
C68   C69   S    
C91   C109  A    
C41   H16   S    
C137  O43   A    
C6    C15   S    
C112  C119  A    
C22   H45   S    
C141  O11   A    
C134  O29   A    
C88   C105  A    
O31   Zn2   S    
C101  H31   S    
C17   C34   A    
C5    C155  T    
O6    Zn11  S    
C29   C47   A    
C105  C119  A    
C49   C58   A    
C47   H21   S    
C30   C48   A    
Br10  C81   S    
C148  O26   A    
C8    C16   T    
C148  C157  S    
C106  O7    A    
C33   C69   A    
C83   C101  A    
C33   H8    S    
C91   C131  A    
C59   C137  S    
O41   Zn4   S    
C82   C100  A    
C13   C63   S    
C111  H41   S    
C10   C160  S    
Br1   C79   S    
C89   C129  A    
C88   C127  A    
C77   C130  S    
C23   H46   S    
C68   C78   T    
C117  O2    A    
O22   Zn8   S    
C147  C156  S    
C45   H20   S    
C81   C125  A    
C145  O18   A    
C74   C126  S    
C96   C131  A    
C110  H40   S    
C27   C44   A    
C135  O30   A    
O37   Zn3   S    
C145  C154  S    
C70   C123  S    
O4    Zn11  S    
C18   C62   A    
C138  O38   A    
C25   H47   S    
C121  C128  S    
C7    C157  T    
C10   C14   T    
O39   Zn3   S    
C133  O28   A    
C107  H37   S    
C20   C64   A    
C144  O17   A    
Br6   C93   S    
O16   Zn6   S    
C113  C122  A    
C41   C52   A    
C141  C149  S    
C46   C66   S    
C87   C126  A    
C112  H42   S    
C95   O47   A    
C11   C12   T    
C99   H29   S    
C137  O37   A    
C73   O12   A    
O25   Zn10  S    
C2    C62   S    
C140  O39   A    
C78   C131  S    
C152  C160  T    
C146  O21   A    
C143  O14   A    
Br9   C80   S    
C132  O27   A    
C42   H17   S    
O13   Zn7   S    
C76   C129  S    
C43   H18   S    
O1    Zn1   S    
C31   C66   A    
C93   C129  A    
C3    C153  T    
C109  C122  A    
C1    O46   A    
C138  O42   A    
C104  C118  A    
C73   C115  S    
C26   C43   A    
C80   C124  A    
C83   C125  A    
C84   C116  S    
C95   C118  S    
C33   C51   A    
C18   H12   S    
C28   C45   A    
O32   Zn2   S    
C22   C62   A    
C84   O44   A    
C5    C14   S    
O5    Zn8   S    
C79   C123  A    
C2    C71   T    
C90   C130  A    
C32   H7    S    
C107  C120  A    
C92   C110  A    
C7    C16   S    
O46   Zn6   S    
O23   Zn6   S    
O28   Zn12  S    
C32   C65   A    
C61   C150  S    
O2    Zn9   S    
C9    C159  S    
C113  H43   S    
C52   C135  S    
O19   Zn9   S    
C109  H39   S    
C17   C61   A    
C34   C52   A    
C79   C97   A    
C38   C55   A    
C44   C58   A    
O20   Zn10  S    
O26   Zn9   S    
C48   C59   A    
C31   C49   A    
O8    Zn9   S    
C98   H28   S    
O27   Zn12  S    
C97   H27   S    
C37   H11   S    
C94   C127  A    
C148  O24   A    
C100  H30   S    
C106  C119  S    
C80   C98   A    
C39   C54   A    
C20   C38   A    
Br2   C89   S    
C142  O13   A    
C30   C67   A    
C21   C39   A    
Br15  C87   S    
O47   Zn5   S    
C94   C112  A    
C22   C40   A    
C108  C121  A    
C132  O31   A    
C40   C53   A    
Br12  C83   S    
C90   C108  A    
O34   Zn7   S    
C84   O23   A    
C27   C66   A    
C53   C132  S    
C147  O22   A    
C51   C60   A    
C21   H44   S    
C32   C50   A    
C146  O19   A    
C34   H9    S    
Br13  C85   S    
C60   C138  S    
O24   Zn11  S    
C142  O10   A    
C86   C103  A    
C44   H19   S    
C20   H34   S    
C135  O32   A    
Br5   C92   S    
O30   Zn12  S    
