data_mof_unit_53451.cif
_audit_creation_date              2013-03-05T16:18:34-0500
_audit_creation_method            fapswitch 2.2
_symmetry_space_group_name_H-M    P1
_symmetry_Int_Tables_number       1
_space_group_crystal_system       triclinic
_cell_length_a                    8.412871
_cell_length_b                    19.047535
_cell_length_c                    23.041197
_cell_angle_alpha                 101.087949
_cell_angle_beta                  89.724577
_cell_angle_gamma                 91.757144
_cell_volume                      3621.5958032

loop_
_atom_site_label
_atom_site_type_symbol
_atom_site_description
_atom_site_fract_x
_atom_site_fract_y
_atom_site_fract_z
_atom_type_partial_charge
P1    P     P_3+3 0.935930 0.665430 0.555670 0.415166
O1    O     O_2   0.110690 0.676100 0.539200 -0.388785
O2    O     O_3   0.863220 0.586720 0.534720 -0.429433
O3    O     O_3   0.368310 0.629070 0.432760 -0.377772
O4    O     O_2   0.260663 0.756148 0.478948 -0.369344
O5    O     O_3   0.924777 0.683300 0.633997 -0.607639
O6    O     O_3   0.341884 0.739398 0.368175 -0.544820
H1    H     H_    0.324706 0.633339 0.325576 0.157609
C1    C     C_3   0.366382 0.702714 0.263867 -0.884771
H2    H     H_    0.241404 0.717991 0.259743 0.280579
H3    H     H_    0.446937 0.748076 0.258065 0.246744
P2    P     P_3+3 0.382700 0.439650 0.365620 0.436853
P3    P     P_3+3 0.942557 0.582844 0.324671 0.433048
O7    O     O_2   0.210480 0.460990 0.358130 -0.356889
O8    O     O_3   0.959520 0.592090 0.401630 -0.392895
O9    O     O_2   0.083261 0.538491 0.295994 -0.398581
O10   O     O_3   0.341600 0.346767 0.347591 -0.562123
O11   O     O_3   0.978844 0.666961 0.306540 -0.517251
C2    C     C_3   0.916222 0.719336 0.351496 0.493255
H4    H     H_    0.986435 0.723641 0.392878 0.138156
H5    H     H_    0.789237 0.706993 0.360077 0.012985
C3    C     C_3   0.926792 0.791417 0.332375 -0.983162
H6    H     H_    0.052714 0.805855 0.324257 0.277293
H7    H     H_    0.856855 0.789096 0.291258 0.264546
C4    C     C_3   0.876721 0.375887 0.341118 0.423505
H8    H     H_    0.756899 0.395967 0.337209 0.015567
H9    H     H_    0.949769 0.419992 0.366442 0.164933
C5    C     C_3   0.945536 0.356545 0.279045 -0.903245
H10   H     H_    0.872511 0.312863 0.251913 0.245232
H11   H     H_    0.945862 0.403924 0.257451 0.229843
H12   H     H_    0.069502 0.338586 0.281071 0.284567
Ba1   Ba    Ba6+2 0.157800 0.534120 0.474430 1.542278
C6    C     C_3   0.071784 0.703471 0.663150 0.355108
H13   H     H_    0.173434 0.710366 0.634249 0.180226
H14   H     H_    0.101087 0.661432 0.688465 0.092260
C7    C     C_3   0.059194 0.773672 0.707349 -0.967092
H15   H     H_    0.025116 0.817728 0.684505 0.240863
H16   H     H_    0.177323 0.787949 0.729097 0.262135
H17   H     H_    0.971228 0.768036 0.742566 0.254092
C8    C     C_3   0.477075 0.306978 0.352053 0.336043
H18   H     H_    0.444655 0.265462 0.378630 0.083034
H19   H     H_    0.575066 0.339672 0.374974 0.140711
C9    C     C_3   0.529814 0.269246 0.290728 -0.936530
H20   H     H_    0.428261 0.236807 0.267701 0.264960
H21   H     H_    0.629079 0.232909 0.295182 0.235864
H22   H     H_    0.571405 0.309286 0.263911 0.258690
P4    P     P_3+3 0.874370 0.334570 0.444280 0.460049
O12   O     O_2   0.699610 0.323860 0.460780 -0.379280
O13   O     O_3   0.947090 0.413280 0.465240 -0.436869
O14   O     O_3   0.442000 0.370930 0.567190 -0.394118
O15   O     O_3   0.867577 0.314178 0.366394 -0.589589
P5    P     P_3+3 0.858590 0.416416 0.676729 0.472133
O16   O     O_3   0.359410 0.538600 0.570730 -0.372432
O17   O     O_3   0.850780 0.407910 0.598320 -0.341377
O18   O     O_2   0.699652 0.449198 0.699970 -0.412726
O19   O     O_3   0.840029 0.330322 0.692749 -0.587249
Ba2   Ba    Ba6+2 0.652390 0.465870 0.525520 1.534713
P6    P     P_3+3 0.391982 0.720844 0.437201 0.448457
C10   C     C_3   0.393924 0.683503 0.323938 0.434724
H23   H     H_    0.522865 0.674566 0.328560 0.029940
H24   H     H_    0.389505 0.655804 0.228692 0.254965
O20   O     O_3   0.450900 0.461390 0.429220 -0.434284
C11   C     C_3   0.527375 0.692342 0.661499 1.129598
H25   H     H_    0.598171 0.665907 0.622767 0.010405
C12   C     C_3   0.628334 0.708472 0.718407 -0.939956
H26   H     H_    0.685883 0.658920 0.725657 0.232868
H27   H     H_    0.721207 0.750036 0.715568 0.228008
H28   H     H_    0.552325 0.728989 0.757385 0.252329
P7    P     P_3+3 0.418138 0.557308 0.646372 0.450884
O21   O     O_2   0.599830 0.538970 0.641850 -0.382498
O22   O     O_3   0.396973 0.649035 0.672933 -0.656281
H29   H     H_    0.878509 0.833452 0.367527 0.226012
C13   C     C_3   0.953710 0.285483 0.660807 1.185135
H30   H     H_    0.052091 0.316414 0.644232 -0.082820
C14   C     C_3   0.033429 0.243546 0.702781 -1.143461
H31   H     H_    0.945022 0.213056 0.724819 0.252663
H32   H     H_    0.120154 0.206244 0.678129 0.262626
H33   H     H_    0.095684 0.281975 0.738291 0.277403
P8    P     P_3+3 0.414722 0.276697 0.563289 0.423357
C15   C     C_3   0.426405 0.312164 0.677199 0.430252
H34   H     H_    0.297637 0.321264 0.677120 -0.005003
O23   O     O_2   0.545792 0.241845 0.520900 -0.361967
O24   O     O_3   0.468132 0.255977 0.631357 -0.553780
H35   H     H_    0.488916 0.362250 0.671710 0.141365
H36   H     H_    0.454469 0.345310 0.771140 0.143713
C16   C     C_3   0.474623 0.296263 0.737378 -0.382973
H37   H     H_    0.603240 0.285910 0.738731 0.221026
C17   C     C_R   0.987016 0.951257 0.526703 0.052352
C18   C     C_R   0.067390 0.904330 0.556615 -0.195964
C19   C     C_R   0.174098 0.053824 0.563602 -0.217337
C20   C     C_R   0.040714 0.023887 0.529273 0.041514
C21   C     C_R   0.233894 0.122293 0.562499 -0.179552
C22   C     C_R   0.157986 0.166754 0.530684 0.043041
C23   C     C_R   0.017741 0.140739 0.498171 0.051085
C24   C     C_R   0.961573 0.068108 0.495986 0.022276
C25   C     C_R   0.213283 0.237905 0.532789 0.074249
C26   C     C_R   0.113507 0.283537 0.509861 -0.213023
C27   C     C_R   0.978605 0.261651 0.476304 0.293124
C28   C     C_R   0.934072 0.187368 0.467836 -0.038474
C29   C     C_R   0.848438 0.924285 0.493808 0.014489
C30   C     C_R   0.793068 0.851658 0.493459 0.007223
C31   C     C_R   0.880201 0.805223 0.522637 -0.058424
C32   C     C_R   0.014811 0.833983 0.554862 -0.071176
H38   H     H_    0.339380 0.140252 0.588040 0.168957
H39   H     H_    0.082569 0.802656 0.579550 0.162016
C33   C     C_R   0.812383 0.157541 0.429347 -0.115852
C34   C     C_R   0.767398 0.085260 0.423221 -0.177088
C35   C     C_R   0.828152 0.040451 0.460225 0.044413
C36   C     C_R   0.764429 0.969240 0.461757 -0.021396
C37   C     C_R   0.617207 0.941026 0.434576 0.153040
C38   C     C_R   0.648426 0.825992 0.465179 -0.057134
C39   C     C_R   0.562865 0.871734 0.437376 -0.236046
C40   C     C_R   0.591404 0.755345 0.465898 0.179843
C41   C     C_R   0.684568 0.709014 0.490854 -0.464803
C42   C     C_R   0.828523 0.731970 0.519413 0.232297
H40   H     H_    0.754706 0.189206 0.401765 0.152273
H41   H     H_    0.448856 0.854987 0.417536 0.195646
H42   H     H_    0.640850 0.654849 0.490204 0.188514
H43   H     H_    0.238920 0.025401 0.591391 0.131570
H44   H     H_    0.174340 0.919625 0.581817 0.125762
H45   H     H_    0.688793 0.066091 0.386792 0.156378
H46   H     H_    0.329861 0.315263 0.043368 0.168200
H47   H     H_    0.246220 0.309773 0.941790 0.163829
C43   C     C_R   0.642436 0.519105 0.334064 -0.505495
C44   C     C_R   0.402898 0.544228 0.945585 -0.057862
C45   C     C_R   0.353988 0.540334 0.886440 0.531403
O25   O     O_2   0.367811 0.593572 0.864254 -0.588016
N1    N     N_R   0.288103 0.477375 0.853809 -0.160209
C46   C     C_R   0.267159 0.417716 0.879745 0.497005
O26   O     O_2   0.207058 0.362660 0.851298 -0.626993
C47   C     C_R   0.315478 0.419842 0.938921 -0.037129
C48   C     C_R   0.383364 0.483619 0.971957 -0.017601
C49   C     C_R   0.470128 0.607686 0.979120 -0.123326
C50   C     C_R   0.516406 0.611059 0.037733 -0.118310
C51   C     C_R   0.497344 0.551041 0.064787 -0.039093
C52   C     C_R   0.431141 0.487013 0.031729 -0.019744
C53   C     C_R   0.297614 0.359695 0.965914 -0.131322
C54   C     C_R   0.345915 0.362860 0.024458 -0.119094
C55   C     C_R   0.412718 0.426429 0.058169 -0.050427
C56   C     C_R   0.461599 0.430705 0.117590 0.525277
N2    N     N_R   0.522936 0.494542 0.150673 -0.163089
C57   C     C_R   0.542069 0.554095 0.124286 0.505667
C58   C     C_2   0.085185 0.458817 0.775568 -0.265590
C59   C     C_3   0.026228 0.475604 0.717753 0.046946
C60   C     C_1   0.304958 0.508682 0.696864 0.213868
C61   C     C_2   0.354153 0.499258 0.749367 -0.339639
C62   C     C_2   0.238881 0.475359 0.792731 0.160928
C63   C     C_R   0.714370 0.531112 0.234630 -0.191925
C64   C     C_R   0.751247 0.541349 0.295065 0.200514
C65   C     C_R   0.501662 0.482227 0.313265 0.282475
C66   C     C_R   0.461392 0.474074 0.253052 -0.230176
C67   C     C_R   0.566401 0.499611 0.212872 0.125694
O27   O     O_2   0.451408 0.377209 0.139516 -0.596942
O28   O     O_2   0.596909 0.610325 0.152740 -0.607209
C68   C     C_2   0.161708 0.487084 0.677199 0.207596
H48   H     H_    0.567178 0.661110 0.061871 0.169935
H49   H     H_    0.800495 0.548074 0.204702 0.175342
H50   H     H_    0.486985 0.655218 0.960167 0.169070
H51   H     H_    0.475915 0.513547 0.762997 0.202373
H52   H     H_    0.998741 0.444259 0.806655 0.180933
H53   H     H_    0.348979 0.448091 0.237760 0.185401
H54   H     H_    0.672686 0.526428 0.380496 0.178539
O29   O     O_3   0.462672 0.756404 0.649552 -0.645510
C69   C     C_3   0.579630 0.803766 0.632819 -0.352176
H55   H     H_    0.698353 0.780260 0.623028 0.138315
H56   H     H_    0.593784 0.851293 0.668998 0.183650
H57   H     H_    0.537398 0.822521 0.592940 0.188701
O30   O     O_3   0.883097 0.241947 0.609833 -0.631005
C70   C     C_3   0.790682 0.183742 0.622789 -0.121952
H58   H     H_    0.717672 0.198973 0.663121 0.160176
H59   H     H_    0.868366 0.139033 0.627413 0.117189
H60   H     H_    0.709314 0.163664 0.585160 0.192475
N3    N     N_2   0.381070 0.237066 0.752631 -0.073906
H61   H     H_    0.347255 0.245880 0.796447 0.237490
C71   C     C_3   0.442856 0.166296 0.733384 -0.857594
H62   H     H_    0.359725 0.125953 0.746891 0.239858
H63   H     H_    0.560775 0.162580 0.753971 0.232547
H64   H     H_    0.453602 0.153326 0.684633 0.263579
N4    N     N_2   0.149132 0.355662 0.522005 -0.104154
H65   H     H_    0.177971 0.370706 0.565308 0.225043
C72   C     C_3   0.255951 0.376372 0.479478 -0.470215
H66   H     H_    0.302800 0.429359 0.499824 0.294331
H67   H     H_    0.194196 0.376207 0.437740 0.232820
H68   H     H_    0.355379 0.339360 0.467910 0.192010
N5    N     N_2   0.514244 0.982118 0.406692 -0.127393
H69   H     H_    0.460927 0.953904 0.368668 0.173221
C73   C     C_3   0.401528 0.022217 0.446123 -0.887775
H70   H     H_    0.333952 0.056868 0.422066 0.247685
H71   H     H_    0.464542 0.056867 0.483844 0.267631
H72   H     H_    0.316970 0.984703 0.462600 0.259538
O31   O     O_3   0.135662 0.473529 0.618339 -0.700598
C74   C     C_3   0.037983 0.525007 0.604438 0.123176
H73   H     H_    0.108473 0.573369 0.601337 0.128683
H74   H     H_    0.936319 0.540153 0.634907 0.098230
H75   H     H_    0.991064 0.499665 0.561057 0.238561

loop_
_geom_bond_atom_site_label_1
_geom_bond_atom_site_label_2
_geom_bond_distance
_ccdc_geom_bond_type
C10   H23   1.111951 S    
C43   C64   1.392741 A    
C11   C12   1.541059 S    
C37   N5    1.419876 S    
C22   C23   1.424315 A    
O3    Ba1   2.790034 S    
C70   H59   1.110570 S    
C70   H58   1.107593 S    
C2    H4    1.112264 S    
C15   H35   1.103507 S    
O16   P7    1.779695 S    
O14   P8    1.787542 S    
C41   C42   1.398355 A    
C19   C20   1.416273 A    
Ba2   O20   2.785411 S    
P4    O13   1.588493 S    
N3    H61   1.031189 S    
C4    C5    1.522787 S    
C58   C62   1.363653 D    
C69   H56   1.110244 S    
P5    C59   1.912819 S    
P4    C27   1.928125 S    
O4    P6    1.544193 D    
C1    H24   1.106200 S    
C5    H10   1.110329 S    
C2    H5    1.111803 S    
C40   C41   1.402029 A    
P7    O21   1.576878 D    
C15   O24   1.403202 S    
H1    C10   1.110427 S    
C60   C61   1.326588 D    
C39   H41   1.077066 S    
N5    C73   1.441264 S    
C58   H52   1.085287 S    
C33   C34   1.397300 A    
C58   C59   1.517484 S    
C6    C7    1.523232 S    
O13   Ba2   2.943362 S    
C35   C36   1.449872 A    
O1    Ba1   2.864540 S    
P1    O1    1.533910 D    
C13   H30   1.109772 S    
C3    H29   1.108793 S    
P7    O22   1.750890 S    
C21   C22   1.392430 A    
C73   H72   1.109666 S    
C15   C16   1.534071 S    
C31   C42   1.436870 A    
O30   C70   1.412429 S    
C51   C57   1.413289 A    
C50   H48   1.083510 S    
C38   C40   1.417777 A    
C38   C39   1.394708 A    
C66   H53   1.082085 S    
P2    O10   1.761628 S    
P6    C40   1.860025 S    
C66   C67   1.418850 A    
C17   C20   1.432444 A    
Ba2   O21   2.812393 S    
C1    H2    1.108849 S    
O6    P6    1.750392 S    
P5    O18   1.542809 D    
C56   O27   1.221920 D    
C72   H67   1.094671 S    
C29   C36   1.436458 A    
P2    Ba1   3.395790 S    
C13   C14   1.536051 S    
C23   C24   1.439838 A    
Ba1   Ba2   4.621301 S    
C13   O30   1.421937 S    
O6    C10   1.403908 S    
C14   H33   1.108956 S    
C30   C31   1.429975 A    
P5    O17   1.783927 S    
C26   C27   1.383871 A    
C71   H64   1.106618 S    
C43   H54   1.082502 S    
N3    C71   1.447329 S    
C61   C62   1.511466 S    
O31   C74   1.382767 S    
C74   H75   1.092902 S    
P2    C65   1.851869 S    
C51   C52   1.408155 A    
C2    C3    1.520493 S    
C56   N2    1.390911 Am   
H46   C54   1.083458 S    
N1    C46   1.388304 Am   
C71   H63   1.111716 S    
C54   C55   1.409245 A    
O16   Ba2   2.951130 S    
C16   H37   1.107448 S    
O11   C2    1.405442 S    
P4    O15   1.762447 S    
C61   H51   1.084050 S    
C12   H27   1.105901 S    
C4    H8    1.099230 S    
C72   H66   1.090485 S    
C20   C24   1.424342 A    
C7    H17   1.113767 S    
P1    Ba1   3.419878 S    
N4    H65   1.012217 S    
C33   H40   1.082344 S    
P1    O2    1.588436 S    
O10   C8    1.402865 S    
C52   C55   1.409033 A    
C11   O29   1.425621 S    
C14   H31   1.109774 S    
C4    O15   1.408554 S    
P7    C60   1.862189 S    
C47   C53   1.408717 A    
P4    Ba2   3.420278 S    
P2    O20   1.551852 S    
C19   C21   1.388141 A    
P4    O12   1.534212 D    
C18   H44   1.074943 S    
C48   C52   1.425461 A    
C12   H28   1.114913 S    
C25   C26   1.401693 A    
C8    C9    1.527366 S    
C6    H13   1.101484 S    
O2    Ba1   2.942651 S    
C32   H39   1.076616 S    
C41   H42   1.082025 S    
C57   O28   1.221606 D    
C14   H32   1.110124 S    
H36   C16   1.111572 S    
C17   C29   1.421120 A    
C68   O31   1.348588 S    
P3    O11   1.749579 S    
C8    H18   1.116302 S    
C11   O22   1.406657 S    
C12   H26   1.114722 S    
C22   C25   1.411294 A    
C1    H3    1.109652 S    
P3    O8    1.753988 S    
C49   C50   1.396328 A    
C70   H60   1.108461 S    
C3    H7    1.110541 S    
C4    H9    1.098697 S    
C34   H45   1.071377 S    
C34   C35   1.423894 A    
C47   C48   1.409706 A    
O2    Ba2   2.838161 S    
Ba1   O16   2.786028 S    
C46   O26   1.221180 D    
C72   H68   1.108826 S    
C44   C49   1.407476 A    
C28   C33   1.391622 A    
C43   C65   1.396655 A    
C69   H55   1.111477 S    
C45   N1    1.388187 Am   
O19   C13   1.409737 S    
C65   C66   1.407889 A    
O14   Ba2   2.789280 S    
C5    H12   1.111463 S    
C63   C67   1.416149 A    
O7    Ba1   2.812155 S    
C15   H34   1.102394 S    
O8    Ba1   2.769067 S    
P8    O23   1.547794 D    
C55   C56   1.417995 A    
N1    C62   1.461976 S    
C50   C51   1.408215 A    
C30   C38   1.411716 A    
C53   C54   1.400313 A    
H47   C53   1.083463 S    
O5    C6    1.417023 S    
C16   N3    1.452473 S    
C74   H73   1.093972 S    
C59   C68   1.507675 S    
C5    H11   1.111089 S    
P2    O7    1.536137 D    
Ba1   O20   2.951986 S    
P8    C25   1.909634 S    
C9    H21   1.118291 S    
C71   H62   1.110584 S    
C36   C37   1.432573 A    
C19   H43   1.074839 S    
C7    H16   1.117361 S    
P8    O24   1.753053 S    
C44   C48   1.409334 A    
N5    H69   1.032225 S    
C44   C45   1.413000 A    
C23   C28   1.433403 A    
C9    H20   1.113149 S    
C45   O25   1.222604 D    
C8    H19   1.092036 S    
C29   C30   1.444644 A    
C6    H14   1.111445 S    
C63   H49   1.082319 S    
C69   H57   1.111469 S    
C31   C32   1.395515 A    
C49   H50   1.083562 S    
C9    H22   1.117449 S    
C37   C39   1.396637 A    
Ba1   O13   2.837425 S    
C73   H71   1.111016 S    
O29   C69   1.416457 S    
C26   N4    1.372279 S    
C24   C35   1.421979 A    
C21   H38   1.076973 S    
P3    C64   1.845427 S    
C11   H25   1.115857 S    
C60   C68   1.315321 D    
C73   H70   1.110327 S    
O12   Ba2   2.864940 S    
C17   C18   1.417629 A    
C7    H15   1.117811 S    
C27   C28   1.429129 A    
P3    O9    1.546172 D    
O3    P6    1.736632 S    
P1    O5    1.773651 S    
C3    H6    1.110354 S    
N4    C72   1.428919 S    
P1    C42   1.898813 S    
C1    C10   1.518716 S    
N2    C57   1.391189 Am   
C63   C64   1.403324 A    
C18   C32   1.391307 A    
P5    O19   1.751124 S    
N2    C67   1.465130 S    
C74   H74   1.113128 S    
C46   C47   1.417416 A    
O17   Ba2   2.769534 S    
