data_mof_unit_47078.cif
_audit_creation_date              2012-12-11T15:43:11-0500
_audit_creation_method            fapswitch 2.2
_symmetry_space_group_name_H-M    P1
_symmetry_Int_Tables_number       1
_space_group_crystal_system       triclinic
_cell_length_a                    19.048015
_cell_length_b                    10.968143
_cell_length_c                    18.806153
_cell_angle_alpha                 90.02152
_cell_angle_beta                  89.768979
_cell_angle_gamma                 89.815233
_cell_volume                      3928.95425387

loop_
_atom_site_label
_atom_site_type_symbol
_atom_type_description
_atom_site_fract_x
_atom_site_fract_y
_atom_site_fract_z
_atom_type_partial_charge
C1    C     C_R   0.712232 0.331453 0.138465 0.597312
C2    C     C_R   0.950489 0.982932 0.051379 -0.049875
C3    C     C_R   0.744028 0.414340 0.577635 0.019792
C4    C     C_R   0.728340 0.375526 0.353871 0.553509
C5    C     C_R   0.270118 0.380107 0.648190 0.547512
C6    C     C_R   0.226763 0.870985 0.355441 0.554275
C7    C     C_R   0.771576 0.876029 0.646387 0.546575
C8    C     C_R   0.531841 0.157565 0.353205 0.547176
C9    C     C_R   0.466418 0.156591 0.645528 0.540110
C10   C     C_R   0.031864 0.657471 0.353260 0.545369
C11   C     C_R   0.966176 0.656702 0.645417 0.541125
C12   C     C_R   0.741756 0.970308 0.353944 0.555370
C13   C     C_R   0.462067 0.497130 0.978827 -0.045633
C14   C     C_R   0.257523 0.968891 0.646680 0.547080
C15   C     C_R   0.240673 0.474509 0.355753 0.548948
C16   C     C_R   0.757932 0.470018 0.646195 0.548729
C17   C     C_R   0.497020 0.170642 0.925264 -0.021066
C18   C     C_R   0.504533 0.158937 0.074029 0.003367
C19   C     C_R   0.997012 0.670640 0.925269 -0.020991
C20   C     C_R   0.004516 0.658937 0.074036 0.003252
C21   C     C_R   0.485470 0.278435 0.966793 0.033325
C22   C     C_R   0.482120 0.268227 0.041928 0.063457
C23   C     C_R   0.985464 0.778435 0.966798 0.033368
C24   C     C_R   0.450489 0.482925 0.051375 -0.049879
C25   C     C_R   0.982113 0.768231 0.041933 0.063441
C26   C     C_R   0.519912 0.057048 0.031507 -0.155851
C27   C     C_R   0.517511 0.063391 0.958749 -0.149568
C28   C     C_R   0.019877 0.557037 0.031516 -0.155950
C29   C     C_R   0.017489 0.563382 0.958758 -0.149588
C30   C     C_R   0.751014 0.908360 0.925926 0.009529
C31   C     C_R   0.222785 0.849181 0.062275 0.018429
C32   C     C_R   0.251013 0.408367 0.925924 0.009652
C33   C     C_R   0.722791 0.349202 0.062277 0.018714
C34   C     C_R   0.724830 0.816436 0.970710 -0.089298
C35   C     C_R   0.287449 0.827194 0.029554 -0.096705
C36   C     C_R   0.224819 0.316448 0.970705 -0.089129
C37   C     C_R   0.269676 0.375988 0.854046 0.589118
C38   C     C_R   0.787451 0.327203 0.029555 -0.096636
C39   C     C_R   0.725009 0.829839 0.043806 0.032581
C40   C     C_R   0.297590 0.852993 0.958292 0.146548
C41   C     C_R   0.224998 0.329849 0.043801 0.032624
C42   C     C_R   0.797590 0.352993 0.958292 0.146502
C43   C     C_R   0.785285 0.020906 0.029586 -0.136444
C44   C     C_R   0.175564 0.905602 0.946781 -0.130659
C45   C     C_R   0.285288 0.520900 0.029585 -0.136594
C46   C     C_R   0.675566 0.405609 0.946783 -0.130704
C47   C     C_R   0.783453 0.009485 0.956485 0.338706
C48   C     C_R   0.212226 0.831436 0.138465 0.597537
C49   C     C_R   0.165914 0.883305 0.019169 0.379465
C50   C     C_R   0.283455 0.509484 0.956484 0.338775
C51   C     C_R   0.665918 0.383323 0.019172 0.379541
C52   C     C_3   0.654275 0.756758 0.972387 -0.197040
C53   C     C_3   0.358891 0.870823 0.049399 -0.222109
C54   C     C_3   0.154257 0.256804 0.972376 -0.197069
C55   C     C_3   0.858895 0.370825 0.049396 -0.222129
C56   C     C_3   0.656132 0.768353 0.052904 0.272920
C57   C     C_3   0.369813 0.899793 0.971272 0.276311
C58   C     C_3   0.156110 0.268401 0.052893 0.272983
C59   C     C_R   0.769678 0.875984 0.854047 0.589651
C60   C     C_3   0.869814 0.399785 0.971268 0.276304
C61   C     C_R   0.752234 0.935135 0.074110 -0.067249
C62   C     C_R   0.243237 0.901105 0.917095 -0.052244
C63   C     C_R   0.252232 0.435136 0.074108 -0.067570
C64   C     C_R   0.743238 0.401106 0.917095 -0.052293
C65   C     C_R   0.531407 0.154602 0.146874 0.531543
C66   C     C_R   0.468216 0.156654 0.853396 0.527247
C67   C     C_R   0.031403 0.654603 0.146877 0.531797
C68   C     C_R   0.968216 0.656654 0.853398 0.526836
C69   C     C_R   0.484584 0.162211 0.570769 0.020815
C70   C     C_R   0.479015 0.396415 0.936723 -0.058495
C71   C     C_R   0.498245 0.169687 0.422194 0.014765
C72   C     C_R   0.983998 0.662723 0.570615 0.022638
C73   C     C_R   0.997731 0.668598 0.422116 0.017504
C74   C     C_R   0.462662 0.065302 0.528187 0.045150
C75   C     C_R   0.468009 0.068767 0.455440 0.019417
C76   C     C_R   0.965956 0.562374 0.528999 0.044736
C77   C     C_R   0.971606 0.564835 0.456187 0.021344
C78   C     C_R   0.511024 0.274810 0.463372 -0.165727
C79   C     C_R   0.504802 0.270829 0.537530 -0.174436
C80   C     C_R   0.006779 0.775819 0.462450 -0.154500
C81   C     C_R   0.459712 0.369204 0.082881 -0.025871
C82   C     C_R   0.000452 0.772628 0.536623 -0.156335
C83   C     C_3   0.481983 0.933650 0.531985 -0.265807
C84   C     C_3   0.484898 0.935338 0.451694 -0.270274
C85   C     C_3   0.992682 0.434838 0.534272 -0.268607
C86   C     C_3   0.996534 0.435051 0.454217 -0.268402
C87   C     C_R   0.761096 0.900329 0.571531 0.022874
C88   C     C_R   0.235490 0.887119 0.431436 0.018203
C89   C     C_R   0.250091 0.430650 0.579749 0.020238
C90   C     C_R   0.738989 0.399281 0.428853 0.022297
C91   C     C_R   0.820979 0.921425 0.530240 0.048963
C92   C     C_R   0.979014 0.896415 0.936727 -0.058555
C93   C     C_R   0.178655 0.933234 0.469695 0.031911
C94   C     C_R   0.297384 0.505307 0.542757 0.029107
C95   C     C_R   0.680719 0.437588 0.468090 0.035375
C96   C     C_R   0.817904 0.927686 0.457405 0.023988
C97   C     C_R   0.181014 0.943750 0.542306 0.021387
C98   C     C_R   0.295356 0.512024 0.469965 0.040691
C99   C     C_R   0.682472 0.444283 0.540919 0.020486
C100  C     C_R   0.695589 0.873195 0.462716 -0.166338
C101  C     C_R   0.292017 0.838551 0.543835 -0.153578
C102  C     C_R   0.192721 0.385653 0.467808 -0.168432
C103  C     C_R   0.959709 0.869211 0.082886 -0.025906
C104  C     C_R   0.798473 0.356316 0.540043 -0.158263
C105  C     C_R   0.698805 0.868952 0.536939 -0.174411
C106  C     C_R   0.289632 0.829036 0.469460 -0.153502
C107  C     C_R   0.193159 0.381801 0.542286 -0.171866
C108  C     C_R   0.796694 0.351194 0.465679 -0.158441
C109  C     C_3   0.873172 0.022047 0.535383 -0.267170
C110  C     C_3   0.140460 0.050621 0.459837 -0.275427
C111  C     C_3   0.376151 0.509064 0.542437 -0.267315
C112  C     C_3   0.638983 0.552003 0.460536 -0.275269
C113  C     C_R   0.741700 0.970478 0.147344 0.550091
C114  C     C_R   0.962069 0.997133 0.978830 -0.045661
C115  C     C_R   0.258093 0.967716 0.851842 0.542662
C116  C     C_R   0.241699 0.470481 0.147342 0.550816
C117  C     C_R   0.758093 0.467716 0.851842 0.542829
C118  C     C_3   0.871629 0.027121 0.455089 -0.271434
C119  C     C_3   0.142602 0.063080 0.539694 -0.270161
C120  C     C_3   0.373258 0.514610 0.462265 -0.278989
C121  C     C_3   0.639196 0.558783 0.540712 -0.268981
C122  C     C_R   0.753576 0.914357 0.422805 0.017563
C123  C     C_R   0.241446 0.909086 0.579615 0.018657
C124  C     C_R   0.246536 0.445978 0.430806 0.019768
Cr1   Cr    Cr6+3 0.772010 0.169670 0.250090 1.002177
Cr2   Cr    Cr6+3 0.383290 0.010760 0.749160 1.070980
Cr3   Cr    Cr6+3 0.116710 0.510760 0.250840 1.022580
Cr4   Cr    Cr6+3 0.883290 0.510760 0.749160 1.070847
Cr5   Cr    Cr6+3 0.227990 0.169670 0.749910 1.011235
Cr6   Cr    Cr6+3 0.272010 0.669670 0.250090 1.004342
Cr7   Cr    Cr6+3 0.727990 0.669670 0.749910 1.011963
Cr8   Cr    Cr6+3 0.615000 0.323260 0.249260 1.065946
Cr9   Cr    Cr6+3 0.385000 0.323260 0.750740 1.031143
Cr10  Cr    Cr6+3 0.115000 0.823260 0.249260 1.065823
Cr11  Cr    Cr6+3 0.885000 0.823260 0.750740 1.034925
Cr12  Cr    Cr6+3 0.616710 0.010760 0.250840 1.022437
F1    F     F_    0.814499 0.096124 0.915633 -0.610981
F2    F     F_    0.103072 0.909781 0.048603 -0.606646
F3    F     F_    0.314506 0.596120 0.915633 -0.610966
F4    F     F_    0.603076 0.409804 0.048606 -0.606604
F5    F     F_    0.663765 0.656751 0.086286 -0.584952
F6    F     F_    0.420042 0.825702 0.939870 -0.622406
F7    F     F_    0.163717 0.156797 0.086276 -0.584759
F8    F     F_    0.920038 0.325685 0.939866 -0.622425
H1    H     H_    0.535735 0.971133 0.054314 0.143184
H2    H     H_    0.050720 0.424831 0.434534 0.166944
H3    H     H_    0.439550 0.876288 0.553621 0.139566
H4    H     H_    0.537822 0.914553 0.431010 0.159526
H5    H     H_    0.534019 0.918871 0.557064 0.132649
H6    H     H_    0.442123 0.882364 0.426462 0.128928
H7    H     H_    0.044796 0.430564 0.560257 0.137571
H8    H     H_    0.958072 0.373277 0.428772 0.126944
H9    H     H_    0.646358 0.853969 0.437208 0.124760
H10   H     H_    0.335516 0.799311 0.572512 0.119377
H11   H     H_    0.152358 0.337790 0.439163 0.117161
H12   H     H_    0.528026 0.981124 0.928612 0.184709
H13   H     H_    0.844377 0.324435 0.567674 0.119270
H14   H     H_    0.652589 0.844196 0.567188 0.114270
H15   H     H_    0.330865 0.780625 0.441780 0.126364
H16   H     H_    0.152787 0.331649 0.569990 0.116802
H17   H     H_    0.840936 0.314080 0.436953 0.113802
H18   H     H_    0.924289 0.991993 0.557006 0.139813
H19   H     H_    0.086569 0.038744 0.438833 0.131642
H20   H     H_    0.400154 0.423508 0.561863 0.173365
H21   H     H_    0.585975 0.537546 0.437992 0.132717
H22   H     H_    0.850848 0.104578 0.561280 0.136550
H23   H     H_    0.035673 0.471109 0.054327 0.143181
H24   H     H_    0.172732 0.119498 0.431403 0.142308
H25   H     H_    0.396913 0.593759 0.566948 0.126297
H26   H     H_    0.669612 0.625664 0.434515 0.145919
H27   H     H_    0.850922 0.114572 0.435087 0.162313
H28   H     H_    0.176422 0.138993 0.556812 0.169392
H29   H     H_    0.393211 0.601719 0.440215 0.131687
H30   H     H_    0.668335 0.638460 0.560681 0.174046
H31   H     H_    0.921514 0.996807 0.429830 0.129056
H32   H     H_    0.089965 0.058579 0.565301 0.127740
H33   H     H_    0.394144 0.431378 0.435794 0.143163
H34   H     H_    0.027996 0.481110 0.928623 0.184721
H35   H     H_    0.586441 0.545348 0.564869 0.126385
H36   H     H_    0.490932 0.414506 0.881603 0.138894
H37   H     H_    0.450750 0.361544 0.139547 0.116224
H38   H     H_    0.990932 0.914505 0.881607 0.138734
H39   H     H_    0.950746 0.861552 0.139553 0.116414
H40   H     H_    0.957761 0.086582 0.954979 0.206847
H41   H     H_    0.936062 0.060856 0.083660 0.116175
H42   H     H_    0.457756 0.586578 0.954976 0.206868
H43   H     H_    0.436061 0.560847 0.083657 0.116130
H44   H     H_    0.810396 0.100487 0.051227 0.163231
H45   H     H_    0.531637 0.356216 0.439065 0.137491
H46   H     H_    0.131643 0.940066 0.916331 0.145098
H47   H     H_    0.310403 0.600475 0.051227 0.163153
H48   H     H_    0.631643 0.440071 0.916332 0.145114
H49   H     H_    0.156475 0.161116 0.953390 0.192846
H50   H     H_    0.892939 0.295626 0.069029 0.165047
H51   H     H_    0.656508 0.661071 0.953400 0.192813
H52   H     H_    0.392938 0.795625 0.069031 0.165019
H53   H     H_    0.612868 0.813627 0.947264 0.096692
H54   H     H_    0.357390 0.953420 0.083708 0.114480
H55   H     H_    0.112862 0.313692 0.947249 0.096629
H56   H     H_    0.517705 0.350581 0.568711 0.120545
H57   H     H_    0.857399 0.453425 0.083702 0.114356
H58   H     H_    0.614607 0.826621 0.076412 0.124639
H59   H     H_    0.375613 0.998495 0.959459 0.112704
H60   H     H_    0.114596 0.326694 0.076397 0.124603
H61   H     H_    0.875616 0.498484 0.959450 0.112702
H62   H     H_    0.025315 0.858473 0.437675 0.129094
H63   H     H_    0.011815 0.853412 0.567422 0.117865
H64   H     H_    0.954016 0.369891 0.555894 0.136341
O1    O     O_R   0.787520 0.042810 0.170440 -0.542074
O2    O     O_R   0.454050 0.051210 0.669140 -0.517792
O3    O     O_R   0.045950 0.551210 0.330860 -0.523058
O4    O     O_R   0.954050 0.551210 0.669140 -0.519003
O5    O     O_R   0.681390 0.959480 0.325510 -0.502752
O6    O     O_R   0.318610 0.959480 0.674490 -0.502915
O7    O     O_R   0.181390 0.459480 0.325510 -0.502135
O8    O     O_R   0.818610 0.459480 0.674490 -0.503551
O9    O     O_3   0.667900 0.167900 0.250060 -0.280962
O10   O     O_3   0.332100 0.167900 0.749940 -0.262725
O11   O     O_3   0.167900 0.667900 0.250060 -0.283471
O12   O     O_R   0.212480 0.042810 0.829560 -0.536572
O13   O     O_3   0.832100 0.667900 0.749940 -0.264376
O14   O     O_R   0.765640 0.292100 0.175020 -0.525360
O15   O     O_R   0.234360 0.292100 0.824980 -0.516650
O16   O     O_R   0.265640 0.792100 0.175020 -0.524659
O17   O     O_R   0.734360 0.792100 0.824980 -0.516222
O18   O     O_R   0.670190 0.408840 0.168540 -0.388965
O19   O     O_R   0.329810 0.408840 0.831460 -0.450805
O20   O     O_R   0.170190 0.908840 0.168540 -0.388164
O21   O     O_R   0.829810 0.908840 0.831460 -0.451062
O22   O     O_R   0.556620 0.251410 0.175160 -0.486905
O23   O     O_R   0.287520 0.542810 0.170440 -0.541983
O24   O     O_R   0.443380 0.251410 0.824840 -0.523705
O25   O     O_R   0.056620 0.751410 0.175160 -0.486738
O26   O     O_R   0.943380 0.751410 0.824840 -0.524409
O27   O     O_R   0.545960 0.049620 0.170320 -0.532720
O28   O     O_R   0.454040 0.049620 0.829680 -0.484147
O29   O     O_R   0.045960 0.549620 0.170320 -0.532523
O30   O     O_R   0.954040 0.549620 0.829680 -0.484266
O31   O     O_R   0.681390 0.958010 0.176690 -0.491788
O32   O     O_R   0.318610 0.958010 0.823310 -0.456931
O33   O     O_R   0.181390 0.458010 0.176690 -0.490941
O34   O     O_R   0.712480 0.542810 0.829560 -0.536508
O35   O     O_R   0.818610 0.458010 0.823310 -0.456813
O36   O     O_R   0.787510 0.044390 0.330970 -0.523828
O37   O     O_R   0.212490 0.044390 0.669030 -0.525358
O38   O     O_R   0.287510 0.544390 0.330970 -0.518519
O39   O     O_R   0.712490 0.544390 0.669030 -0.526043
O40   O     O_R   0.765630 0.293570 0.323840 -0.505777
O41   O     O_R   0.234370 0.293570 0.676160 -0.510892
O42   O     O_R   0.265630 0.793570 0.323840 -0.505421
O43   O     O_R   0.734370 0.793570 0.676160 -0.510978
O44   O     O_R   0.670190 0.410420 0.329080 -0.515322
O45   O     O_R   0.556610 0.252880 0.323980 -0.516472
O46   O     O_R   0.329810 0.410420 0.670920 -0.520103
O47   O     O_R   0.170190 0.910420 0.329080 -0.515114
O48   O     O_R   0.829810 0.910420 0.670920 -0.513860
O49   O     O_R   0.443390 0.252880 0.676020 -0.514006
O50   O     O_R   0.056610 0.752880 0.323980 -0.516673
O51   O     O_R   0.943390 0.752880 0.676020 -0.509282
O52   O     O_R   0.545950 0.051210 0.330860 -0.522492

loop_
_geom_bond_atom_site_label_1
_geom_bond_atom_site_label_2
_ccdc_geom_bond_type
C3    C104  A    
C100  H9    S    
C80   H62   S    
C84   H6    S    
C8    O52   A    
C87   C91   A    
C7    O48   A    
C35   C53   S    
C2    C114  A    
C8    O45   A    
C20   C67   S    
C18   C26   A    
C81   H37   S    
C104  H13   S    
C72   C76   A    
Cr2   O32   S    
C107  H16   S    
Cr6   O38   S    
C1    C33   S    
C90   C95   A    
C121  H35   S    
Cr5   O37   S    
Cr1   O14   S    
C68   O26   A    
C18   C65   S    
C98   C124  A    
C52   H51   S    
Cr8   O44   S    
C100  C105  A    
C101  C123  A    
C65   O22   A    
C24   H43   S    
C103  H39   S    
C53   H54   S    
C101  H10   S    
C96   C118  S    
C28   C29   A    
C9    C69   S    
C41   C58   S    
C38   C42   A    
Cr5   O12   S    
C9    O49   A    
C95   C112  S    
C115  O32   A    
C11   O4    A    
C10   C73   S    
C95   C99   A    
C75   C84   S    
C56   H58   S    
C20   C25   A    
C94   C98   A    
Cr4   O30   S    
Cr10  O11   S    
C55   H57   S    
Cr12  O27   S    
C66   O24   A    
C94   C111  S    
C101  C106  A    
C40   C62   A    
C14   O6    A    
Cr1   O36   S    
Cr8   O9    S    
C73   C80   A    
C89   C94   A    
C16   O8    A    
Cr8   O18   S    
C4    O40   A    
Cr2   O6    S    
C28   H23   S    
C44   H46   S    
C91   C96   A    
C88   C93   A    
C52   C56   S    
C110  H24   S    
C58   F7    S    
C45   H47   S    
Cr1   O40   S    
C7    C87   S    
C38   C55   S    
C83   C84   S    
C12   O36   A    
Cr3   O33   S    
C118  H31   S    
Cr12  O52   S    
C106  H15   S    
C10   O50   A    
C7    O43   A    
C14   C123  S    
Cr11  O48   S    
Cr2   O28   S    
C74   C83   S    
Cr8   O22   S    
Cr1   O9    S    
Cr5   O15   S    
C119  H28   S    
C99   C121  S    
C14   O37   A    
Cr6   O23   S    
C51   F4    S    
Cr9   O49   S    
C110  C119  S    
C58   H60   S    
C54   H49   S    
C55   C60   S    
C118  H27   S    
C89   C107  A    
C36   C41   A    
C78   H45   S    
C12   O5    A    
C31   C49   A    
C102  C124  A    
C86   H2    S    
C82   H63   S    
Cr7   O43   S    
C109  C118  S    
C4    C90   S    
C84   H4    S    
C5    C89   S    
C39   C61   A    
Cr5   O41   S    
C74   C75   A    
C30   C34   A    
Cr3   O11   S    
C34   C39   A    
C17   C27   A    
C22   C81   A    
C5    O41   A    
C30   C47   A    
C13   H42   S    
C63   C116  S    
C76   C77   A    
C4    O44   A    
C15   O7    A    
Cr2   O2    S    
C42   C60   S    
C6    O42   A    
C11   C72   S    
C25   C103  A    
Cr12  O9    S    
C20   C28   A    
C44   C62   A    
C85   C86   S    
C46   C51   A    
C67   O29   A    
C44   C49   A    
C17   C21   A    
C64   C117  S    
C13   C24   A    
C66   O28   A    
C111  C120  S    
C111  H25   S    
Cr10  O20   S    
C5    O46   A    
C97   C119  S    
C26   H1    S    
C19   C23   A    
C24   C81   A    
C85   H7    S    
C19   C68   S    
Cr5   O10   S    
C86   H8    S    
C119  H32   S    
C88   C106  A    
Cr7   O17   S    
Cr11  O21   S    
C121  H30   S    
C87   C105  A    
C15   O38   A    
C37   O19   A    
C9    O2    A    
Cr10  O50   S    
C30   C59   S    
C57   H59   S    
C109  H18   S    
C26   C27   A    
Cr11  O26   S    
C59   O17   A    
C69   C74   A    
Cr7   O13   S    
C39   C56   S    
C32   C37   S    
C92   H38   S    
C47   F1    S    
C32   C50   A    
C1    O18   A    
C117  O34   A    
Cr7   O39   S    
Cr8   O45   S    
Cr4   O8    S    
C83   H3    S    
C56   F5    S    
C117  O35   A    
C80   C82   A    
C15   C124  S    
C77   C86   S    
Cr3   O29   S    
C37   O15   A    
C29   H34   S    
C116  O23   A    
C61   C113  S    
C31   C35   A    
C115  O12   A    
C69   C79   A    
C102  C107  A    
C41   C63   A    
Cr6   O42   S    
C83   H5    S    
C59   O21   A    
C93   C97   A    
C104  C108  A    
C43   C61   A    
Cr12  O5    S    
C54   C58   S    
C16   O39   A    
Cr3   O3    S    
C27   H12   S    
C53   H52   S    
C3    C99   A    
C116  O33   A    
C67   O25   A    
Cr11  O13   S    
Cr1   O1    S    
C79   H56   S    
C112  C121  S    
C57   F6    S    
C18   C22   A    
Cr11  O51   S    
C65   O27   A    
C10   O3    A    
C111  H20   S    
Cr9   O19   S    
C46   H48   S    
C40   C57   S    
Cr7   O34   S    
C53   C57   S    
Cr4   O13   S    
Cr10  O47   S    
C42   C64   A    
C110  H19   S    
C32   C36   A    
C120  H33   S    
C98   C120  S    
C52   H53   S    
C33   C51   A    
C48   O16   A    
C108  H17   S    
C93   C110  S    
C34   C52   S    
Cr9   O10   S    
C96   C122  A    
C21   C70   A    
C31   C48   S    
C112  H26   S    
C21   C22   A    
C91   C109  S    
Cr6   O16   S    
C35   C40   A    
C2    H41   S    
C113  O1    A    
C62   C115  S    
C97   C123  A    
C105  H14   S    
C6    C88   S    
C60   F8    S    
C71   C75   A    
C78   C79   A    
C70   H36   S    
Cr9   O46   S    
C43   C47   A    
C43   H44   S    
C48   O20   A    
C112  H21   S    
C76   C85   S    
Cr10  O25   S    
C45   C63   A    
C6    O47   A    
C100  C122  A    
C23   C25   A    
C17   C66   S    
Cr6   O11   S    
C60   H61   S    
C114  H40   S    
C2    C103  A    
Cr9   O24   S    
C36   C54   S    
C109  H22   S    
C54   H55   S    
C90   C108  A    
Cr3   O7    S    
Cr4   O4    S    
C120  H29   S    
C113  O31   A    
C55   H50   S    
C12   C122  S    
C13   C70   A    
Cr12  O31   S    
C46   C64   A    
Cr4   O35   S    
C73   C77   A    
C23   C92   A    
C1    O14   A    
C33   C38   A    
C68   O30   A    
C45   C50   A    
C50   F3    S    
C49   F2    S    
C92   C114  A    
C102  H11   S    
C71   C78   A    
C72   C82   A    
C3    C16   S    
Cr2   O10   S    
C85   H64   S    
C11   O51   A    
C8    C71   S    
C19   C29   A    
