data_mof_unit_35157.cif
_audit_creation_date              2012-12-10T17:15:56-0500
_audit_creation_method            fapswitch 2.2
_symmetry_space_group_name_H-M    P1
_symmetry_Int_Tables_number       1
_space_group_crystal_system       triclinic
_cell_length_a                    10.109127
_cell_length_b                    10.711952
_cell_length_c                    10.750705
_cell_angle_alpha                 91.059799
_cell_angle_beta                  94.551764
_cell_angle_gamma                 82.368994
_cell_volume                      1150.19082102

loop_
_atom_site_label
_atom_site_type_symbol
_atom_type_description
_atom_site_fract_x
_atom_site_fract_y
_atom_site_fract_z
_atom_type_partial_charge
C1    C     C_R   0.444568 0.504165 0.266450 0.873682
C2    C     C_2   0.486086 0.433232 0.929250 -0.249989
C3    C     C_2   0.075865 0.489321 0.485307 0.481829
C4    C     C_R   0.495873 0.258740 0.490753 0.951957
C5    C     C_2   0.933532 0.495486 0.518664 -0.275081
C6    C     C_R   0.555159 0.489281 0.733274 0.796018
C7    C     C_R   0.506891 0.737516 0.520482 0.906565
C8    C     C_R   0.706561 0.074095 0.380338 0.507679
C9    C     C_R   0.832807 0.000206 0.381909 -0.266638
C10   C     C_R   0.861115 0.894199 0.456440 -0.184830
C11   C     C_R   0.759820 0.853746 0.518968 -0.093590
C12   C     C_R   0.608657 0.041201 0.457821 0.029665
C13   C     C_R   0.629270 0.920844 0.509095 -0.032411
C14   C     C_3   0.243878 0.150868 0.541237 -0.294697
C15   C     C_3   0.120456 0.081888 0.535520 -0.890058
C16   C     C_R   0.490742 0.122286 0.485170 -0.248929
C17   C     C_R   0.381591 0.072404 0.535373 0.042902
C18   C     C_R   0.402007 0.947581 0.574513 0.444345
C19   C     C_R   0.517674 0.869655 0.545518 -0.223408
C20   C     C_2   0.413681 0.494498 0.131768 0.188140
C21   C     C_2   0.501687 0.423155 0.063845 0.495295
C22   C     C_2   0.584177 0.468331 0.866392 0.248542
H1    H     H_    0.904630 0.544360 0.603617 0.144056
H2    H     H_    0.029916 0.149684 0.509185 0.243518
H3    H     H_    0.243254 0.213310 0.624966 0.228458
H4    H     H_    0.227236 0.207542 0.455350 0.242924
H5    H     H_    0.251010 0.613001 0.136929 0.354793
H6    H     H_    0.067319 0.354042 0.362642 0.301122
H7    H     H_    0.754172 0.181811 0.252548 0.341268
H8    H     H_    0.252583 0.862401 0.604641 0.346285
H9    H     H_    0.656966 0.296231 0.055192 0.359005
H10   H     H_    0.762500 0.517061 0.866304 0.341113
H11   H     H_    0.865270 0.412914 0.362764 0.200152
H12   H     H_    0.121326 0.602648 0.626245 0.115208
H13   H     H_    0.909184 0.024877 0.325217 0.140789
H14   H     H_    0.959737 0.840055 0.461284 0.151754
H15   H     H_    0.784204 0.769953 0.575251 0.151775
H16   H     H_    0.388445 0.421729 0.883613 0.166730
H17   H     H_    0.127885 0.005893 0.463795 0.249265
H18   H     H_    0.105597 0.044610 0.628248 0.297589
N1    N     N_2   0.157290 0.551390 0.551110 -0.201938
N2    N     N_2   0.842740 0.448550 0.448960 -0.180940
O1    O     O_R   0.568950 0.489660 0.307530 -0.539647
O2    O     O_3   0.124366 0.420114 0.385252 -0.724187
O3    O     O_3   0.673627 0.170550 0.295950 -0.724706
O4    O     O_3   0.319133 0.905424 0.655571 -0.741186
O5    O     O_3   0.611750 0.349168 0.120089 -0.719263
O6    O     O_3   0.706280 0.485896 0.927298 -0.736927
O7    O     O_R   0.348880 0.522640 0.340350 -0.566580
O8    O     O_R   0.610060 0.300270 0.483590 -0.561504
O9    O     O_R   0.389990 0.333260 0.516410 -0.622998
O10   O     O_R   0.651120 0.477360 0.659650 -0.626509
O11   O     O_R   0.431050 0.510340 0.692470 -0.614985
O12   O     O_R   0.610010 0.666740 0.483590 -0.616667
O13   O     O_R   0.389940 0.699730 0.516410 -0.617461
O14   O     O_3   0.299729 0.561413 0.073340 -0.780228
Zn1   Zn    Zn3+2 0.646940 0.477980 0.478090 1.002125
Zn2   Zn    Zn3+2 0.353060 0.522020 0.521910 0.990809

loop_
_geom_bond_atom_site_label_1
_geom_bond_atom_site_label_2
_ccdc_geom_bond_type
C2    C22   D    
C22   O6    S    
O11   Zn2   S    
C4    C16   S    
C8    C12   A    
C11   C13   A    
C9    C10   A    
C2    H16   S    
H8    O4    S    
C5    H1    S    
C7    O13   A    
C20   O14   S    
C20   C21   D    
C2    C21   S    
C17   C18   A    
O9    Zn2   S    
H9    O5    S    
C14   H4    S    
H10   O6    S    
C14   C17   S    
C15   H17   S    
C16   C17   A    
H12   N1    S    
H11   N2    S    
C18   O4    S    
N2    Zn1   S    
C15   H2    S    
H6    O2    S    
N1    Zn2   S    
C7    C19   S    
C14   H3    S    
C14   C15   S    
C3    O2    S    
C15   H18   S    
O10   Zn1   S    
O1    Zn1   S    
C4    O9    A    
C6    C22   S    
C3    C5    S    
C12   C13   A    
C5    N2    D    
C11   H15   S    
C18   C19   A    
C10   C11   A    
O13   Zn2   S    
C4    O8    A    
C9    H13   S    
C13   C19   A    
H5    O14   S    
C3    N1    D    
C1    C20   S    
C10   H14   S    
C6    O11   A    
C7    O12   A    
C6    O10   A    
C8    O3    S    
O8    Zn1   S    
C1    O7    A    
C1    O1    A    
O7    Zn2   S    
C12   C16   A    
H7    O3    S    
C8    C9    A    
C21   O5    S    
O12   Zn1   S    
