data_mof_unit_65325.cif
_audit_creation_date              2012-12-10T16:56:01-0500
_audit_creation_method            fapswitch 2.2
_symmetry_space_group_name_H-M    P1
_symmetry_Int_Tables_number       1
_space_group_crystal_system       triclinic
_cell_length_a                    18.57271
_cell_length_b                    18.874588
_cell_length_c                    19.316519
_cell_angle_alpha                 110.334021
_cell_angle_beta                  110.025684
_cell_angle_gamma                 108.939041
_cell_volume                      5154.31119274

loop_
_atom_site_label
_atom_site_type_symbol
_atom_type_description
_atom_site_fract_x
_atom_site_fract_y
_atom_site_fract_z
_atom_type_partial_charge
C1    C     C_R   0.377409 0.380242 0.495616 0.849181
C2    C     C_3   0.803356 0.494513 0.809095 -0.216008
C3    C     C_3   0.843291 0.577965 0.804133 -0.404324
C4    C     C_3   0.725663 0.493107 0.828025 0.395187
C5    C     C_R   0.245089 0.201483 0.336723 -0.080936
C6    C     C_R   0.189606 0.115959 0.266902 -0.087006
C7    C     C_R   0.135601 0.051497 0.274009 -0.079682
C8    C     C_R   0.135065 0.072717 0.350278 -0.092379
C9    C     C_R   0.190386 0.159164 0.422079 0.059100
C10   C     C_R   0.249101 0.224442 0.416676 0.101488
C11   C     C_R   0.307129 0.310553 0.490551 -0.136926
C12   C     C_R   0.616231 0.496736 0.618603 0.871091
C13   C     C_R   0.300530 0.330966 0.564023 -0.128743
C14   C     C_R   0.240541 0.268439 0.567799 0.248914
C15   C     C_R   0.186926 0.182022 0.498394 -0.122672
C16   C     C_R   0.431890 0.648342 0.358975 -0.146376
C17   C     C_R   0.457308 0.722146 0.351861 -0.108499
C18   C     C_R   0.394376 0.729550 0.295071 -0.079693
C19   C     C_R   0.305986 0.662585 0.244004 -0.107700
C20   C     C_R   0.278326 0.585032 0.247325 0.085269
C21   C     C_R   0.342734 0.579359 0.307874 0.057861
C22   C     C_R   0.316662 0.505546 0.317052 -0.137000
C23   C     C_R   0.621077 0.619094 0.502295 0.744097
C24   C     C_R   0.227522 0.440294 0.270025 0.239512
C25   C     C_R   0.164914 0.445222 0.210536 -0.130954
C26   C     C_R   0.188744 0.514191 0.194966 -0.154049
C27   C     C_R   0.813335 0.718922 0.634679 -0.233425
C28   C     C_R   0.900723 0.776586 0.704807 0.278121
C29   C     C_R   0.944525 0.863035 0.724764 0.260395
C30   C     C_R   0.907080 0.886005 0.665926 0.186657
C31   C     C_R   0.831752 0.820129 0.583952 -0.014781
C32   C     C_R   0.776625 0.741918 0.575108 0.013107
C33   C     C_R   0.689232 0.686846 0.503698 -0.023623
C34   C     C_R   0.380595 0.500311 0.381419 0.813488
C35   C     C_R   0.664788 0.700775 0.434703 -0.176665
C36   C     C_R   0.725966 0.768967 0.436682 -0.152153
C37   C     C_R   0.810696 0.827920 0.510178 -0.057321
C38   C     C_R   0.000467 0.380788 0.882447 0.866410
C39   C     C_R   0.876365 0.499726 0.878976 0.879004
C40   C     C_R   0.995520 0.619272 0.114540 0.821258
C41   C     C_R   0.118166 0.506865 0.122229 0.834626
C42   C     C_R   0.002617 0.122548 0.618104 0.850542
C43   C     C_R   0.119468 0.118882 0.501145 0.813672
C44   C     C_R   0.001323 0.881719 0.382750 0.801779
C45   C     C_3   0.695094 0.413594 0.647054 0.088059
C46   C     C_R   0.880119 0.886583 0.504026 0.806916
C47   C     C_R   0.135837 0.325580 0.924018 0.227153
C48   C     C_R   0.216111 0.327396 0.942942 -0.109673
C49   C     C_R   0.231674 0.293299 0.877073 -0.122534
C50   C     C_R   0.164024 0.250247 0.791928 -0.061235
C51   C     C_R   0.081463 0.246851 0.771008 0.051487
C52   C     C_R   0.073506 0.296738 0.838985 0.041824
C53   C     C_R   0.001479 0.311819 0.818961 -0.123702
C54   C     C_R   0.930824 0.264629 0.734917 -0.147118
C55   C     C_R   0.930302 0.203419 0.669001 0.290307
C56   C     C_3   0.766339 0.412835 0.719158 0.352029
C57   C     C_R   0.006030 0.193764 0.685621 -0.143611
C58   C     C_R   0.831156 0.595620 0.118521 -0.172202
C59   C     C_R   0.755827 0.579209 0.125636 0.308891
C60   C     C_R   0.761794 0.638626 0.197853 0.266940
C61   C     C_R   0.842326 0.715007 0.261138 -0.216899
C62   C     C_R   0.919060 0.733430 0.254334 0.014266
C63   C     C_R   0.915167 0.671075 0.184161 0.012243
C64   C     C_R   0.994901 0.686359 0.182051 -0.171486
C65   C     C_R   0.076230 0.763734 0.249561 0.225382
C66   C     C_R   0.078150 0.826651 0.316312 0.198150
C67   C     C_3   0.771832 0.578765 0.735305 0.016072
C68   C     C_R   0.999668 0.812382 0.317327 -0.170601
C69   C     C_3   0.652638 0.489223 0.752995 0.096076
C70   C     C_3   0.681132 0.492988 0.686616 -0.239009
Cu1   Cu    Cu3+1 0.500370 0.438230 0.438530 1.059794
Cu2   Cu    Cu3+1 0.499630 0.561770 0.561470 1.083421
Cu3   Cu    Cu3+1 0.935490 0.438240 0.997340 1.112568
Cu4   Cu    Cu3+1 0.059110 0.561770 0.997270 1.075626
Cu5   Cu    Cu3+1 0.062130 0.000010 0.562160 1.094688
Cu6   Cu    Cu3+1 0.937870 0.000010 0.437860 1.069658
H1    H     H_    0.187955 0.099849 0.206633 0.174114
H2    H     H_    0.092740 0.985056 0.219729 0.167633
H3    H     H_    0.090692 0.020586 0.352111 0.145521
H4    H     H_    0.482575 0.646374 0.405634 0.125348
H5    H     H_    0.525842 0.774438 0.391660 0.162713
H6    H     H_    0.599198 0.657031 0.377933 0.160419
H7    H     H_    0.776712 0.654283 0.622601 0.156734
H8    H     H_    0.264198 0.350136 0.008122 0.183354
H9    H     H_    0.821071 0.548546 0.059844 0.219760
H10   H     H_    0.646985 0.547954 0.780955 0.213456
O1    O     O_R   0.410120 0.357660 0.448080 -0.580482
O2    O     O_R   0.049970 0.461970 0.907590 -0.562482
O3    O     O_R   0.854450 0.447860 0.906670 -0.535167
O4    O     O_R   0.958850 0.552170 0.906610 -0.567908
O5    O     O_R   0.944630 0.538040 0.087020 -0.602367
O6    O     O_R   0.049030 0.642360 0.086960 -0.546447
O7    O     O_R   0.035750 0.447840 0.088000 -0.560145
O8    O     O_R   0.140150 0.552150 0.087940 -0.599998
O9    O     O_R   0.051920 0.090140 0.642160 -0.573284
O10   O     O_R   0.946980 0.090140 0.537200 -0.536850
O11   O     O_R   0.142650 0.090190 0.552500 -0.545270
O12   O     O_R   0.409500 0.461990 0.551900 -0.573682
O13   O     O_R   0.037720 0.090180 0.447540 -0.583853
O14   O     O_R   0.053020 0.909880 0.462820 -0.541133
O15   O     O_R   0.948080 0.909870 0.357860 -0.591828
O16   O     O_R   0.962280 0.909830 0.552480 -0.564451
O17   O     O_R   0.857350 0.909830 0.447520 -0.583287
O18   O     O_R   0.590960 0.447820 0.538760 -0.568326
O19   O     O_R   0.590340 0.552160 0.642570 -0.541852
O20   O     O_R   0.590500 0.538010 0.448100 -0.575421
O21   O     O_R   0.589880 0.642340 0.551920 -0.560947
O22   O     O_R   0.409660 0.447840 0.357430 -0.568416
O23   O     O_R   0.409040 0.552180 0.461240 -0.575611
O24   O     O_R   0.945580 0.357650 0.907650 -0.533956
H11   H     H_    0.721497 0.424843 0.605841 0.161409
Br1   Br    Br    0.772604 0.600664 0.935106 -0.469486
Br2   Br    Br    0.769867 0.687562 0.788974 -0.395143
H12   H     H_    0.877421 0.638150 0.867799 0.268009
H13   H     H_    0.342571 0.396660 0.619765 0.214464
H14   H     H_    0.281454 0.248526 0.324789 0.186980
Br3   Br    Br    0.230291 0.308081 0.667423 -0.493493
Br4   Br    Br    0.186796 0.343615 0.286582 -0.501499
Br5   Br    Br    0.585107 0.299591 0.562102 -0.272852
H15   H     H_    0.413899 0.788068 0.291232 0.175747
H16   H     H_    0.260905 0.675307 0.205029 0.198206
H17   H     H_    0.096801 0.392512 0.174371 0.222779
Br6   Br    Br    0.961194 0.737050 0.770800 -0.405434
Br7   Br    Br    0.055290 0.949169 0.831136 -0.295456
Br8   Br    Br    0.941624 0.006650 0.706363 -0.404291
Br9   Br    Br    0.724366 0.301604 0.716932 -0.281509
H18   H     H_    0.707600 0.774435 0.379977 0.194575
H19   H     H_    0.874260 0.274082 0.720746 0.220679
Br10  Br    Br    0.099938 0.324125 0.004899 -0.472968
H20   H     H_    0.293875 0.294386 0.891641 0.190007
H21   H     H_    0.178526 0.220668 0.743897 0.197394
Br11  Br    Br    0.820921 0.134516 0.559810 -0.349538
Br12  Br    Br    0.188154 0.784371 0.256323 -0.432646
Br13  Br    Br    0.645756 0.473964 0.035925 -0.293222
Br14  Br    Br    0.861287 0.417609 0.693877 -0.468290
Br15  Br    Br    0.661228 0.618422 0.212214 -0.451267
H22   H     H_    0.844164 0.758863 0.316431 0.167807
Br16  Br    Br    0.189489 0.933056 0.407164 -0.381204
H23   H     H_    0.791957 0.580770 0.687925 0.155786
H24   H     H_    0.896570 0.582084 0.789127 0.249880
Br17  Br    Br    0.529450 0.397257 0.699216 -0.338703
Br18  Br    Br    0.673809 0.402005 0.851929 -0.245934

loop_
_geom_bond_atom_site_label_1
_geom_bond_atom_site_label_2
_ccdc_geom_bond_type
C1    O1    A    
C66   C68   A    
Cu1   O18   S    
C16   C21   A    
C11   C13   A    
Cu3   Cu4   S    
Cu4   O8    S    
C35   C36   A    
C1    C11   S    
Cu3   O7    S    
C12   O19   A    
C28   Br6   S    
Cu5   O9    S    
C7    C8    A    
Cu2   O12   S    
C53   C54   A    
Cu6   O13   S    
C46   O16   A    
C62   C63   A    
C47   Br10  S    
C42   O10   A    
C28   C29   A    
C43   O13   A    
C12   O18   A    
C4    Br18  S    
C30   C31   A    
C69   Br17  S    
C29   Br7   S    
Cu5   O11   S    
C18   C19   A    
Cu4   O6    S    
Cu2   O23   S    
C2    C39   S    
C41   O7    A    
C47   C48   A    
C45   C56   S    
C8    C9    A    
C23   C33   S    
Cu5   O16   S    
C51   C57   A    
C56   Br9   S    
C38   O24   A    
C67   H23   S    
C25   H17   S    
C60   Br15  S    
C39   O4    A    
C45   Br5   S    
Cu6   O17   S    
C4    Br1   S    
C30   Br8   S    
C59   C60   A    
C21   C22   A    
C69   C70   S    
C42   C57   S    
C4    C69   S    
C35   H6    S    
C17   C18   A    
C22   C34   S    
C51   C52   A    
C43   O11   A    
Cu3   O24   S    
C24   C25   A    
Cu3   O5    S    
C67   Br2   S    
C16   C17   A    
C6    H1    S    
C58   C59   A    
C23   O20   A    
C54   H19   S    
C31   C37   A    
C38   O2    A    
C60   C61   A    
C16   H4    S    
C47   C52   A    
C2    C4    S    
Cu5   Cu6   S    
C29   C30   A    
C8    H3    S    
C41   O8    A    
C66   Br16  S    
Cu2   O21   S    
C14   Br3   S    
C23   O21   A    
C20   C21   A    
C50   C51   A    
C40   O6    A    
C13   H13   S    
C7    H2    S    
Cu1   O1    S    
C48   C49   A    
C42   O9    A    
C55   Br11  S    
C55   C57   A    
C5    H14   S    
C22   C24   A    
C44   C68   S    
C36   H18   S    
C58   H9    S    
C18   H15   S    
C56   Br14  S    
C52   C53   A    
C46   O17   A    
Cu6   O15   S    
C12   C70   S    
C54   C55   A    
C19   H16   S    
C45   C70   S    
C31   C32   A    
C3    C67   S    
C58   C63   A    
C3    H12   S    
C1    O12   A    
C44   O15   A    
C45   H11   S    
C6    C7    A    
C49   H20   S    
C59   Br13  S    
C24   Br4   S    
C40   C64   S    
C62   C68   A    
C67   C70   S    
C34   O22   A    
C32   C33   A    
Cu4   O4    S    
C19   C20   A    
C27   H7    S    
C2    C3    S    
C25   C26   A    
Cu3   O3    S    
Cu1   Cu2   S    
C2    C56   S    
Cu6   O10   S    
C44   O14   A    
C61   H22   S    
C5    C6    A    
C38   C53   S    
C20   C26   A    
C50   H21   S    
C64   C65   A    
Cu5   O14   S    
C33   C35   A    
C9    C10   A    
C17   H5    S    
C65   C66   A    
C40   O5    A    
C9    C15   A    
C61   C62   A    
C10   C11   A    
C27   C32   A    
C15   C43   S    
C63   C64   A    
C48   H8    S    
C5    C10   A    
Cu2   O19   S    
C36   C37   A    
C49   C50   A    
Cu1   O20   S    
C27   C28   A    
C34   O23   A    
C14   C15   A    
C3    H24   S    
Cu4   O2    S    
C37   C46   S    
C13   C14   A    
C39   O3    A    
C65   Br12  S    
C69   H10   S    
C26   C41   S    
Cu1   O22   S    
