data_mof_unit_63160.cif
_audit_creation_date              2012-12-10T20:17:50-0500
_audit_creation_method            fapswitch 2.2
_symmetry_space_group_name_H-M    P1
_symmetry_Int_Tables_number       1
_space_group_crystal_system       triclinic
_cell_length_a                    25.651383
_cell_length_b                    25.631488
_cell_length_c                    34.656189
_cell_angle_alpha                 90.009766
_cell_angle_beta                  89.951852
_cell_angle_gamma                 90.001403
_cell_volume                      22785.8507336

loop_
_atom_site_label
_atom_site_type_symbol
_atom_type_description
_atom_site_fract_x
_atom_site_fract_y
_atom_site_fract_z
_atom_type_partial_charge
Br1   Br    Br    0.690341 0.782345 0.667724 -0.320986
Br2   Br    Br    0.304710 0.787703 0.667223 -0.374669
Br3   Br    Br    0.208843 0.301362 0.333347 -0.335154
Br4   Br    Br    0.782819 0.690222 0.667754 -0.349816
Br5   Br    Br    0.307354 0.784776 0.332397 -0.325979
Br6   Br    Br    0.696386 0.211367 0.667149 -0.368086
Br7   Br    Br    0.788887 0.696691 0.333158 -0.342813
Br8   Br    Br    0.225854 0.318097 0.669791 -0.300810
Br9   Br    Br    0.198243 0.290447 0.167008 -0.372671
Br10  Br    Br    0.809994 0.717927 0.831967 -0.322114
Br11  Br    Br    0.714902 0.192756 0.167323 -0.340871
Br12  Br    Br    0.301332 0.209202 0.333356 -0.366866
Br13  Br    Br    0.288080 0.804187 0.833058 -0.343252
Br14  Br    Br    0.803808 0.711313 0.167145 -0.371715
Br15  Br    Br    0.181672 0.274027 0.830015 -0.318756
Br16  Br    Br    0.285500 0.807043 0.167297 -0.341268
Br17  Br    Br    0.710777 0.196757 0.833169 -0.344226
Br18  Br    Br    0.195684 0.711941 0.833044 -0.367392
Br19  Br    Br    0.807350 0.284912 0.167322 -0.320371
Br20  Br    Br    0.717646 0.810110 0.831924 -0.330478
Br21  Br    Br    0.290606 0.198246 0.167018 -0.335181
Br22  Br    Br    0.803216 0.288964 0.833175 -0.367169
Br23  Br    Br    0.212453 0.695369 0.667221 -0.376613
Br24  Br    Br    0.193011 0.714925 0.167273 -0.320600
Br25  Br    Br    0.273954 0.181771 0.830015 -0.326206
Br26  Br    Br    0.711516 0.803591 0.167118 -0.333749
Br27  Br    Br    0.134479 0.405894 0.545525 -0.265080
Br28  Br    Br    0.841551 0.534048 0.452377 -0.245257
Br29  Br    Br    0.510018 0.837878 0.546246 -0.258619
Br30  Br    Br    0.506930 0.162303 0.453738 -0.255518
Br31  Br    Br    0.839225 0.528207 0.545332 -0.244262
Br32  Br    Br    0.149231 0.431704 0.454760 -0.260347
Br33  Br    Br    0.489976 0.162112 0.546312 -0.254584
Br34  Br    Br    0.784615 0.307600 0.332361 -0.329020
Br35  Br    Br    0.493065 0.837703 0.453693 -0.258798
Br36  Br    Br    0.343196 0.959095 0.046596 -0.246530
Br37  Br    Br    0.656806 0.040897 0.953405 -0.246114
Br38  Br    Br    0.012589 0.661910 0.046293 -0.256131
Br39  Br    Br    0.004373 0.337596 0.953683 -0.254401
Br40  Br    Br    0.656854 0.040836 0.046353 -0.246371
Br41  Br    Br    0.343145 0.959173 0.953647 -0.245612
Br42  Br    Br    0.987414 0.338083 0.046256 -0.256269
Br43  Br    Br    0.995630 0.662414 0.953743 -0.254933
Br44  Br    Br    0.318193 0.225863 0.669805 -0.313431
Br45  Br    Br    0.696502 0.788942 0.333126 -0.369826
Br46  Br    Br    0.788704 0.303620 0.667159 -0.318772
Br47  Br    Br    0.215001 0.692597 0.332361 -0.341156
Br48  Br    Br    0.692300 0.215378 0.332373 -0.321531
C1    C     C_1   0.828579 0.671720 0.749911 0.136533
C2    C     C_1   0.171691 0.671485 0.750108 0.136182
C3    C     C_R   0.498435 0.095770 0.479777 0.250608
C4    C     C_R   0.906278 0.521277 0.519738 0.250436
C5    C     C_R   0.084027 0.450887 0.479480 0.249818
C6    C     C_R   0.499769 0.095774 0.520229 0.250255
C7    C     C_R   0.501564 0.904231 0.479745 0.250541
C8    C     C_R   0.409350 0.969346 0.020344 0.249196
C9    C     C_R   0.590650 0.030653 0.979656 0.249330
C10   C     C_R   0.001720 0.595754 0.020207 0.249811
C11   C     C_R   0.996949 0.404265 0.979727 0.250251
C12   C     C_R   0.590671 0.030629 0.020211 0.249196
C13   C     C_1   0.328338 0.171519 0.250169 0.137990
C14   C     C_R   0.409328 0.969374 0.979789 0.249128
C15   C     C_R   0.998279 0.404245 0.020179 0.249763
C16   C     C_R   0.003050 0.595740 0.979754 0.250504
C17   C     C_R   0.500001 0.999997 0.643903 0.871209
C18   C     C_R   0.500002 0.000003 0.356088 0.871464
C19   C     C_R   0.000104 0.500356 0.643838 0.889578
C20   C     C_R   0.999928 0.499896 0.355992 0.881883
C21   C     C_R   0.999998 0.499997 0.143896 0.871366
C22   C     C_R   0.999999 0.500003 0.856081 0.870077
C23   C     C_R   0.500018 0.999991 0.143973 0.881039
C24   C     C_1   0.671634 0.828455 0.749838 0.137472
C25   C     C_R   0.499982 0.000009 0.856027 0.880552
C26   C     C_R   0.598911 0.098953 0.750003 0.802619
C27   C     C_R   0.401093 0.901042 0.249992 0.807392
C28   C     C_R   0.901092 0.598960 0.749996 0.804125
C29   C     C_R   0.098905 0.401039 0.250007 0.802141
C30   C     C_R   0.401072 0.901049 0.750008 0.803041
C31   C     C_R   0.598923 0.098956 0.249985 0.807896
C32   C     C_R   0.098936 0.401057 0.749995 0.820452
C33   C     C_R   0.901070 0.598947 0.250010 0.804470
C34   C     C_R   0.598952 0.901067 0.250013 0.804945
C35   C     C_1   0.171648 0.671531 0.249834 0.137892
C36   C     C_R   0.401056 0.098940 0.749995 0.808741
C37   C     C_R   0.901054 0.401058 0.249989 0.809095
C38   C     C_R   0.098951 0.598935 0.750014 0.802532
C39   C     C_R   0.401062 0.098939 0.250028 0.804870
C40   C     C_R   0.598932 0.901055 0.749978 0.809136
C41   C     C_R   0.098933 0.598941 0.249979 0.809841
C42   C     C_R   0.901060 0.401066 0.750027 0.810751
C43   C     C_R   0.763827 0.724921 0.715156 0.224211
C44   C     C_R   0.232625 0.271499 0.285329 0.229234
C45   C     C_R   0.273110 0.765714 0.715097 0.231566
C46   C     C_1   0.828334 0.328488 0.750149 0.139193
C47   C     C_R   0.725637 0.235561 0.284720 0.225725
C48   C     C_R   0.239881 0.278638 0.716055 0.223267
C49   C     C_R   0.766389 0.727653 0.285222 0.229990
C50   C     C_R   0.727353 0.233886 0.715082 0.226267
C51   C     C_R   0.274222 0.764502 0.284723 0.226545
C52   C     C_R   0.764422 0.274308 0.284714 0.224437
C53   C     C_R   0.234343 0.726943 0.715095 0.230033
C54   C     C_R   0.271450 0.232774 0.285333 0.228416
C55   C     C_R   0.725004 0.763642 0.715140 0.227517
C56   C     C_R   0.235420 0.725770 0.284707 0.224695
C57   C     C_1   0.671670 0.828490 0.250096 0.137819
C58   C     C_R   0.766143 0.272633 0.715088 0.230511
C59   C     C_R   0.727600 0.766411 0.285209 0.228364
C60   C     C_R   0.278662 0.239879 0.716058 0.221843
C61   C     C_R   0.266936 0.228147 0.215040 0.230194
C62   C     C_R   0.736529 0.775365 0.784528 0.224113
C63   C     C_R   0.774015 0.264732 0.214971 0.226932
C64   C     C_R   0.227276 0.733937 0.785173 0.228220
C65   C     C_R   0.733929 0.772602 0.215055 0.229979
C66   C     C_R   0.259974 0.221250 0.783760 0.223832
C67   C     C_R   0.226142 0.735195 0.214943 0.226735
C68   C     C_1   0.328382 0.171556 0.749930 0.136500
C69   C     C_R   0.772258 0.266441 0.785245 0.228891
C70   C     C_R   0.266066 0.772694 0.785178 0.229127
C71   C     C_R   0.735208 0.225995 0.214974 0.224128
C72   C     C_R   0.775331 0.736634 0.784548 0.225476
C73   C     C_R   0.228132 0.266877 0.215034 0.228208
C74   C     C_R   0.733448 0.227701 0.785242 0.230054
C75   C     C_R   0.264967 0.773917 0.214956 0.223978
C76   C     C_R   0.221202 0.260012 0.783760 0.224467
C77   C     C_R   0.772703 0.733840 0.215065 0.227433
C78   C     C_3   0.929811 0.596287 0.601772 -0.165917
C79   C     C_R   0.788872 0.711491 0.749867 -0.134168
C80   C     C_3   0.053961 0.390465 0.390916 -0.143773
C81   C     C_3   0.582501 0.089384 0.600451 -0.119761
C82   C     C_3   0.584017 0.912137 0.399270 -0.122265
C83   C     C_3   0.120447 0.519397 0.597783 -0.094360
C84   C     C_3   0.940997 0.603500 0.401354 -0.172418
C85   C     C_3   0.417522 0.910587 0.600539 -0.121826
C86   C     C_3   0.415997 0.087877 0.399394 -0.121204
C87   C     C_3   0.560690 0.104906 0.102636 -0.161159
C88   C     C_3   0.439302 0.895096 0.897363 -0.160730
C89   C     C_3   0.081193 0.409353 0.100287 -0.119331
C90   C     C_R   0.211088 0.288475 0.250174 -0.132921
C91   C     C_3   0.085220 0.586619 0.899132 -0.124438
C92   C     C_3   0.439446 0.894997 0.102681 -0.161230
C93   C     C_3   0.560563 0.105001 0.897318 -0.161457
C94   C     C_3   0.918790 0.590633 0.100407 -0.119290
C95   C     C_3   0.914755 0.413411 0.899224 -0.123783
C96   C     C_R   0.288861 0.788509 0.750135 -0.133361
C97   C     C_1   0.171389 0.328253 0.250137 0.137077
C98   C     C_R   0.711140 0.211482 0.249855 -0.134713
C99   C     C_R   0.211255 0.288619 0.749911 -0.137660
C100  C     C_R   0.788826 0.711449 0.250146 -0.132564
C101  C     C_R   0.711115 0.211501 0.750156 -0.132286
C102  C     C_R   0.288886 0.788498 0.249853 -0.134516
C103  C     C_R   0.788537 0.288791 0.249845 -0.136048
C104  C     C_R   0.211493 0.711170 0.750128 -0.130917
C105  C     C_R   0.288524 0.211200 0.250185 -0.133655
C106  C     C_R   0.711438 0.788767 0.749829 -0.136222
C107  C     C_R   0.211453 0.711218 0.249821 -0.135169
C108  C     C_1   0.328547 0.828301 0.750114 0.137174
C109  C     C_R   0.788525 0.288803 0.750164 -0.134708
C110  C     C_R   0.711454 0.788785 0.250123 -0.133618
C111  C     C_R   0.288621 0.211280 0.749912 -0.135923
C112  C     C_R   0.955899 0.516518 0.580893 0.459863
C113  C     C_R   0.038629 0.469606 0.417872 0.451378
C114  C     C_R   0.509936 0.046416 0.580997 0.450108
C115  C     C_R   0.510745 0.953763 0.418954 0.450794
C116  C     C_R   0.044061 0.481161 0.580802 0.436932
C117  C     C_R   0.958320 0.520125 0.418912 0.457124
C118  C     C_R   0.490074 0.953572 0.580997 0.450699
C119  C     C_1   0.671448 0.171700 0.249884 0.137041
C120  C     C_R   0.489265 0.046246 0.418979 0.450525
C121  C     C_R   0.541122 0.023661 0.081307 0.455489
C122  C     C_R   0.458877 0.976340 0.918693 0.455363
C123  C     C_R   0.009252 0.453437 0.080955 0.450079
C124  C     C_R   0.011396 0.546090 0.918934 0.451094
C125  C     C_R   0.458959 0.976259 0.081356 0.455517
C126  C     C_R   0.541042 0.023740 0.918643 0.455584
C127  C     C_R   0.990737 0.546554 0.080979 0.450075
C128  C     C_R   0.988592 0.453923 0.918937 0.450577
C129  C     C_1   0.638404 0.861618 0.749895 -0.054594
C130  C     C_1   0.171534 0.328377 0.749930 0.137511
C131  C     C_1   0.361580 0.138367 0.250115 -0.061108
C132  C     C_1   0.138446 0.638340 0.750069 -0.068575
C133  C     C_1   0.861564 0.361644 0.249923 -0.054433
C134  C     C_1   0.361589 0.138374 0.749962 -0.055108
C135  C     C_1   0.638440 0.861650 0.250060 -0.061331
C136  C     C_1   0.861576 0.361641 0.750104 -0.058837
C137  C     C_1   0.138414 0.638370 0.249894 -0.055203
C138  C     C_1   0.638308 0.138459 0.249929 -0.057713
C139  C     C_1   0.361686 0.861545 0.750065 -0.064191
C140  C     C_1   0.138257 0.361503 0.250069 -0.064673
C141  C     C_1   0.828526 0.671673 0.250130 0.137536
C142  C     C_1   0.861722 0.638480 0.749958 -0.058375
C143  C     C_1   0.361725 0.861520 0.249945 -0.057464
C144  C     C_1   0.638277 0.138477 0.750059 -0.064045
C145  C     C_1   0.861676 0.638442 0.250075 -0.063504
C146  C     C_1   0.138360 0.361587 0.749961 -0.053571
C147  C     C_R   0.000104 0.499221 0.601119 -0.298866
C148  C     C_R   0.999420 0.497169 0.398369 -0.289100
C149  C     C_R   0.500004 0.999993 0.601335 -0.300166
C150  C     C_R   0.500005 0.000006 0.398643 -0.299755
C151  C     C_R   0.500042 0.999963 0.101486 -0.289104
C152  C     C_1   0.671416 0.171721 0.750122 0.137374
C153  C     C_R   0.499958 0.000037 0.898513 -0.289295
C154  C     C_R   0.999994 0.499994 0.101317 -0.300278
C155  C     C_R   0.999995 0.500007 0.898624 -0.299527
C156  C     C_R   0.041529 0.473360 0.540439 -0.110239
C157  C     C_R   0.953674 0.511642 0.459004 -0.120526
C158  C     C_R   0.497365 0.952020 0.540658 -0.119663
C159  C     C_R   0.496486 0.047929 0.459313 -0.119753
C160  C     C_R   0.952725 0.510177 0.540407 -0.116372
C161  C     C_R   0.040727 0.470768 0.458698 -0.113302
C162  C     C_R   0.502637 0.047973 0.540668 -0.119964
C163  C     C_1   0.328586 0.828275 0.249894 0.137182
C164  C     C_R   0.503517 0.952075 0.459295 -0.119590
C165  C     C_R   0.455611 0.981565 0.040823 -0.119178
C166  C     C_R   0.544389 0.018435 0.959177 -0.119351
C167  C     C_R   0.998093 0.548002 0.040645 -0.119944
C168  C     C_R   0.995756 0.452131 0.959272 -0.120084
C169  C     C_R   0.544432 0.018390 0.040762 -0.119252
C170  C     C_R   0.455568 0.981612 0.959238 -0.119444
C171  C     C_R   0.001903 0.451994 0.040628 -0.119914
C172  C     C_R   0.004240 0.547877 0.959281 -0.120029
C173  C     C_R   0.997036 0.491275 0.520062 -0.079134
C174  C     C_1   0.828331 0.328486 0.249866 0.137691
C175  C     C_R   0.997021 0.490809 0.479269 -0.085351
C176  C     C_R   0.500000 0.999998 0.520301 -0.086008
C177  C     C_R   0.500000 0.000000 0.479665 -0.086184
C178  C     C_R   0.500011 0.999989 0.020377 -0.082420
C179  C     C_R   0.499989 0.000011 0.979622 -0.082487
C180  C     C_R   0.999999 0.499999 0.020272 -0.085946
C181  C     C_R   0.999999 0.500002 0.979637 -0.086343
C182  C     C_R   0.082666 0.448944 0.519908 0.244057
C183  C     C_R   0.907043 0.522969 0.479236 0.249696
C184  C     C_R   0.500230 0.904221 0.520199 0.250175
H1    H     H_    0.931558 0.612904 0.572121 0.156310
H2    H     H_    0.599638 0.909660 0.429175 0.160258
H3    H     H_    0.599040 0.947754 0.384614 0.116166
H4    H     H_    0.598790 0.877834 0.383086 0.224496
H5    H     H_    0.156561 0.514018 0.614906 0.216324
H6    H     H_    0.099524 0.553846 0.609776 0.126076
H7    H     H_    0.132223 0.527178 0.567419 0.153884
H8    H     H_    0.979824 0.608029 0.387368 0.121384
H9    H     H_    0.942460 0.617524 0.431740 0.159733
H10   H     H_    0.913080 0.628673 0.385532 0.222174
H11   H     H_    0.402054 0.907769 0.570606 0.159551
H12   H     H_    0.967181 0.603470 0.617182 0.103507
H13   H     H_    0.401787 0.945942 0.615141 0.116703
H14   H     H_    0.403334 0.876041 0.616717 0.224253
H15   H     H_    0.400373 0.090354 0.429318 0.160628
H16   H     H_    0.400974 0.052261 0.384748 0.116160
H17   H     H_    0.401227 0.122180 0.383237 0.224526
H18   H     H_    0.522498 0.108887 0.117633 0.118379
H19   H     H_    0.558377 0.121671 0.073053 0.162186
H20   H     H_    0.589688 0.128077 0.119063 0.220440
H21   H     H_    0.441613 0.878331 0.926947 0.162054
H22   H     H_    0.477494 0.891112 0.882366 0.117818
H23   H     H_    0.898677 0.617266 0.617696 0.226966
H24   H     H_    0.410303 0.871928 0.880936 0.221005
H25   H     H_    0.097519 0.444485 0.114807 0.117121
H26   H     H_    0.096517 0.406248 0.070310 0.159326
H27   H     H_    0.094903 0.374622 0.116455 0.224230
H28   H     H_    0.099653 0.550807 0.884405 0.114746
H29   H     H_    0.100978 0.588806 0.929010 0.160170
H30   H     H_    0.100453 0.620725 0.882962 0.224795
H31   H     H_    0.477641 0.891037 0.117628 0.118342
H32   H     H_    0.441768 0.878243 0.073087 0.162264
H33   H     H_    0.410464 0.871804 0.119135 0.220481
H34   H     H_    0.017013 0.391287 0.374116 0.110578
H35   H     H_    0.558244 0.121755 0.926912 0.162025
H36   H     H_    0.522368 0.108964 0.882372 0.117352
H37   H     H_    0.589547 0.128191 0.880863 0.221274
H38   H     H_    0.902466 0.555499 0.114938 0.116879
H39   H     H_    0.903470 0.593737 0.070450 0.159540
H40   H     H_    0.905077 0.625363 0.116601 0.224340
H41   H     H_    0.900327 0.449227 0.884527 0.115198
H42   H     H_    0.899002 0.411226 0.929124 0.160430
H43   H     H_    0.899510 0.379310 0.883066 0.224582
H44   H     H_    0.047827 0.370124 0.418939 0.170046
H45   H     H_    0.082695 0.367426 0.374101 0.217745
H46   H     H_    0.597964 0.092199 0.570498 0.159964
H47   H     H_    0.598232 0.054026 0.615023 0.116542
H48   H     H_    0.596701 0.123927 0.616619 0.224440
O1    O     O_3   0.500000 0.000000 0.750000 -0.530878
O2    O     O_R   0.500000 0.957280 0.337460 -0.589718
O3    O     O_R   0.957280 0.500000 0.662540 -0.582927
O4    O     O_R   0.042720 0.500000 0.337460 -0.594715
O5    O     O_R   0.000000 0.457280 0.162540 -0.589749
O6    O     O_R   1.000000 0.542720 0.837460 -0.589624
O7    O     O_R   0.542720 0.000000 0.162540 -0.592553
O8    O     O_R   0.457280 0.000000 0.837460 -0.592645
O9    O     O_R   0.000000 0.542720 0.162540 -0.589822
O10   O     O_R   0.000000 0.457280 0.837460 -0.590776
O11   O     O_R   0.457280 0.000000 0.162540 -0.592281
O12   O     O_3   0.500000 0.000000 0.250000 -0.530828
O13   O     O_R   0.542720 0.000000 0.837460 -0.592261
O14   O     O_R   0.560140 0.102800 0.727040 -0.623048
O15   O     O_R   0.439860 0.897200 0.272960 -0.615968
O16   O     O_R   0.897200 0.560140 0.727040 -0.619002
O17   O     O_R   0.102800 0.439860 0.272960 -0.612899
O18   O     O_R   0.439860 0.897200 0.727040 -0.623175
O19   O     O_R   0.560140 0.102800 0.272960 -0.615874
O20   O     O_R   0.102800 0.439860 0.727040 -0.614260
O21   O     O_R   0.897200 0.560140 0.272960 -0.611981
O22   O     O_R   0.560140 0.897200 0.272960 -0.622587
O23   O     O_3   0.000000 0.500000 0.750000 -0.528597
O24   O     O_R   0.439860 0.102800 0.727040 -0.615468
O25   O     O_R   0.897200 0.439860 0.272960 -0.619885
O26   O     O_R   0.102800 0.560140 0.727040 -0.633973
O27   O     O_R   0.439860 0.102800 0.272960 -0.622857
O28   O     O_R   0.560140 0.897200 0.727040 -0.615908
O29   O     O_R   0.102800 0.560140 0.272960 -0.620424
O30   O     O_R   0.897200 0.439860 0.727040 -0.613975
O31   O     O_R   0.060140 0.602800 0.227040 -0.615260
O32   O     O_R   0.939860 0.397200 0.772960 -0.621099
O33   O     O_R   0.397200 0.060140 0.227040 -0.617192
O34   O     O_3   0.000000 0.500000 0.250000 -0.530429
O35   O     O_R   0.602800 0.939860 0.772960 -0.618993
O36   O     O_R   0.939860 0.397200 0.227040 -0.615664
O37   O     O_R   0.060140 0.602800 0.772960 -0.618760
O38   O     O_R   0.602800 0.939860 0.227040 -0.617337
O39   O     O_R   0.397200 0.060140 0.772960 -0.618822
O40   O     O_R   0.060140 0.397200 0.772960 -0.614815
O41   O     O_R   0.939860 0.602800 0.227040 -0.623580
O42   O     O_R   0.397200 0.939860 0.772960 -0.612405
O43   O     O_R   0.602800 0.060140 0.227040 -0.615141
O44   O     O_R   0.939860 0.602800 0.772960 -0.615445
O45   O     O_R   0.500000 0.957280 0.662540 -0.589749
O46   O     O_R   0.060140 0.397200 0.227040 -0.623479
O47   O     O_R   0.602800 0.060140 0.772960 -0.612550
O48   O     O_R   0.397200 0.939860 0.227040 -0.614974
O49   O     O_3   0.917301 0.542657 0.601008 -0.534444
O50   O     O_3   0.074141 0.441156 0.396441 -0.540748
O51   O     O_3   0.527493 0.089805 0.600827 -0.538815
O52   O     O_3   0.529026 0.910699 0.399074 -0.538660
O53   O     O_3   0.090170 0.473488 0.600661 -0.543640
O54   O     O_3   0.923328 0.551460 0.399309 -0.539338
O55   O     O_3   0.472531 0.910179 0.600840 -0.538592
O56   O     O_R   0.500000 0.042720 0.337460 -0.589763
O57   O     O_3   0.470988 0.089312 0.399133 -0.539024
O58   O     O_3   0.577379 0.052475 0.101734 -0.539216
O59   O     O_3   0.422618 0.947529 0.898266 -0.539027
O60   O     O_3   0.026188 0.409789 0.100755 -0.538958
O61   O     O_3   0.030257 0.588884 0.899041 -0.538088
O62   O     O_3   0.422724 0.947417 0.101822 -0.539223
O63   O     O_3   0.577280 0.052578 0.898178 -0.539000
O64   O     O_3   0.973796 0.590201 0.100810 -0.538898
O65   O     O_3   0.969717 0.411133 0.899058 -0.538310
O66   O     O_R   0.042720 0.500000 0.662540 -0.610395
O67   O     O_R   0.957280 0.500000 0.337460 -0.592727
O68   O     O_R   0.500000 0.042720 0.662540 -0.589684
Zn1   Zn    Zn3+2 0.561040 1.000000 0.782730 1.038763
Zn2   Zn    Zn3+2 0.938960 0.500000 0.717270 1.045669
Zn3   Zn    Zn3+2 0.500000 0.061040 0.282730 1.034080
Zn4   Zn    Zn3+2 0.500000 0.938960 0.717270 1.033616
Zn5   Zn    Zn3+2 0.938960 0.500000 0.282730 1.039385
Zn6   Zn    Zn3+2 0.061040 0.500000 0.717270 1.019175
Zn7   Zn    Zn3+2 0.500000 0.938960 0.282730 1.034055
Zn8   Zn    Zn3+2 0.500000 0.061040 0.717270 1.033826
Zn9   Zn    Zn3+2 0.438960 0.000000 0.217270 1.038663
Zn10  Zn    Zn3+2 1.000000 0.561040 0.782730 1.032714
Zn11  Zn    Zn3+2 0.000000 0.438960 0.217270 1.033052
Zn12  Zn    Zn3+2 0.438960 1.000000 0.782730 1.039022
Zn13  Zn    Zn3+2 0.561040 0.000000 0.217270 1.038687
Zn14  Zn    Zn3+2 1.000000 0.438960 0.782730 1.041568
Zn15  Zn    Zn3+2 0.000000 0.561040 0.217270 1.034258
Zn16  Zn    Zn3+2 0.061040 0.500000 0.282730 1.036304

loop_
_geom_bond_atom_site_label_1
_geom_bond_atom_site_label_2
_ccdc_geom_bond_type
Br30  C3    S    
O17   Zn16  S    
C117  O54   S    
C170  C179  A    
C21   O5    A    
C92   O62   S    
Br31  C4    S    
C127  O64   S    
C116  C147  A    
C40   C129  S    
O38   Zn13  S    
C43   C79   A    
O18   Zn4   S    
C93   H35   S    
O44   Zn10  S    
C90   C97   S    
C33   O41   A    
C82   H3    S    
C87   O58   S    
O5    Zn11  S    
C167  C180  A    
C15   C171  A    
C18   O2    A    
C78   H1    S    
C165  C178  A    
C116  C156  A    
C115  C150  A    
C92   H31   S    
O19   Zn3   S    
C18   O56   A    
C87   H20   S    
C44   C54   A    
C85   H14   S    
C48   C60   A    
C128  C155  A    
C47   C98   A    
C41   O31   A    
C86   H16   S    
C180  C181  A    
C42   O32   A    
C76   C99   A    
C67   C75   A    
C97   C140  T    
C74   C101  A    
C26   O14   A    
C31   O43   A    
C68   C111  S    
C19   O3    A    
Br15  C76   S    
C45   C53   A    
C38   O37   A    
C28   O44   A    
C25   C153  S    
C157  C175  A    
C126  C153  A    
C113  C148  A    
O31   Zn15  S    
Br3   C44   S    
C124  C155  A    
C125  C165  A    
C94   H38   S    
C85   O55   S    
C57   C110  S    
C114  O51   S    
C91   H28   S    
C54   C105  A    
C164  C177  A    
C84   H10   S    
C13   C131  T    
C46   C109  S    
Br19  C63   S    
C78   O49   S    
C78   H12   S    
C8    C14   A    
C115  O52   S    
C87   H18   S    
Br32  C5    S    
C20   O67   A    
C26   O47   A    
C29   O17   A    
C108  C139  T    
C48   C99   A    
Br47  C56   S    
Br7   C49   S    
O12   Zn13  S    
C7    C184  A    
Br29  C184  S    
C43   C55   A    
O11   Zn9   S    
C77   C100  A    
C33   O21   A    
C89   H25   S    
C24   C106  S    
C11   C15   A    
C50   C58   A    
C103  C174  S    
C93   O63   S    
C36   C134  S    
Br25  C66   S    
C61   C73   A    
Br23  C53   S    
O34   Zn16  S    
C144  C152  T    
O30   Zn2   S    
C28   C142  S    
C33   C145  S    
C124  O61   S    
C49   C59   A    
Br17  C74   S    
C38   O26   A    
O1    Zn4   S    
C126  O63   S    
O3    Zn2   S    
C117  C157  A    
O66   Zn6   S    
Br37  C9    S    
C122  O59   S    
C42   O30   A    
C143  C163  T    
C98   C119  S    
Br40  C12   S    
C156  C173  A    
O9    Zn15  S    
O45   Zn4   S    
C37   O36   A    
Br13  C70   S    
C72   C79   A    
C94   O64   S    
O12   Zn3   S    
C34   O38   A    
C71   C98   A    
O23   Zn6   S    
C172  C181  A    
C91   O61   S    
C121  O58   S    
C22   O10   A    
C3    C159  A    
C35   C107  S    
O48   Zn9   S    
C63   C71   A    
C36   O24   A    
C158  C176  A    
C68   C134  T    
C95   H42   S    
O8    Zn12  S    
C171  C180  A    
C88   O59   S    
Br1   C55   S    
C124  C172  A    
C5    C182  A    
Br4   C43   S    
C75   C102  A    
C21   C154  S    
C39   O33   A    
O34   Zn5   S    
C17   O45   A    
C116  O53   S    
C89   H27   S    
C10   C16   A    
O24   Zn8   S    
C118  O55   S    
C88   H21   S    
O14   Zn8   S    
C31   O19   A    
C1    C142  T    
C40   O35   A    
C96   C108  S    
C17   O68   A    
C27   C143  S    
C69   C74   A    
C112  C160  A    
C55   C106  A    
Br9   C73   S    
O6    Zn10  S    
C168  C181  A    
C63   C103  A    
C81   H46   S    
C86   O57   S    
C166  C179  A    
O32   Zn14  S    
C18   C150  S    
C45   C96   A    
Br20  C62   S    
C40   O28   A    
C91   H29   S    
C17   C149  S    
C157  C183  A    
O68   Zn8   S    
Br33  C6    S    
C37   C133  S    
C41   C137  S    
C127  C154  A    
C87   H19   S    
O39   Zn12  S    
Br21  C61   S    
C115  C164  A    
C4    C183  A    
O40   Zn14  S    
O47   Zn1   S    
C95   O65   S    
C58   C109  A    
C169  C178  A    
C123  C154  A    
O37   Zn10  S    
C84   H8    S    
O21   Zn5   S    
C25   O8    A    
Br46  C58   S    
C82   H4    S    
O28   Zn4   S    
C56   C107  A    
O25   Zn5   S    
C141  C145  T    
C30   O18   A    
C82   O52   S    
C178  C179  A    
C92   H32   S    
C29   C140  S    
C80   H34   S    
C30   C139  S    
O35   Zn1   S    
C123  C171  A    
C34   O22   A    
C85   H13   S    
C20   O4    A    
C121  C169  A    
O1    Zn1   S    
C31   C138  S    
C125  C151  A    
C29   O46   A    
C44   C90   A    
C176  C177  A    
C60   C111  A    
C130  C146  T    
C120  C150  A    
Br6   C50   S    
Br18  C64   S    
C83   H6    S    
C112  O49   S    
C81   H48   S    
C94   H39   S    
C27   O15   A    
C7    C164  A    
Br38  C10   S    
Br5   C51   S    
Br34  C52   S    
C64   C104  A    
C93   H37   S    
O36   Zn11  S    
C61   C105  A    
C121  C151  A    
C10   C167  A    
C51   C56   A    
O23   Zn10  S    
C80   O50   S    
C27   O48   A    
C95   H43   S    
O7    Zn13  S    
C46   C136  T    
Br41  C14   S    
Br43  C16   S    
C125  O62   S    
C51   C102  A    
C158  C184  A    
O10   Zn14  S    
C93   H36   S    
C162  C176  A    
C47   C52   A    
O43   Zn13  S    
C9    C12   A    
C119  C138  T    
C113  C161  A    
C82   H2    S    
C13   C105  S    
C126  C166  A    
C127  C167  A    
Br36  C8    S    
O1    Zn8   S    
O15   Zn7   S    
Br39  C11   S    
C120  C159  A    
O13   Zn1   S    
C20   C148  S    
C57   C135  T    
O56   Zn3   S    
Br35  C7    S    
C36   O39   A    
C112  C147  A    
C42   C136  S    
C161  C175  A    
C117  C148  A    
C86   H15   S    
C59   C110  A    
C22   C155  S    
C133  C174  T    
C11   C168  A    
O16   Zn2   S    
C23   C151  S    
O33   Zn9   S    
C53   C104  A    
C102  C163  S    
O46   Zn11  S    
C118  C149  A    
O29   Zn16  S    
O4    Zn16  S    
O12   Zn7   S    
Br10  C72   S    
C101  C152  S    
C2    C104  S    
C84   H9    S    
C5    C161  A    
C30   O42   A    
C95   H41   S    
C118  C158  A    
C86   H17   S    
Br26  C65   S    
Br42  C15   S    
O41   Zn15  S    
C19   O66   A    
O27   Zn3   S    
C50   C101  A    
Br22  C69   S    
O22   Zn7   S    
Br48  C47   S    
C23   O7    A    
Br8   C48   S    
Br11  C71   S    
C89   H26   S    
C114  C149  A    
Br14  C77   S    
C14   C170  A    
C88   H22   S    
Br16  C75   S    
C28   O16   A    
C70   C96   A    
C65   C77   A    
C89   O60   S    
C39   O27   A    
C113  O50   S    
C25   O13   A    
O34   Zn15  S    
C80   H44   S    
C122  C153  A    
Br27  C182  S    
O20   Zn6   S    
C159  C177  A    
C83   H7    S    
C22   O6    A    
C128  C168  A    
C78   H23   S    
C65   C110  A    
O2    Zn7   S    
C66   C76   A    
C23   O11   A    
C24   C129  T    
C19   C147  S    
Br44  C60   S    
C52   C103  A    
C1    C79   S    
O26   Zn6   S    
C16   C172  A    
C69   C109  A    
O42   Zn12  S    
C62   C72   A    
C160  C173  A    
C34   C135  S    
O12   Zn9   S    
C73   C90   A    
C2    C132  T    
Br12  C54   S    
C62   C106  A    
C6    C162  A    
O23   Zn14  S    
C38   C132  S    
O67   Zn5   S    
C123  O60   S    
C32   O40   A    
Br28  C183  S    
C8    C165  A    
C26   C144  S    
C49   C100  A    
C114  C162  A    
C81   O51   S    
C80   H45   S    
C37   O25   A    
C100  C141  S    
C67   C107  A    
C4    C160  A    
C88   H24   S    
Br2   C45   S    
C41   O29   A    
O1    Zn12  S    
C84   O54   S    
O34   Zn11  S    
C32   C146  S    
C3    C6    A    
C173  C175  A    
C12   C169  A    
C85   H11   S    
C64   C70   A    
C99   C130  S    
C83   H5    S    
O23   Zn2   S    
C21   O9    A    
C81   H47   S    
C128  O65   S    
C156  C182  A    
C94   H40   S    
C66   C111  A    
C32   O20   A    
C39   C131  S    
C83   O53   S    
Br45  C59   S    
C9    C166  A    
Br24  C67   S    
C91   H30   S    
C92   H33   S    
C35   C137  T    
C120  O57   S    
C122  C170  A    
