data_mof_unit_19468.cif
_audit_creation_date              2012-10-26T20:04:59-0400
_audit_creation_method            fapswitch 2.2
_symmetry_space_group_name_H-M    P1
_symmetry_Int_Tables_number       1
_space_group_crystal_system       triclinic
_cell_length_a                    15.849927
_cell_length_b                    15.054212
_cell_length_c                    13.719255
_cell_angle_alpha                 90.684323
_cell_angle_beta                  90.143095
_cell_angle_gamma                 89.294915
_cell_volume                      3273.0358317

loop_
_atom_site_label
_atom_site_type_symbol
_atom_type_description
_atom_site_fract_x
_atom_site_fract_y
_atom_site_fract_z
_atom_type_partial_charge
C1    C     C_R   0.503023 0.328884 0.499242 0.554415
C2    C     C_R   0.491588 0.047138 0.481596 0.017327
C3    C     C_R   0.420955 0.910349 0.529734 -0.020733
C4    C     C_R   0.561274 0.090395 0.438150 -0.018251
C5    C     C_R   0.616839 0.945611 0.382205 0.009177
C6    C     C_R   0.351667 0.055152 0.558095 0.011569
C7    C     C_R   0.619363 0.039280 0.380533 -0.017642
C8    C     C_R   0.348151 0.961412 0.557266 -0.019337
C9    C     C_R   0.566910 0.463551 0.793247 0.037423
C10   C     C_R   0.432664 0.535288 0.206723 0.042597
C11   C     C_R   0.432518 0.534842 0.793971 0.038931
C12   C     C_R   0.496863 0.671278 0.500374 0.541947
C13   C     C_R   0.567527 0.465041 0.206095 0.031940
C14   C     C_R   0.430593 0.534749 0.896900 -0.014386
C15   C     C_R   0.568848 0.463380 0.103222 -0.013822
C16   C     C_R   0.339756 0.499459 0.499788 0.545875
C17   C     C_R   0.660220 0.501227 0.500216 0.557252
C18   C     C_R   0.499746 0.499025 0.948281 0.055033
C19   C     C_R   0.499798 0.499206 0.051788 0.056840
C20   C     C_R   0.568642 0.462762 0.896242 -0.013971
C21   C     C_R   0.430777 0.535264 0.103823 -0.011972
C22   C     C_R   0.361305 0.569115 0.949548 -0.147862
C23   C     C_R   0.492647 0.768197 0.498991 -0.010602
C24   C     C_R   0.637254 0.426694 0.050801 -0.152304
C25   C     C_R   0.361520 0.569845 0.051928 -0.147055
C26   C     C_R   0.637198 0.426440 0.948270 -0.147164
C27   C     C_3   0.972140 0.440338 0.557292 -0.113324
C28   C     C_3   0.027725 0.571754 0.442928 -0.112422
C29   C     C_3   0.028055 0.426798 0.465387 -0.121810
C30   C     C_3   0.971673 0.585302 0.534994 -0.119613
C31   C     C_1   0.250091 0.500712 0.499138 -0.045158
C32   C     C_1   0.749783 0.504456 0.500939 -0.024539
C33   C     C_3   0.028059 0.518251 0.590659 0.025528
C34   C     C_R   0.502878 0.232273 0.495737 -0.004961
C35   C     C_3   0.971709 0.493754 0.409691 0.020164
C36   C     C_3   0.082893 0.504911 0.499669 0.037163
C37   C     C_3   0.916950 0.507105 0.500737 0.032044
C38   C     C_1   0.174548 0.502634 0.498852 -0.072400
C39   C     C_1   0.825277 0.506537 0.501405 -0.062282
C40   C     C_R   0.428381 0.817285 0.546437 -0.041323
C41   C     C_R   0.569928 0.183454 0.453772 -0.036042
C42   C     C_R   0.936605 0.482928 0.308203 0.028773
C43   C     C_R   0.955793 0.407200 0.251226 -0.105218
C44   C     C_R   0.920921 0.397275 0.158054 -0.119647
C45   C     C_R   0.551854 0.810623 0.442241 -0.141778
C46   C     C_R   0.867014 0.462843 0.120994 -0.115164
C47   C     C_R   0.847709 0.538390 0.177140 -0.115590
C48   C     C_R   0.882548 0.548623 0.270284 -0.093998
C49   C     C_R   0.060941 0.527626 0.693203 0.027312
C50   C     C_R   0.035666 0.599359 0.753168 -0.100791
C51   C     C_R   0.065047 0.605688 0.849179 -0.123317
C52   C     C_R   0.120544 0.541212 0.885561 -0.116842
C53   C     C_R   0.146534 0.470104 0.826071 -0.117116
C54   C     C_R   0.116420 0.462903 0.730461 -0.097077
C55   C     C_R   0.376060 0.773409 0.620852 0.046029
C56   C     C_R   0.431390 0.190164 0.528768 -0.141737
C57   C     C_R   0.313416 0.712829 0.593448 -0.061337
C58   C     C_R   0.257526 0.681111 0.663203 -0.100587
C59   C     C_R   0.265207 0.707937 0.760546 -0.128448
C60   C     C_R   0.330268 0.764331 0.789152 -0.131486
C61   C     C_R   0.385549 0.797212 0.719540 -0.086795
C62   C     C_R   0.653214 0.226830 0.445684 0.026594
C63   C     C_R   0.670439 0.284869 0.369179 -0.066058
C64   C     C_R   0.751211 0.319670 0.358612 -0.102206
C65   C     C_R   0.814790 0.297469 0.425075 -0.100911
C66   C     C_R   0.797357 0.242218 0.503326 -0.124053
C67   C     C_R   0.553796 0.903237 0.436884 -0.020686
C68   C     C_R   0.716827 0.206859 0.513695 -0.104416
C69   C     C_2   0.679851 0.891745 0.325766 0.209967
C70   C     C_2   0.277424 0.109202 0.591011 0.205081
C71   C     C_R   0.676612 0.082017 0.309753 0.086517
C72   C     C_R   0.764571 0.079247 0.323178 -0.043561
C73   C     C_R   0.817685 0.118546 0.255271 -0.086916
C74   C     C_R   0.783521 0.160182 0.173354 -0.099087
C75   C     C_R   0.696205 0.161964 0.158745 -0.114314
C76   C     C_R   0.642833 0.122580 0.226345 -0.062799
C77   C     C_R   0.264987 0.918733 0.572512 0.086985
C78   C     C_R   0.425222 0.097534 0.525083 -0.018638
C79   C     C_R   0.224735 0.923130 0.663706 -0.040391
C80   C     C_R   0.146007 0.883955 0.676325 -0.086653
C81   C     C_R   0.106732 0.840618 0.598127 -0.096159
C82   C     C_R   0.145735 0.837121 0.506889 -0.110519
C83   C     C_R   0.224342 0.876461 0.493821 -0.065811
C84   C     C_R   0.488701 0.953664 0.482587 0.018707
Cu1   Cu    Cu3+1 0.500010 0.499990 0.597420 0.947057
Cu2   Cu    Cu3+1 0.499990 0.500010 0.402580 0.937500
H1    H     H_    0.052976 0.361820 0.438518 0.108562
H2    H     H_    0.380856 0.231518 0.557791 0.108569
H3    H     H_    0.619129 0.434823 0.752637 0.126795
H4    H     H_    0.380227 0.563673 0.247232 0.124524
H5    H     H_    0.379957 0.562609 0.753948 0.145897
H6    H     H_    0.620880 0.438828 0.245923 0.114708
H7    H     H_    0.997102 0.355488 0.278619 0.098841
H8    H     H_    0.935603 0.338640 0.114621 0.104417
H9    H     H_    0.840198 0.455089 0.048806 0.110535
H10   H     H_    0.805696 0.588997 0.148507 0.124091
H11   H     H_    0.866938 0.607394 0.313173 0.110227
H12   H     H_    0.946887 0.650326 0.561895 0.091384
H13   H     H_    0.992856 0.650026 0.726443 0.096688
H14   H     H_    0.045190 0.660913 0.895228 0.108065
H15   H     H_    0.143687 0.546578 0.959668 0.109230
H16   H     H_    0.189735 0.420354 0.854181 0.113526
H17   H     H_    0.136368 0.406956 0.685423 0.116552
H18   H     H_    0.305199 0.694138 0.517600 0.093158
H19   H     H_    0.206931 0.637630 0.641618 0.128713
H20   H     H_    0.220586 0.685372 0.813817 0.118611
H21   H     H_    0.336557 0.784264 0.864843 0.113262
H22   H     H_    0.433950 0.843415 0.741865 0.110100
H23   H     H_    0.306681 0.594994 0.911812 0.107554
H24   H     H_    0.622472 0.299282 0.315336 0.116767
H25   H     H_    0.764845 0.362642 0.298125 0.119342
H26   H     H_    0.877619 0.322877 0.416029 0.119937
H27   H     H_    0.846601 0.225693 0.555045 0.108356
H28   H     H_    0.704415 0.162483 0.573402 0.107578
H29   H     H_    0.716518 0.840201 0.361522 0.084977
H30   H     H_    0.284709 0.159408 0.647693 0.088814
H31   H     H_    0.791649 0.047476 0.386589 0.094901
H32   H     H_    0.885299 0.117189 0.266453 0.105597
H33   H     H_    0.824693 0.191109 0.121248 0.100200
H34   H     H_    0.690607 0.397925 0.089123 0.101429
H35   H     H_    0.669852 0.194176 0.095255 0.106649
H36   H     H_    0.575273 0.124363 0.214359 0.111388
H37   H     H_    0.254780 0.956091 0.724945 0.091985
H38   H     H_    0.115725 0.886642 0.746928 0.099555
H39   H     H_    0.046145 0.809671 0.608246 0.096849
H40   H     H_    0.115197 0.803644 0.446377 0.098598
H41   H     H_    0.253952 0.873363 0.422781 0.106088
H42   H     H_    0.307346 0.597133 0.090451 0.101072
H43   H     H_    0.690774 0.397865 0.909727 0.101528
H44   H     H_    0.948096 0.386910 0.604502 0.107956
H45   H     H_    0.051767 0.625139 0.395670 0.100413
H46   H     H_    0.598335 0.769539 0.404910 0.116798
N1    N     N_R   0.499960 0.499930 0.743810 -0.240305
N2    N     N_R   0.500040 0.500070 0.256190 -0.237201
O1    O     O_R   0.500020 0.370250 0.582280 -0.498316
O2    O     O_2   0.208220 0.099312 0.553393 -0.500846
O3    O     O_R   0.499980 0.629750 0.417720 -0.499732
O4    O     O_R   0.500010 0.370270 0.417740 -0.499960
O5    O     O_R   0.499990 0.629730 0.582260 -0.486004
O6    O     O_R   0.379080 0.499980 0.582260 -0.505578
O7    O     O_R   0.620920 0.500020 0.417740 -0.507207
O8    O     O_R   0.379070 0.500000 0.417710 -0.505010
O9    O     O_R   0.620930 0.500000 0.582290 -0.504637
O10   O     O_2   0.689859 0.903447 0.238661 -0.492650

loop_
_geom_bond_atom_site_label_1
_geom_bond_atom_site_label_2
_ccdc_geom_bond_type
C66   C68   A    
C34   C56   A    
C23   C45   A    
C66   H27   S    
C27   C29   S    
C13   N2    A    
C14   C18   A    
C16   O8    A    
C5    C67   A    
Cu1   O9    S    
C81   C82   A    
C53   C54   A    
C27   C33   S    
C69   O10   D    
C15   C19   A    
C74   H33   S    
C29   C36   S    
C50   H13   S    
C2    C78   A    
C35   C37   S    
C25   H42   S    
C24   C26   A    
C11   N1    A    
C7    C71   S    
C71   C76   A    
C11   C14   A    
C56   H2    S    
C4    C41   A    
C77   C83   A    
C33   C49   S    
C49   C54   A    
C33   C36   S    
C56   C78   A    
C17   O7    A    
C18   C19   A    
C73   C74   A    
C32   C39   T    
C35   C42   S    
C61   H22   S    
C82   H40   S    
C5    C69   S    
Cu2   O3    S    
C2    C84   A    
Cu2   N2    S    
C46   H9    S    
C28   C35   S    
C22   C25   A    
C72   H31   S    
C45   C67   A    
C47   H10   S    
Cu1   O5    S    
C27   H44   S    
C40   C55   S    
C59   C60   A    
C70   O2    D    
C16   O6    A    
C34   C41   A    
C41   C62   S    
C4    C7    A    
C44   C46   A    
C1    C34   S    
C77   C79   A    
C10   C21   A    
C52   H15   S    
C24   H34   S    
C59   H20   S    
C74   C75   A    
C51   C52   A    
C54   H17   S    
C44   H8    S    
C3    C8    A    
C9    H3    S    
C5    C7    A    
C72   C73   A    
C64   H25   S    
C6    C8    A    
C70   H30   S    
C58   C59   A    
Cu1   Cu2   S    
C79   H37   S    
C63   C64   A    
C30   C37   S    
C60   C61   A    
C16   C31   S    
C2    C4    A    
C75   C76   A    
C65   H26   S    
C62   C63   A    
C48   H11   S    
C9    C20   A    
C47   C48   A    
C12   C23   S    
C13   C15   A    
C53   H16   S    
C22   H23   S    
C50   C51   A    
C12   O5    A    
C42   C48   A    
C26   H43   S    
Cu1   O6    S    
C10   H4    S    
C60   H21   S    
Cu1   O1    S    
C15   C24   A    
C3    C40   A    
C82   C83   A    
C55   C57   A    
C43   C44   A    
C8    C77   S    
C42   C43   A    
C52   C53   A    
Cu2   O8    S    
C30   H12   S    
C80   H38   S    
C51   H14   S    
C6    C70   S    
C57   H18   S    
C21   C25   A    
C46   C47   A    
C69   H29   S    
C73   H32   S    
C30   C33   S    
C81   H39   S    
C75   H35   S    
C10   N2    A    
C83   H41   S    
C80   C81   A    
C29   C35   S    
C31   C38   T    
C62   C68   A    
C17   O9    A    
C58   H19   S    
C76   H36   S    
C64   C65   A    
C28   H45   S    
C63   H24   S    
C36   C38   S    
C71   C72   A    
C13   H6    S    
C14   C22   A    
C57   C58   A    
C20   C26   A    
C27   C37   S    
C55   C61   A    
C28   C30   S    
C43   H7    S    
C18   C20   A    
C65   C66   A    
C29   H1    S    
C6    C78   A    
Cu2   O4    S    
C79   C80   A    
C11   H5    S    
C67   C84   A    
C28   C36   S    
C45   H46   S    
C37   C39   S    
C49   C50   A    
C68   H28   S    
C3    C84   A    
C17   C32   S    
C12   O3    A    
C1    O1    A    
C1    O4    A    
C23   C40   A    
Cu2   O7    S    
Cu1   N1    S    
C19   C21   A    
C9    N1    A    
