data_mof_unit_36749.cif
_audit_creation_date              2013-03-05T16:22:15-0500
_audit_creation_method            fapswitch 2.2
_symmetry_space_group_name_H-M    P1
_symmetry_Int_Tables_number       1
_space_group_crystal_system       triclinic
_cell_length_a                    10.527713
_cell_length_b                    10.552709
_cell_length_c                    9.907073
_cell_angle_alpha                 90.067768
_cell_angle_beta                  88.78507
_cell_angle_gamma                 89.128195
_cell_volume                      1100.25905077

loop_
_atom_site_label
_atom_site_type_symbol
_atom_site_description
_atom_site_fract_x
_atom_site_fract_y
_atom_site_fract_z
_atom_type_partial_charge
O1    O     O_R   0.500010 0.313960 0.616610 -0.608281
O2    O     O_R   0.499990 0.686040 0.383390 -0.616216
O3    O     O_R   0.500060 0.313950 0.383350 -0.559134
O4    O     O_R   0.499940 0.686050 0.616650 -0.560255
C1    C     C_R   0.506447 0.258520 0.499464 0.950536
C2    C     C_R   0.494106 0.741477 0.500495 0.944885
O5    O     O_R   0.313930 0.499970 0.616610 -0.556975
O6    O     O_R   0.686070 0.500030 0.383390 -0.577676
O7    O     O_R   0.313980 0.499960 0.383350 -0.622807
O8    O     O_R   0.686020 0.500040 0.616650 -0.619288
C3    C     C_R   0.258473 0.501515 0.500733 0.933973
C4    C     C_R   0.741491 0.500918 0.499462 0.931682
Zn1   Zn    Zn3+2 0.499970 0.500010 0.655740 1.082173
Zn2   Zn    Zn3+2 0.500030 0.499990 0.344260 1.069834
C5    C     C_3   0.041125 0.406899 0.573555 -0.014495
C6    C     C_3   0.958738 0.599812 0.427877 -0.020198
C7    C     C_3   0.962157 0.395597 0.447183 0.293847
C8    C     C_3   0.038029 0.610525 0.554045 0.348145
C9    C     C_3   0.875886 0.502827 0.500746 -0.195213
C10   C     C_3   0.124005 0.503411 0.500347 -0.190681
C11   C     C_3   0.954698 0.514293 0.630813 -0.178959
C12   C     C_3   0.045213 0.492279 0.370231 -0.218207
H1    H     H_    0.917301 0.522935 0.736140 0.233394
H2    H     H_    0.082469 0.483659 0.264854 0.232406
C13   C     C_3   0.550577 0.038827 0.613508 0.023073
C14   C     C_3   0.451008 0.961009 0.386242 0.023789
C15   C     C_3   0.619625 0.948793 0.512168 -0.260308
C16   C     C_3   0.381970 0.050964 0.487503 -0.264694
H3    H     H_    0.715831 0.905880 0.523191 0.219611
H4    H     H_    0.285683 0.092963 0.475215 0.201503
C17   C     C_3   0.493655 0.875965 0.502046 -0.162406
C18   C     C_3   0.507818 0.123931 0.497737 -0.161489
C19   C     C_3   0.427362 0.965695 0.603920 0.320060
C20   C     C_3   0.574158 0.034197 0.395812 0.318045
C21   C     C_3   0.461850 0.393527 0.048106 0.277158
C22   C     C_3   0.538022 0.606445 0.951710 0.277833
C23   C     C_3   0.573492 0.412572 0.950154 -0.064643
C24   C     C_3   0.426203 0.587331 0.049689 -0.073705
N1    N     N_3   0.499910 0.500030 0.863290 -0.185058
N2    N     N_3   0.500090 0.499970 0.136710 -0.184723
C25   C     C_3   0.388050 0.481147 0.955413 0.201468
C26   C     C_3   0.611896 0.518725 0.044114 0.212119
N3    N     N_R   0.919004 0.275154 0.394862 0.243734
O9    O     O_R   0.958854 0.235313 0.276890 -0.247224
O10   O     O_R   0.851508 0.201220 0.471891 -0.393928
N4    N     N_R   0.081579 0.730777 0.606388 0.251779
O11   O     O_R   0.042915 0.770097 0.724998 -0.250304
O12   O     O_R   0.147838 0.805232 0.528712 -0.380716
N5    N     N_3   0.090029 0.300744 0.651609 -0.312006
H5    H     H_    0.011948 0.251397 0.689975 0.253952
H6    H     H_    0.138583 0.239865 0.584539 0.200925
N6    N     N_3   0.912193 0.710778 0.355624 -0.367381
H7    H     H_    0.981236 0.734457 0.283006 0.257584
H8    H     H_    0.830920 0.685527 0.304467 0.260761
N7    N     N_3   0.606567 0.083168 0.737589 -0.358413
H9    H     H_    0.646032 0.004492 0.785882 0.278003
H10   H     H_    0.532492 0.117160 0.799995 0.274721
N8    N     N_3   0.394941 0.916580 0.262231 -0.357297
H11   H     H_    0.355399 0.995194 0.213906 0.278284
H12   H     H_    0.468965 0.882507 0.199812 0.273302
N9    N     N_R   0.346485 0.935104 0.720482 0.257662
O13   O     O_R   0.294585 0.026206 0.792016 -0.306229
O14   O     O_R   0.321963 0.818297 0.751457 -0.288738
N10   N     N_R   0.654924 0.065071 0.279272 0.260026
O15   O     O_R   0.706780 0.974165 0.207418 -0.314520
O16   O     O_R   0.679302 0.181973 0.248585 -0.281042
N11   N     N_3   0.658421 0.316566 0.891230 -0.360483
H13   H     H_    0.698007 0.265318 0.970505 0.277778
H14   H     H_    0.733057 0.363585 0.842686 0.225054
N12   N     N_3   0.341253 0.683381 0.108483 -0.360208
H15   H     H_    0.301741 0.734585 0.029135 0.277444
H16   H     H_    0.266581 0.636378 0.156972 0.222502
N13   N     N_R   0.415438 0.274846 0.103576 0.259624
O17   O     O_R   0.465379 0.167730 0.062841 -0.357387
O18   O     O_R   0.314561 0.274940 0.181642 -0.342985
N14   N     N_R   0.583918 0.725317 0.896099 0.259906
O19   O     O_R   0.534613 0.832341 0.937964 -0.359586
O20   O     O_R   0.683361 0.725460 0.815957 -0.336954
N15   N     N_R   0.261147 0.461429 0.904444 0.236705
O21   O     O_R   0.208823 0.351059 0.915757 -0.292415
O22   O     O_R   0.193847 0.557642 0.863386 -0.328139
N16   N     N_R   0.740201 0.535993 0.092217 0.211831
O23   O     O_R   0.801921 0.440020 0.142312 -0.328860
O24   O     O_R   0.801825 0.637698 0.059683 -0.336889

loop_
_geom_bond_atom_site_label_1
_geom_bond_atom_site_label_2
_geom_bond_distance
_ccdc_geom_bond_type
N7    H9    1.043886 S    
C24   N12   1.454437 S    
C15   H3    1.110702 S    
C8    C11   1.542722 S    
N13   O17   1.299558 A    
C22   C26   1.519897 S    
C26   N16   1.455834 S    
O7    Zn2   1.988532 S    
N1    C25   1.490469 S    
O5    C3    1.298927 A    
O1    C1    1.299100 A    
C9    C11   1.552903 S    
N14   O20   1.300468 A    
N8    H12   1.043806 S    
C23   C26   1.520566 S    
O4    Zn1   2.001504 S    
N9    O14   1.298997 A    
C22   N14   1.455804 S    
C14   N8    1.454456 S    
N6    H8    1.041613 S    
N5    H6    1.044094 S    
O6    Zn2   2.004626 S    
C17   C19   1.532993 S    
N12   H15   1.044508 S    
C1    C18   1.420206 S    
C13   C18   1.528628 S    
N2    C26   1.492622 S    
C2    C17   1.419220 S    
C14   C17   1.528153 S    
C15   C20   1.543675 S    
N13   O18   1.300451 A    
O2    C2    1.298575 A    
C21   C25   1.520622 S    
C8    N4    1.454529 S    
C14   C20   1.523774 S    
C11   H1    1.110602 S    
C5    C10   1.525312 S    
N4    O12   1.300562 A    
C3    C10   1.415560 S    
C15   C17   1.547880 S    
N11   H13   1.044509 S    
C6    N6    1.457096 S    
C16   C18   1.547599 S    
N14   O19   1.299575 A    
C24   C25   1.521971 S    
O4    C2    1.293684 A    
N15   O22   1.299852 A    
N8    H11   1.043840 S    
N11   H14   1.044644 S    
N10   O16   1.298986 A    
N3    O9    1.300553 A    
C7    N3    1.454827 S    
N3    O10   1.300501 A    
C5    C11   1.542478 S    
O6    C4    1.300553 A    
C20   N10   1.459397 S    
O7    C3    1.290343 A    
O3    Zn2   2.001504 S    
O8    C4    1.288590 A    
C19   N9    1.459548 S    
C10   C12   1.552910 S    
C16   C19   1.543043 S    
N5    H5    1.044792 S    
N16   O24   1.299920 A    
N7    H10   1.043837 S    
C12   H2    1.110550 S    
O1    Zn1   2.000781 S    
N6    H7    1.045046 S    
C5    C7    1.523030 S    
N4    O11   1.300804 A    
C21   N13   1.455373 S    
C6    C12   1.545198 S    
C21   C23   1.524079 S    
C22   N1    1.488513 S    
C13   N7    1.454406 S    
O3    C1    1.293696 A    
O8    Zn1   1.988531 S    
C25   N15   1.456012 S    
C13   C15   1.544295 S    
C14   C16   1.543246 S    
C7    C12   1.545131 S    
N10   O15   1.300391 A    
C22   C24   1.525765 S    
C21   N2    1.490221 S    
C23   N1    1.483522 S    
C24   N2    1.485496 S    
C6    C9    1.526971 S    
C23   N11   1.454483 S    
C4    C9    1.415653 S    
C16   H4    1.109275 S    
C7    C9    1.527680 S    
C8    C10   1.525440 S    
C5    N5    1.455784 S    
N9    O13   1.300387 A    
O2    Zn2   2.000781 S    
Zn1   N1    2.056198 S    
Zn2   N2    2.056198 S    
N15   O21   1.299898 A    
O5    Zn1   2.004627 S    
C6    C8    1.522755 S    
N16   O23   1.299642 A    
C13   C19   1.524065 S    
N12   H16   1.044605 S    
C18   C20   1.533568 S    
