data_mof_unit_53431.cif
_audit_creation_date              2012-12-11T16:53:53-0500
_audit_creation_method            fapswitch 2.2
_symmetry_space_group_name_H-M    P1
_symmetry_Int_Tables_number       1
_space_group_crystal_system       triclinic
_cell_length_a                    14.85736
_cell_length_b                    14.744017
_cell_length_c                    16.99181
_cell_angle_alpha                 108.777053
_cell_angle_beta                  106.18052
_cell_angle_gamma                 108.071695
_cell_volume                      3039.57861768

loop_
_atom_site_label
_atom_site_type_symbol
_atom_type_description
_atom_site_fract_x
_atom_site_fract_y
_atom_site_fract_z
_atom_type_partial_charge
C1    C     C_R   0.089785 0.283961 0.071430 -0.128445
C2    C     C_R   0.065801 0.481515 0.253137 -0.126925
C3    C     C_R   0.279055 0.784420 0.174338 -0.134378
C4    C     C_R   0.939151 0.464182 0.734464 -0.117341
C5    C     C_R   0.743913 0.470259 0.053793 -0.126563
C6    C     C_R   0.335921 0.780532 0.251611 0.058698
C7    C     C_R   0.717088 0.547915 0.039925 0.072239
C8    C     C_R   0.975543 0.418762 0.254628 0.064660
C9    C     C_R   0.999369 0.818692 0.969836 0.054502
C10   C     C_R   0.525951 0.658445 0.047563 0.166160
C11   C     C_R   0.473800 0.601394 0.085905 0.033247
C12   C     C_R   0.032569 0.479020 0.726074 0.059575
C13   C     C_R   0.529633 0.567899 0.142733 -0.201728
C14   C     C_R   0.622006 0.565434 0.139495 -0.197500
C15   C     C_R   0.657033 0.595283 0.078646 0.033647
C16   C     C_R   0.747742 0.200558 0.813076 0.149664
C17   C     C_R   0.616230 0.654885 0.043406 0.159658
C18   C     C_3   0.586244 0.652416 0.950561 -0.524756
C19   C     C_3   0.488247 0.657219 0.955626 -0.522220
C20   C     C_R   0.970229 0.377271 0.321802 0.124129
C21   C     C_R   0.043790 0.436890 0.640507 0.131702
C22   C     C_R   0.149387 0.453449 0.555674 -0.224341
C23   C     C_R   0.721889 0.193130 0.724801 0.043263
C24   C     C_R   0.142190 0.473291 0.638746 -0.174140
C25   C     C_R   0.954330 0.367375 0.558266 -0.277771
C26   C     C_R   0.960149 0.353450 0.475349 0.186238
C27   C     C_R   0.058115 0.401031 0.474723 0.192844
C28   C     C_R   0.301221 0.595579 0.003942 -0.159492
C29   C     C_R   0.062500 0.408104 0.396374 -0.293080
C30   C     C_R   0.873468 0.318735 0.318844 -0.167161
C31   C     C_R   0.868677 0.304942 0.395027 -0.224074
C32   C     C_R   0.681940 0.098667 0.637376 0.092953
C33   C     C_R   0.444121 0.854168 0.315773 0.137519
C34   C     C_R   0.360992 0.562232 0.054644 0.076621
C35   C     C_R   0.574442 0.036539 0.394566 -0.208047
C36   C     C_R   0.490649 0.952937 0.316265 -0.174515
C37   C     C_R   0.494504 0.833862 0.386436 -0.280401
C38   C     C_R   0.573950 0.918864 0.468524 0.107601
C39   C     C_R   0.608219 0.022054 0.473025 0.174426
C40   C     C_R   0.755942 0.296843 0.735331 -0.177191
C41   C     C_R   0.664031 0.110579 0.557009 -0.275410
C42   C     C_R   0.666397 0.998093 0.633057 -0.227840
C43   C     C_R   0.611287 0.905880 0.548698 0.112489
C44   C     C_R   0.084919 0.128382 0.154678 0.144075
C45   C     C_R   0.273619 0.688931 0.252213 -0.124023
C46   C     C_R   0.001511 0.108027 0.077034 0.038764
C47   C     C_R   0.910687 0.010937 0.037735 -0.210849
C48   C     C_R   0.899610 0.945805 0.082971 -0.178253
C49   C     C_R   0.978894 0.976089 0.167444 0.030932
C50   C     C_R   0.073631 0.063384 0.198537 0.159694
C51   C     C_3   0.137869 0.155183 0.291413 -0.475752
C52   C     C_R   0.296050 0.497424 0.079003 -0.120525
C53   C     C_3   0.150496 0.226752 0.243967 -0.525537
C54   C     C_R   0.112440 0.542696 0.813256 -0.136546
C55   C     C_R   0.917410 0.199818 0.997784 -0.139117
C56   C     C_R   0.752214 0.567702 0.977123 -0.143209
C57   C     C_R   0.004169 0.189169 0.042936 0.063110
C58   C     C_3   0.685499 0.125054 0.841425 -0.475862
C59   C     C_3   0.567166 0.082453 0.789045 -0.228168
C60   C     C_3   0.507288 0.010121 0.822329 -0.937288
C61   C     C_3   0.585311 0.794803 0.543454 -0.426789
C62   C     C_3   0.640953 0.791129 0.632690 -0.247704
C63   C     C_3   0.615978 0.676565 0.617181 -0.935315
C64   C     C_R   0.893037 0.394846 0.176217 -0.145469
C65   C     C_R   0.084467 0.804762 0.013279 -0.120035
C66   C     C_R   0.913731 0.720511 0.932863 -0.133341
H1    H     H_    0.168435 0.310295 0.119665 0.094728
H2    H     H_    0.639556 0.725270 0.951482 0.186586
H3    H     H_    0.863164 0.428145 0.679480 0.085369
H4    H     H_    0.569076 0.575590 0.895025 0.201754
H5    H     H_    0.485621 0.733262 0.960323 0.190375
H6    H     H_    0.416822 0.583532 0.902884 0.200285
H7    H     H_    0.138133 0.449032 0.398737 0.117909
H8    H     H_    0.800954 0.290206 0.260908 0.112337
H9    H     H_    0.225273 0.488412 0.555743 0.128158
H10   H     H_    0.793041 0.266226 0.394100 0.122581
H11   H     H_    0.213179 0.523131 0.700982 0.116795
H12   H     H_    0.748136 0.625642 0.952862 0.105691
H13   H     H_    0.878524 0.333125 0.558279 0.116760
H14   H     H_    0.684664 0.188073 0.558113 0.116426
H15   H     H_    0.694313 0.991843 0.695490 0.127999
H16   H     H_    0.603658 0.115044 0.397084 0.116174
H17   H     H_    0.456734 0.969530 0.260606 0.111045
H18   H     H_    0.463168 0.754846 0.381609 0.113457
H19   H     H_    0.845666 0.988530 0.975363 0.124303
H20   H     H_    0.827158 0.875231 0.055194 0.125034
H21   H     H_    0.092042 0.167212 0.332324 0.203926
H22   H     H_    0.212014 0.153556 0.327118 0.189208
H23   H     H_    0.813464 0.335640 0.148684 0.084101
H24   H     H_    0.112054 0.280212 0.257228 0.206930
H25   H     H_    0.329068 0.661678 0.988492 0.101269
H26   H     H_    0.232058 0.266523 0.252838 0.184525
H27   H     H_    0.734878 0.322762 0.683667 0.098747
H28   H     H_    0.319433 0.469592 0.129285 0.080609
H29   H     H_    0.195313 0.571299 0.832904 0.094420
H30   H     H_    0.839282 0.150481 0.984657 0.092228
H31   H     H_    0.296026 0.653236 0.296076 0.082789
H32   H     H_    0.145441 0.503748 0.296144 0.082832
H33   H     H_    0.525232 0.940454 0.811065 0.259806
H34   H     H_    0.165401 0.861510 0.042399 0.091657
H35   H     H_    0.528399 0.054777 0.896393 0.259442
H36   H     H_    0.422146 0.980612 0.783579 0.253357
H37   H     H_    0.546643 0.150517 0.799541 0.199415
H38   H     H_    0.541732 0.036073 0.714551 0.205723
H39   H     H_    0.707689 0.058657 0.834474 0.174717
H40   H     H_    0.704277 0.170399 0.914825 0.192461
H41   H     H_    0.530618 0.629119 0.591797 0.260400
H42   H     H_    0.643050 0.638802 0.566599 0.261791
H43   H     H_    0.656390 0.676395 0.682805 0.247455
H44   H     H_    0.726824 0.836669 0.658884 0.200863
H45   H     H_    0.836492 0.699204 0.885043 0.090079
H46   H     H_    0.614885 0.826663 0.685143 0.194520
H47   H     H_    0.499771 0.752238 0.521104 0.183014
H48   H     H_    0.606312 0.750781 0.490390 0.193094
H49   H     H_    0.307749 0.836241 0.145287 0.083377
H50   H     H_    0.729597 0.435536 0.098706 0.094813
H51   H     H_    0.496382 0.531064 0.180000 0.122769
H52   H     H_    0.656608 0.526998 0.174642 0.126839
N1    N     N_R   0.055640 0.348550 0.045600 -0.038946
N2    N     N_R   0.811290 0.303400 0.871650 -0.060267
N3    N     N_R   0.205180 0.552990 0.997660 -0.037416
N4    N     N_R   0.814810 0.361830 0.823710 -0.047154
N5    N     N_R   0.201660 0.494570 0.045600 -0.038197
N6    N     N_R   0.068420 0.560530 0.871650 -0.039850
N7    N     N_R   0.948050 0.295860 0.997660 -0.041263
N8    N     N_R   0.185190 0.638170 0.176290 -0.038643
N9    N     N_R   0.798340 0.505430 0.954400 -0.040190
N10   N     N_R   0.931580 0.439470 0.128350 -0.037504
N11   N     N_R   0.051950 0.704140 0.002340 -0.040277
N12   N     N_R   0.944360 0.651450 0.954400 -0.039170
N13   N     N_R   0.039170 0.492150 0.176290 -0.037114
N14   N     N_R   0.188710 0.696600 0.128350 -0.037433
N15   N     N_R   0.794820 0.447010 0.002340 -0.043850
N16   N     N_R   0.960830 0.507850 0.823710 -0.038313
Ni1   Ni    Ni4+2 0.119330 0.493420 0.109950 0.203834
Ni2   Ni    Ni4+2 0.880670 0.506580 0.890050 0.209755
Ni3   Ni    Ni4+2 0.872590 0.372590 0.000000 0.201580
Ni4   Ni    Ni4+2 0.127410 0.627410 0.000000 0.208171

loop_
_geom_bond_atom_site_label_1
_geom_bond_atom_site_label_2
_ccdc_geom_bond_type
C18   H4    S    
N15   Ni3   S    
C6    C45   A    
C27   C29   A    
C19   H5    S    
C35   C36   A    
C40   H27   S    
C60   H33   S    
C41   H14   S    
C16   C58   S    
C39   C41   A    
C20   C30   A    
C5    N15   A    
C26   C27   A    
C62   C63   S    
C59   H38   S    
C64   H23   S    
N6    Ni4   S    
N13   Ni1   S    
C16   N2    A    
C30   C31   A    
C30   H8    S    
C52   N5    A    
C29   H7    S    
C10   C17   A    
N14   Ni4   S    
C23   C40   A    
C33   C36   A    
C56   H12   S    
C18   C19   S    
C1    N1    A    
C56   N9    A    
C9    C66   A    
C54   N6    A    
C44   C53   S    
N11   Ni4   S    
C55   N7    A    
N2    N4    A    
C64   N10   A    
C32   C41   A    
C37   H18   S    
C52   H28   S    
C66   H45   S    
C4    C12   A    
C45   N8    A    
C3    C6    A    
C7    C15   S    
C28   C34   A    
C59   C60   S    
C13   C14   A    
C19   H6    S    
C42   H15   S    
C7    C56   A    
C60   H36   S    
C4    H3    S    
C35   H16   S    
C44   C46   A    
C2    N13   A    
C4    N16   A    
C20   C29   A    
N12   Ni2   S    
C3    N14   A    
N9    Ni2   S    
C51   H21   S    
C5    C7    A    
C28   N3    A    
N16   Ni2   S    
N7    Ni3   S    
C25   C26   A    
C12   C21   S    
N1    Ni1   S    
N5    Ni1   S    
C58   H40   S    
N3    Ni4   S    
C63   H43   S    
C35   C39   A    
N10   Ni3   S    
C37   C38   A    
C1    C57   A    
C18   H2    S    
C13   H51   S    
C47   C48   A    
C62   H44   S    
N8    N14   A    
C10   C19   S    
C53   H26   S    
C17   C18   S    
C50   C51   S    
C8    C20   S    
N4    Ni2   S    
C54   H29   S    
C8    C64   A    
N1    N7    A    
C48   C49   A    
N8    Ni1   S    
C16   C23   A    
C22   C27   A    
C55   C57   A    
C46   C57   S    
C61   H47   S    
C48   H20   S    
C42   C43   A    
C22   H9    S    
C60   H35   S    
N10   N13   A    
C47   H19   S    
C61   H48   S    
C43   C61   S    
C14   H52   S    
N11   N12   A    
C44   C50   A    
C15   C17   A    
C21   C25   A    
C46   C47   A    
C25   H13   S    
C11   C34   S    
C2    C8    A    
N9    N15   A    
C65   H34   S    
C55   H30   S    
C51   H22   S    
C65   N11   A    
C40   N4    A    
C34   C52   A    
C6    C33   S    
N6    N16   A    
C58   H39   S    
C59   H37   S    
C23   C32   S    
C58   C59   S    
C38   C43   A    
C5    H50   S    
C3    H49   S    
C11   C13   A    
C31   H10   S    
C38   C39   A    
C1    H1    S    
C33   C37   A    
C28   H25   S    
C22   C24   A    
C61   C62   S    
C9    C65   A    
N3    N5    A    
C10   C11   A    
C24   H11   S    
C26   C31   A    
C62   H46   S    
C2    H32   S    
C49   C50   A    
C21   C24   A    
C53   H24   S    
C32   C42   A    
C14   C15   A    
C45   H31   S    
N2    Ni3   S    
C36   H17   S    
C51   C53   S    
C63   H42   S    
C63   H41   S    
C12   C54   A    
C66   N12   A    
