data_mof_unit_46589.cif
_audit_creation_date              2013-03-05T16:15:56-0500
_audit_creation_method            fapswitch 2.2
_symmetry_space_group_name_H-M    P1
_symmetry_Int_Tables_number       1
_space_group_crystal_system       triclinic
_cell_length_a                    14.623921
_cell_length_b                    15.864977
_cell_length_c                    17.178433
_cell_angle_alpha                 89.795557
_cell_angle_beta                  85.442652
_cell_angle_gamma                 90.189575
_cell_volume                      3972.88466411

loop_
_atom_site_label
_atom_site_type_symbol
_atom_site_description
_atom_site_fract_x
_atom_site_fract_y
_atom_site_fract_z
_atom_type_partial_charge
O1    O     O_R   0.423830 0.620920 0.499990 -0.562816
O2    O     O_R   0.576170 0.379080 0.500010 -0.566156
O3    O     O_R   0.576200 0.620920 0.500000 -0.597433
O4    O     O_R   0.423800 0.379080 0.500000 -0.574911
C1    C     C_R   0.500118 0.660502 0.500200 0.810512
C2    C     C_R   0.499826 0.339524 0.499897 0.816543
O5    O     O_R   0.414980 0.500010 0.613590 -0.569867
O6    O     O_R   0.585020 0.499990 0.386410 -0.544702
O7    O     O_R   0.567350 0.500010 0.613600 -0.579276
O8    O     O_R   0.432650 0.499990 0.386400 -0.538233
C3    C     C_R   0.487403 0.501021 0.650886 0.938362
C4    C     C_R   0.512430 0.501095 0.349479 0.873972
Cu1   Cu    Cu3+1 0.409780 0.500000 0.499990 1.031135
Cu2   Cu    Cu3+1 0.590220 0.500000 0.500010 1.009459
C5    C     C_R   0.477940 0.503518 0.736812 -0.348925
C6    C     C_R   0.520397 0.507461 0.264324 -0.366814
C7    C     C_R   0.542946 0.547643 0.777207 0.306062
C8    C     C_R   0.464288 0.457539 0.220207 0.349535
C9    C     C_R   0.535677 0.547472 0.859231 0.370738
C10   C     C_R   0.460460 0.474255 0.140386 0.367229
C11   C     C_R   0.454548 0.516263 0.900864 -0.296140
C12   C     C_R   0.508231 0.545000 0.105341 -0.304803
C13   C     C_R   0.394533 0.465729 0.860345 0.316068
C14   C     C_R   0.576024 0.584256 0.147467 0.330652
C15   C     C_R   0.403863 0.461919 0.778512 0.316013
C16   C     C_R   0.580897 0.566678 0.227012 0.310733
C17   C     C_2   0.428340 0.539553 0.984109 0.414500
C18   C     C_2   0.487011 0.579449 0.027298 0.423898
C19   C     C_3   0.446182 0.028242 0.440525 -0.414386
C20   C     C_3   0.552463 0.972051 0.553280 -0.406037
C21   C     C_3   0.533319 0.973260 0.426617 0.338105
C22   C     C_3   0.465317 0.026924 0.567104 0.350713
H1    H     H_    0.403585 0.052325 0.394675 0.183163
H2    H     H_    0.595002 0.947991 0.599187 0.193586
C23   C     C_1   0.500459 0.750007 0.498862 -0.146300
C24   C     C_1   0.499382 0.250074 0.498926 -0.136015
C25   C     C_3   0.414587 0.971496 0.511242 0.438979
C26   C     C_3   0.584105 0.028668 0.482517 0.431999
C27   C     C_3   0.500577 0.916915 0.496773 -0.065738
C28   C     C_3   0.498164 0.083252 0.497022 -0.070915
C29   C     C_1   0.500584 0.825428 0.497595 0.097602
C30   C     C_1   0.498761 0.174686 0.497951 0.099625
C31   C     C_3   0.028850 0.423174 0.520458 0.289266
C32   C     C_3   0.971671 0.576023 0.480642 0.292221
C33   C     C_3   0.964358 0.479351 0.573719 0.162096
C34   C     C_3   0.036174 0.519740 0.427473 0.187658
N1    N     N_1   0.725810 0.500000 0.500030 -0.171872
N2    N     N_1   0.274190 0.500000 0.499970 -0.165358
C35   C     C_3   0.973735 0.442979 0.449507 0.313221
C36   C     C_3   0.026874 0.556167 0.551636 0.295536
C37   C     C_3   0.908110 0.499290 0.502227 -0.225381
C38   C     C_3   0.092129 0.499760 0.498825 -0.241377
C39   C     C_1   0.805672 0.499607 0.501007 0.345288
C40   C     C_1   0.194393 0.499904 0.499307 0.342845
O9    O     O_3   0.599686 0.606082 0.737230 -0.540530
C41   C     C_3   0.689991 0.575357 0.725490 0.163842
H3    H     H_    0.692429 0.507689 0.708170 0.158614
H4    H     H_    0.726237 0.583658 0.778957 0.187495
C42   C     C_3   0.740837 0.627468 0.661319 -0.741192
H5    H     H_    0.750484 0.693024 0.681694 0.237065
H6    H     H_    0.808704 0.599251 0.645377 0.207595
H7    H     H_    0.701548 0.629151 0.608732 0.270384
O10   O     O_3   0.405963 0.396998 0.255410 -0.505847
C43   C     C_3   0.457058 0.325330 0.274572 0.096201
H8    H     H_    0.508585 0.340577 0.316648 0.115815
H9    H     H_    0.493345 0.297370 0.221585 0.135570
C44   C     C_3   0.391985 0.259286 0.312343 -0.743890
H10   H     H_    0.339527 0.241713 0.271870 0.251941
H11   H     H_    0.431108 0.202092 0.326479 0.203010
H12   H     H_    0.356982 0.284556 0.367099 0.252553
O11   O     O_3   0.067254 0.344587 0.538520 -0.582902
C45   C     C_3   0.997659 0.285108 0.559639 0.142020
H13   H     H_    0.937909 0.290189 0.523584 0.176002
H14   H     H_    0.973653 0.292924 0.622100 0.214696
C46   C     C_3   0.037058 0.196866 0.549154 -0.832676
H15   H     H_    0.095073 0.188398 0.586419 0.268197
H16   H     H_    0.983260 0.149224 0.566113 0.208846
H17   H     H_    0.062093 0.186817 0.487157 0.244352
O12   O     O_3   0.933508 0.654608 0.462243 -0.577657
C47   C     C_3   0.003345 0.713698 0.440566 0.147944
H18   H     H_    0.026481 0.705766 0.377925 0.220186
H19   H     H_    0.063610 0.708189 0.476012 0.172007
C48   C     C_3   0.964752 0.802197 0.451522 -0.835456
H20   H     H_    0.942456 0.812910 0.514011 0.241103
H21   H     H_    0.018193 0.849464 0.432575 0.212266
H22   H     H_    0.905059 0.810600 0.416112 0.264444
O13   O     O_3   0.064854 0.614588 0.602037 -0.568984
C49   C     C_3   0.995068 0.659763 0.644834 0.078983
H23   H     H_    0.963746 0.620212 0.693353 0.206452
H24   H     H_    0.940897 0.681735 0.607780 0.169560
C50   C     C_3   0.036923 0.737355 0.679887 -0.750178
H25   H     H_    0.068294 0.778677 0.632625 0.245879
H26   H     H_    0.982847 0.773196 0.714519 0.210306
H27   H     H_    0.090507 0.718303 0.718726 0.270809
O14   O     O_3   0.938361 0.383372 0.398810 -0.563544
C51   C     C_3   0.010286 0.342123 0.354615 0.139017
H28   H     H_    0.071008 0.329936 0.388183 0.169520
H29   H     H_    0.032155 0.380474 0.302208 0.222499
C52   C     C_3   0.975449 0.257636 0.327337 -0.775046
H30   H     H_    0.917017 0.267377 0.290791 0.270620
H31   H     H_    0.031245 0.224485 0.292223 0.213272
H32   H     H_    0.952293 0.217808 0.378492 0.241120
O15   O     O_3   0.648644 0.603963 0.267299 -0.521724
C53   C     C_3   0.616880 0.682090 0.297646 0.162732
H33   H     H_    0.553074 0.674005 0.336758 0.099796
H34   H     H_    0.603039 0.726831 0.249974 0.210951
C54   C     C_3   0.690461 0.720329 0.344745 -0.655399
H35   H     H_    0.752806 0.734896 0.305769 0.265102
H36   H     H_    0.664933 0.779292 0.373199 0.210349
H37   H     H_    0.708929 0.675417 0.390635 0.256718
O16   O     O_3   0.344094 0.412609 0.739309 -0.529999
C55   C     C_3   0.260803 0.456764 0.733857 0.122952
H38   H     H_    0.272482 0.517900 0.702578 0.153667
H39   H     H_    0.225903 0.469880 0.792391 0.197096
C56   C     C_3   0.196448 0.403401 0.688889 -0.624862
H40   H     H_    0.178451 0.344366 0.721600 0.260960
H41   H     H_    0.132611 0.439004 0.680852 0.236454
H42   H     H_    0.230001 0.386970 0.630708 0.251773
Cl1   Cl    Cl    0.488579 0.690354 0.014149 -0.399423
Cl2   Cl    Cl    0.311435 0.563174 0.010059 -0.403136
Cl3   Cl    Cl    0.312926 0.398665 0.910796 -0.515254
Cl4   Cl    Cl    0.659956 0.652708 0.102426 -0.496207
O17   O     O_3   0.407548 0.421308 0.098418 -0.493732
C57   C     C_3   0.463873 0.356929 0.063559 0.068402
H43   H     H_    0.527609 0.344605 0.093478 0.084945
H44   H     H_    0.485300 0.374485 0.002207 0.148892
C58   C     C_3   0.409463 0.274941 0.063474 -0.603136
H45   H     H_    0.346351 0.283508 0.032629 0.296428
H46   H     H_    0.451962 0.225006 0.033578 0.198104
H47   H     H_    0.389412 0.254376 0.124241 0.228681
O18   O     O_3   0.609127 0.577495 0.897188 -0.520003
C59   C     C_3   0.660740 0.507268 0.920185 0.007489
H48   H     H_    0.668767 0.457820 0.874032 0.120552
H49   H     H_    0.626684 0.478010 0.973799 0.132633
C60   C     C_3   0.756796 0.535326 0.937751 -0.613337
H50   H     H_    0.754488 0.596107 0.969238 0.309380
H51   H     H_    0.788016 0.486901 0.974127 0.211022
H52   H     H_    0.801560 0.543153 0.882998 0.213197
Cl5   Cl    Cl    0.578112 0.937626 0.333096 -0.600689
Cl6   Cl    Cl    0.419422 0.063773 0.659909 -0.537715
O19   O     O_3   0.671517 0.065193 0.464971 -0.542046
C61   C     C_3   0.740092 0.004184 0.473055 0.110116
H53   H     H_    0.727397 0.946186 0.439105 0.167611
H54   H     H_    0.743708 0.987343 0.535646 0.138708
C62   C     C_3   0.832593 0.040591 0.442776 -0.753843
H55   H     H_    0.847914 0.098132 0.476103 0.243992
H56   H     H_    0.887367 0.993456 0.449710 0.195728
H57   H     H_    0.831813 0.057127 0.379951 0.267614
O20   O     O_3   0.327278 0.934828 0.528957 -0.539557
C63   C     C_3   0.258442 0.995166 0.519317 0.111890
H58   H     H_    0.254805 0.010035 0.456309 0.138319
H59   H     H_    0.270860 0.054262 0.551759 0.173879
C64   C     C_3   0.166115 0.959131 0.550520 -0.752233
H60   H     H_    0.166845 0.944886 0.613818 0.268434
H61   H     H_    0.111052 0.005541 0.542053 0.195310
H62   H     H_    0.151290 0.900276 0.518953 0.244611
Cl7   Cl    Cl    0.916376 0.452224 0.669275 -0.704831
Cl8   Cl    Cl    0.086315 0.545609 0.332326 -0.563499

loop_
_geom_bond_atom_site_label_1
_geom_bond_atom_site_label_2
_geom_bond_distance
_ccdc_geom_bond_type
C60   H52   1.108784 S    
C20   C22   1.548914 S    
O13   C49   1.408918 S    
C19   H1    1.109860 S    
C24   C30   1.196222 T    
O14   C51   1.411447 S    
O9    C41   1.408870 S    
C62   H57   1.110700 S    
C53   H34   1.112922 S    
C62   H55   1.110884 S    
O17   C57   1.418369 S    
C13   Cl3   1.768629 S    
C17   Cl2   1.773763 S    
N2    C40   1.167896 T    
C34   C35   1.547428 S    
C48   H20   1.110660 S    
O1    C1    1.278668 A    
C9    C11   1.422322 A    
C14   C16   1.401059 A    
C31   C38   1.550951 S    
C22   Cl6   1.781313 S    
C45   C46   1.521495 S    
C47   H18   1.109794 S    
C8    O10   1.387151 S    
C5    C15   1.410969 A    
C33   C37   1.563471 S    
C56   H40   1.110570 S    
C34   Cl8   1.783369 S    
C51   C52   1.521068 S    
C34   C38   1.559087 S    
C41   H3    1.114972 S    
C20   C26   1.548759 S    
C5    C7    1.406835 A    
O4    Cu1   1.929993 S    
C53   H33   1.112428 S    
C10   O17   1.383029 S    
C7    C9    1.404598 A    
C3    C5    1.472254 S    
O16   C55   1.416481 S    
C32   C34   1.547839 S    
C59   H48   1.117172 S    
C35   C37   1.553280 S    
C63   C64   1.521462 S    
C51   H29   1.109957 S    
C36   C38   1.551901 S    
C54   H35   1.110590 S    
C64   H61   1.110613 S    
C7    O9    1.385465 S    
N1    C39   1.169392 T    
C28   C30   1.450740 S    
C11   C17   1.498652 S    
C42   H5    1.110673 S    
C12   C18   1.501460 S    
Cu1   Cu2   2.638769 S    
C9    O18   1.384160 S    
C54   H36   1.109026 S    
C61   C62   1.521484 S    
O2    C2    1.279062 A    
C47   C48   1.521683 S    
C23   C29   1.196667 T    
C55   H39   1.111525 S    
C55   H38   1.113210 S    
C62   H56   1.110632 S    
C38   C40   1.496185 S    
C6    C16   1.405796 A    
C42   H6    1.105004 S    
C20   H2    1.109948 S    
C44   H10   1.111012 S    
C43   C44   1.521465 S    
C4    C6    1.461321 S    
C60   H50   1.106631 S    
C33   Cl7   1.783835 S    
C47   H19   1.113786 S    
C50   H25   1.111064 S    
O7    Cu2   1.953386 S    
C31   C35   1.545631 S    
C56   H41   1.110425 S    
C46   H17   1.110554 S    
C18   Cl1   1.772997 S    
O12   C47   1.411117 S    
C44   H11   1.110660 S    
C43   H9    1.111101 S    
O5    C3    1.280718 A    
C46   H15   1.110889 S    
C58   H46   1.110439 S    
C63   H59   1.114112 S    
C16   O15   1.385065 S    
C50   H26   1.110509 S    
C31   C33   1.547635 S    
C52   H30   1.110685 S    
C49   C50   1.520350 S    
O6    C4    1.279353 A    
C56   H42   1.110139 S    
C51   H28   1.113625 S    
C52   H32   1.110626 S    
C14   Cl4   1.766035 S    
C22   C25   1.536017 S    
C35   O14   1.412292 S    
C64   H62   1.110801 S    
C46   H16   1.110489 S    
C53   C54   1.522508 S    
O3    Cu2   1.929993 S    
O8    C4    1.282937 A    
C36   O13   1.412753 S    
C57   C58   1.522627 S    
C32   C37   1.554996 S    
C45   H14   1.109639 S    
C48   H21   1.110414 S    
C49   H24   1.111134 S    
O7    C3    1.287860 A    
C54   H37   1.110494 S    
C12   C14   1.416884 A    
O4    C2    1.278379 A    
O1    Cu1   1.928689 S    
C10   C12   1.425938 A    
C21   Cl5   1.780840 S    
C58   H45   1.108648 S    
C17   C18   1.337220 D    
C61   H54   1.112366 S    
C57   H44   1.109676 S    
C13   C15   1.403068 A    
C32   C36   1.547152 S    
C60   H51   1.110569 S    
C42   H7    1.108735 S    
O6    Cu2   1.958980 S    
C52   H31   1.110472 S    
C19   C21   1.549910 S    
C32   O12   1.412655 S    
C25   O20   1.411848 S    
C45   H13   1.113420 S    
O3    C1    1.279179 A    
O8    Cu1   1.953386 S    
Cu1   N2    1.982883 S    
C41   C42   1.520115 S    
Cu2   N1    1.982883 S    
C63   H58   1.112391 S    
C21   C26   1.536701 S    
C44   H12   1.111331 S    
C43   H8    1.111472 S    
C2    C24   1.419276 S    
C11   C13   1.412066 A    
C58   H47   1.109232 S    
O11   C45   1.410819 S    
C25   C27   1.533635 S    
O20   C63   1.410264 S    
C50   H27   1.110743 S    
C26   C28   1.533135 S    
C33   C36   1.548913 S    
C59   C60   1.525325 S    
C59   H49   1.110977 S    
C1    C23   1.420096 S    
C19   C28   1.549320 S    
C26   O19   1.411849 S    
C41   H4    1.104387 S    
C20   C27   1.549803 S    
C8    C10   1.401209 A    
C22   C28   1.541524 S    
O2    Cu2   1.928689 S    
C31   O11   1.412686 S    
C15   O16   1.386469 S    
O10   C43   1.414749 S    
O5    Cu1   1.958980 S    
C48   H22   1.111030 S    
C49   H23   1.109914 S    
C27   C29   1.451453 S    
C6    C8    1.404895 A    
C19   C25   1.549187 S    
O15   C53   1.412026 S    
C21   C27   1.542249 S    
C61   H53   1.114078 S    
C37   C39   1.499871 S    
C64   H60   1.110694 S    
O19   C61   1.410465 S    
C55   C56   1.521219 S    
O18   C59   1.420173 S    
C57   H43   1.117027 S    
