data_mof_unit_34906.cif
_audit_creation_date              2012-12-10T19:48:34-0500
_audit_creation_method            fapswitch 2.2
_symmetry_space_group_name_H-M    P1
_symmetry_Int_Tables_number       1
_space_group_crystal_system       triclinic
_cell_length_a                    10.827284
_cell_length_b                    10.624998
_cell_length_c                    9.419248
_cell_angle_alpha                 89.041413
_cell_angle_beta                  90.758055
_cell_angle_gamma                 89.149979
_cell_volume                      1083.21974018

loop_
_atom_site_label
_atom_site_type_symbol
_atom_type_description
_atom_site_fract_x
_atom_site_fract_y
_atom_site_fract_z
_atom_type_partial_charge
C1    C     C_R   0.500202 0.259372 0.501021 0.771133
C2    C     C_3   0.490857 0.037463 0.635177 -0.146910
C3    C     C_3   0.499749 0.877643 0.497349 0.034203
C4    C     C_3   0.500211 0.122356 0.502651 0.034214
C5    C     C_3   0.596468 0.954358 0.576713 -0.171306
C6    C     C_3   0.403491 0.045645 0.423282 -0.171274
C7    C     C_3   0.536108 0.607043 0.048964 -0.050837
C8    C     C_3   0.463891 0.392957 0.951037 -0.050848
C9    C     C_3   0.426742 0.586763 0.946397 -0.017107
C10   C     C_3   0.573256 0.413237 0.053604 -0.017120
C11   C     C_3   0.609558 0.520188 0.950998 -0.027386
C12   C     C_R   0.499782 0.740628 0.498979 0.771159
C13   C     C_3   0.390442 0.479812 0.049003 -0.027413
C14   C     C_R   0.262469 0.504024 0.498923 0.783042
C15   C     C_R   0.737533 0.495964 0.501076 0.783043
C16   C     C_R   0.232678 0.821177 0.191035 -0.129143
C17   C     C_R   0.767212 0.178929 0.809041 -0.129091
C18   C     C_R   0.190526 0.744494 0.301876 -0.087074
C19   C     C_R   0.809433 0.255539 0.698176 -0.087041
C20   C     C_R   0.112047 0.643704 0.272624 0.124336
C21   C     C_R   0.887977 0.356268 0.727382 0.124249
C22   C     C_R   0.076246 0.621940 0.131305 -0.179960
C23   C     C_R   0.871562 0.493783 0.502295 -0.084361
C24   C     C_R   0.923810 0.378026 0.868691 -0.179975
C25   C     C_R   0.118528 0.698834 0.021028 -0.158472
C26   C     C_R   0.881469 0.301217 0.979007 -0.158469
C27   C     C_R   0.196391 0.798803 0.051035 -0.140580
C28   C     C_R   0.803506 0.201321 0.949035 -0.140596
C29   C     C_R   0.929931 0.559450 0.392909 -0.242347
C30   C     C_R   0.070081 0.440499 0.607068 -0.242355
C31   C     C_R   0.128446 0.506182 0.497696 -0.084348
C32   C     C_R   0.942064 0.432606 0.610956 -0.000881
C33   C     C_R   0.057948 0.567350 0.389030 -0.000912
C34   C     C_3   0.605751 0.041554 0.444319 -0.175419
C35   C     C_3   0.394207 0.958443 0.555673 -0.175321
C36   C     C_3   0.509099 0.962532 0.364817 -0.146945
Cu1   Cu    Cu3+1 0.500030 0.499990 0.643150 0.934339
Cu2   Cu    Cu3+1 0.499970 0.500010 0.356850 0.934340
H1    H     H_    0.228823 0.858815 0.965768 0.117369
H2    H     H_    0.707699 0.101037 0.786828 0.121275
H3    H     H_    0.217036 0.765010 0.410190 0.088060
H4    H     H_    0.782903 0.235024 0.589877 0.088070
H5    H     H_    0.014456 0.545902 0.107510 0.118005
H6    H     H_    0.985645 0.454000 0.892452 0.118047
H7    H     H_    0.090482 0.681299 0.912495 0.131210
H8    H     H_    0.909506 0.318783 0.087545 0.131200
H9    H     H_    0.874870 0.608815 0.311917 0.154747
H10   H     H_    0.125148 0.391124 0.688045 0.154729
H11   H     H_    0.692366 0.078638 0.398973 0.116182
H12   H     H_    0.770998 0.141388 0.034330 0.117344
H13   H     H_    0.307594 0.921330 0.601054 0.116133
H14   H     H_    0.675530 0.913079 0.638664 0.123165
H15   H     H_    0.324437 0.086931 0.361326 0.123132
H16   H     H_    0.517487 0.929297 0.254183 0.122117
H17   H     H_    0.482511 0.070690 0.745836 0.122055
H18   H     H_    0.366257 0.659721 0.894910 0.120357
H19   H     H_    0.633723 0.340277 0.105111 0.120356
H20   H     H_    0.566521 0.697246 0.094759 0.112067
H21   H     H_    0.433479 0.302754 0.905243 0.112059
H22   H     H_    0.701755 0.538049 0.905425 0.130891
H23   H     H_    0.298248 0.461947 0.094575 0.130879
H24   H     H_    0.292091 0.899142 0.213281 0.121289
N1    N     N_3   0.500090 0.499970 0.858290 -0.158673
N2    N     N_3   0.499910 0.500030 0.141710 -0.158679
O1    O     O_R   0.500060 0.316850 0.620870 -0.584386
O2    O     O_R   0.499940 0.683150 0.379130 -0.584368
O3    O     O_R   0.500000 0.316860 0.379090 -0.585650
O4    O     O_R   0.500000 0.683140 0.620910 -0.585646
O5    O     O_R   0.319670 0.500010 0.620890 -0.587698
O6    O     O_R   0.680330 0.499990 0.379110 -0.587692
O7    O     O_R   0.319620 0.500010 0.379110 -0.574263
O8    O     O_R   0.680380 0.499990 0.620890 -0.574249

loop_
_geom_bond_atom_site_label_1
_geom_bond_atom_site_label_2
_ccdc_geom_bond_type
C2    C35   S    
Cu2   O6    S    
C8    C13   S    
Cu1   O5    S    
C14   O7    A    
C14   C31   S    
C7    C11   S    
C15   O8    A    
C12   O4    A    
C29   H9    S    
C23   C29   A    
C30   H10   S    
C19   C21   A    
C24   C26   A    
C11   N1    S    
C2    H17   S    
C8    H21   S    
C30   C31   A    
Cu1   O4    S    
C29   C33   A    
C6    C35   S    
C9    C13   S    
C3    C12   S    
C1    O3    A    
C28   H12   S    
Cu2   O2    S    
C27   H1    S    
C22   C25   A    
Cu1   O1    S    
C1    O1    A    
C31   C33   A    
C5    H14   S    
C7    H20   S    
C18   C20   A    
C19   H4    S    
C16   C27   A    
C15   C23   S    
C16   H24   S    
Cu1   N1    S    
Cu2   N2    S    
C21   C32   S    
C4    C34   S    
C10   H19   S    
C4    C6    S    
C18   H3    S    
C12   O2    A    
C17   H2    S    
C2    C4    S    
Cu1   Cu2   S    
C22   H5    S    
C3    C35   S    
C5    C34   S    
C9    H18   S    
C20   C33   S    
C16   C18   A    
C20   C22   A    
C35   H13   S    
C24   H6    S    
C14   O5    A    
Cu1   O8    S    
C2    C5    S    
C6    H15   S    
C11   H22   S    
C25   H7    S    
C7    C9    S    
C15   O6    A    
Cu2   O7    S    
C34   H11   S    
C9    N1    S    
C17   C28   A    
C10   N2    S    
C3    C5    S    
C25   C27   A    
C26   C28   A    
C1    C4    S    
C23   C32   A    
C30   C32   A    
C13   N2    S    
C3    C36   S    
C17   C19   A    
C6    C36   S    
C34   C36   S    
C7    N2    S    
C36   H16   S    
C10   C11   S    
C26   H8    S    
C8    N1    S    
C13   H23   S    
Cu2   O3    S    
C8    C10   S    
C21   C24   A    
