data_mof_unit_50353.cif
_audit_creation_date              2012-12-11T17:16:05-0500
_audit_creation_method            fapswitch 2.2
_symmetry_space_group_name_H-M    P1
_symmetry_Int_Tables_number       1
_space_group_crystal_system       triclinic
_cell_length_a                    14.631495
_cell_length_b                    7.226443
_cell_length_c                    13.478323
_cell_angle_alpha                 90.000354
_cell_angle_beta                  99.53553
_cell_angle_gamma                 90.00123
_cell_volume                      1405.42179443

loop_
_atom_site_label
_atom_site_type_symbol
_atom_type_description
_atom_site_fract_x
_atom_site_fract_y
_atom_site_fract_z
_atom_type_partial_charge
O1    O     O_R   0.398210 0.494340 0.401550 -0.537445
O2    O     O_R   0.601790 0.994340 0.598450 -0.537451
O3    O     O_R   0.586310 0.821730 0.403360 -0.559208
O4    O     O_R   0.413690 0.321730 0.596640 -0.559194
C1    C     C_R   0.615051 0.654877 0.381494 0.764786
C2    C     C_R   0.384964 0.154874 0.618520 0.764768
O5    O     O_R   0.397970 0.823900 0.389580 -0.535882
O6    O     O_R   0.602030 0.323900 0.610420 -0.535804
O7    O     O_R   0.412100 0.996500 0.584560 -0.498893
O8    O     O_R   0.587900 0.496500 0.415440 -0.498823
C3    C     C_R   0.365044 0.655228 0.363007 0.740308
C4    C     C_R   0.634956 0.155230 0.636993 0.740415
O9    O     O_3   0.504860 0.661550 0.563990 -0.370683
O10   O     O_3   0.495140 0.161550 0.436010 -0.370692
V1    V     V_3+5 0.499100 0.935510 0.488130 1.526029
V2    V     V_3+5 0.500900 0.435510 0.511870 1.526191
C5    C     C_1   0.715991 0.144649 0.716897 -0.153788
C6    C     C_1   0.284009 0.644646 0.283103 -0.153874
C7    C     C_1   0.783883 0.134129 0.783258 -0.161105
C8    C     C_1   0.216117 0.634132 0.216742 -0.161204
C9    C     C_3   0.280675 0.226483 0.867738 0.608578
C10   C     C_3   0.719206 0.725617 0.132128 0.608426
C11   C     C_3   0.354362 0.232145 0.794139 0.019112
C12   C     C_3   0.645515 0.731312 0.205721 0.019204
C13   C     C_3   0.151966 0.246899 0.716762 -0.385944
C14   C     C_3   0.847898 0.747654 0.283054 -0.385949
C15   C     C_3   0.209456 0.934849 0.777222 -0.502878
C16   C     C_3   0.790931 0.434929 0.223230 -0.503202
C17   C     C_3   0.188379 0.133359 0.813355 -0.025668
C18   C     C_3   0.811660 0.633344 0.186687 -0.025493
C19   C     C_3   0.314331 0.143500 0.690143 0.010281
C20   C     C_3   0.685701 0.643498 0.309889 0.010398
C21   C     C_3   0.226211 0.257663 0.646718 -0.460210
C22   C     C_3   0.773642 0.758405 0.353086 -0.460283
C23   C     C_3   0.281983 0.938050 0.704353 0.680769
C24   C     C_3   0.718382 0.438143 0.296075 0.680723
H1    H     H_    0.196009 0.207046 0.570376 0.190295
H2    H     H_    0.803935 0.708392 0.429525 0.190256
O11   O     O_R   0.912140 0.786650 0.084610 -0.515131
O12   O     O_R   0.087860 0.286650 0.915390 -0.514966
O13   O     O_R   0.102040 0.454810 0.110430 -0.531127
O14   O     O_R   0.897960 0.954810 0.889570 -0.531133
C25   C     C_R   0.135023 0.623563 0.136906 0.725289
C26   C     C_R   0.864976 0.123561 0.863094 0.725353
O15   O     O_R   0.913690 0.457060 0.096650 -0.551974
O16   O     O_R   0.086310 0.957060 0.903350 -0.551995
O17   O     O_R   0.898200 0.284560 0.901540 -0.535242
O18   O     O_R   0.101800 0.784560 0.098460 -0.535313
C27   C     C_R   0.884622 0.625370 0.117669 0.748066
C28   C     C_R   0.115400 0.125371 0.882355 0.747954
O19   O     O_3   0.995160 0.617270 0.936040 -0.379008
O20   O     O_3   0.004840 0.117270 0.063960 -0.379131
V3    V     V_3+5 0.000900 0.343280 0.011870 1.478483
V4    V     V_3+5 0.999100 0.843280 0.988130 1.478355
O21   O     O_3   0.260647 0.410004 0.892294 -0.647037
H3    H     H_    0.317142 0.461405 0.934322 0.295464
O22   O     O_3   0.738925 0.909098 0.107193 -0.647115
H4    H     H_    0.682365 0.959869 0.064999 0.295638
O23   O     O_3   0.239250 0.870429 0.609856 -0.650561
H5    H     H_    0.227406 0.736397 0.617725 0.287032
O24   O     O_3   0.761197 0.371293 0.390710 -0.650636
H6    H     H_    0.773235 0.237265 0.383122 0.286979
H7    H     H_    0.087919 0.181541 0.675419 0.153184
H8    H     H_    0.912058 0.682910 0.324518 0.153161
O25   O     O_3   0.314540 0.133283 0.958649 -0.644552
H9    H     H_    0.335938 0.008454 0.943094 0.282208
O26   O     O_3   0.685488 0.631674 0.041408 -0.644606
H10   H     H_    0.664315 0.506800 0.057206 0.282286
O27   O     O_3   0.438582 0.148015 0.836146 -0.657173
H11   H     H_    0.469602 0.232691 0.889312 0.309059
O28   O     O_3   0.561434 0.646446 0.163886 -0.657130
H12   H     H_    0.530289 0.730561 0.110510 0.308903
H13   H     H_    0.369716 0.380066 0.779025 0.136995
H14   H     H_    0.629911 0.879229 0.220538 0.136780
H15   H     H_    0.132643 0.389408 0.736663 0.192817
H16   H     H_    0.866975 0.890163 0.262874 0.192905
H17   H     H_    0.245194 0.404942 0.637748 0.161482
H18   H     H_    0.754424 0.905645 0.361765 0.161982
H19   H     H_    0.143611 0.872640 0.737946 0.173058
H20   H     H_    0.856887 0.373379 0.262641 0.172792
H21   H     H_    0.231970 0.841600 0.842205 0.154229
H22   H     H_    0.768581 0.341144 0.158442 0.154444
O29   O     O_3   0.358467 0.822092 0.739573 -0.630059
H23   H     H_    0.376679 0.837190 0.813139 0.296004
O30   O     O_3   0.642091 0.321564 0.261052 -0.630001
H24   H     H_    0.623877 0.336119 0.187455 0.296122

loop_
_geom_bond_atom_site_label_1
_geom_bond_atom_site_label_2
_ccdc_geom_bond_type
O21   H3    S    
C3    C6    S    
C15   C17   S    
C11   O27   S    
O1    C3    A    
O2    C4    A    
C2    O7    A    
O30   H24   S    
C7    C26   S    
O5    C3    A    
C20   C24   S    
C11   H13   S    
C15   H19   S    
O11   V4    S    
C23   O23   S    
C13   H7    S    
C14   H8    S    
C14   C22   S    
C4    C5    S    
C14   H16   S    
C19   C21   S    
C25   O18   A    
C26   O17   A    
O17   V3    S    
C1    C20   S    
O5    V1    S    
C2    C19   S    
O15   V3    S    
O23   H5    S    
O6    V2    S    
O13   C25   A    
O24   H6    S    
O14   C26   A    
C10   O22   S    
C17   C28   S    
C13   C17   S    
C16   H22   S    
O26   H10   S    
C15   H21   S    
O4    C2    A    
C9    O21   S    
C23   O29   S    
C15   C23   S    
C9    C17   S    
C21   H1    S    
C13   H15   S    
C20   C22   S    
O4    V2    S    
O18   V4    S    
C12   C20   S    
O29   H23   S    
O15   C27   A    
O6    C4    A    
O16   V4    S    
O1    V2    S    
O2    V1    S    
O13   V3    S    
O11   C27   A    
C18   C27   S    
C14   C18   S    
C9    C11   S    
C10   C12   S    
C24   O24   S    
C8    C25   S    
O3    V1    S    
O20   V3    S    
C10   C18   S    
C9    O25   S    
C22   H2    S    
O3    C1    A    
C12   H14   S    
C24   O30   S    
O16   C28   A    
O19   V4    S    
C16   C18   S    
O7    V1    S    
C1    O8    A    
O8    V2    S    
C22   H18   S    
C21   H17   S    
O22   H4    S    
O12   C28   A    
C19   C23   S    
C5    C7    T    
C6    C8    T    
O25   H9    S    
O27   H11   S    
C16   H20   S    
C10   O26   S    
O28   H12   S    
C16   C24   S    
O12   V3    S    
O9    V2    S    
C13   C21   S    
O10   V1    S    
O14   V4    S    
C12   O28   S    
C11   C19   S    
