data_mof_unit_20588.cif
_audit_creation_date              2012-12-10T21:32:51-0500
_audit_creation_method            fapswitch 2.2
_symmetry_space_group_name_H-M    P1
_symmetry_Int_Tables_number       1
_space_group_crystal_system       triclinic
_cell_length_a                    11.5053
_cell_length_b                    16.255244
_cell_length_c                    16.722198
_cell_angle_alpha                 88.265407
_cell_angle_beta                  90.823191
_cell_angle_gamma                 90.517959
_cell_volume                      3125.53829529

loop_
_atom_site_label
_atom_site_type_symbol
_atom_type_description
_atom_site_fract_x
_atom_site_fract_y
_atom_site_fract_z
_atom_type_partial_charge
C1    C     C_R   0.494767 0.490063 0.653049 0.876851
C2    C     C_R   0.485592 0.109790 0.476460 0.255384
C3    C     C_R   0.631375 0.839713 0.525226 0.099954
C4    C     C_R   0.426513 0.161820 0.419959 0.104537
C5    C     C_R   0.617073 0.753415 0.528853 -0.067478
C6    C     C_R   0.426882 0.247830 0.429152 -0.061033
C7    C     C_R   0.717951 0.498774 0.500311 0.921085
C8    C     C_R   0.282068 0.501018 0.500443 0.909302
C9    C     C_1   0.838396 0.496596 0.501351 -0.208815
C10   C     C_1   0.161668 0.502054 0.501969 -0.172047
C11   C     C_1   0.940704 0.497359 0.502258 -0.030723
C12   C     C_R   0.503058 0.510385 0.346937 0.871713
C13   C     C_1   0.059383 0.500032 0.502637 -0.011222
C14   C     C_R   0.474440 0.489375 0.738945 -0.035488
C15   C     C_R   0.514904 0.514584 0.260464 -0.044038
C16   C     C_R   0.485710 0.564061 0.778667 -0.268831
C17   C     C_R   0.522247 0.441045 0.218906 -0.271396
C18   C     C_R   0.461365 0.568472 0.859369 0.013243
C19   C     C_R   0.533913 0.442769 0.136279 0.012244
C20   C     C_R   0.433259 0.494827 0.902180 0.265929
C21   C     C_R   0.535450 0.519871 0.095292 0.269104
C22   C     C_R   0.413565 0.421842 0.861861 -0.206181
C23   C     C_R   0.431927 0.419478 0.779989 -0.233614
C24   C     C_R   0.534340 0.593027 0.136814 -0.200765
C25   C     C_R   0.543672 0.364203 0.093676 0.134503
C26   C     C_R   0.464782 0.299175 0.108867 -0.164482
C27   C     C_R   0.472944 0.225917 0.067647 -0.143707
C28   C     C_R   0.559946 0.216763 0.011228 -0.121302
C29   C     C_R   0.639324 0.280705 0.996193 -0.154477
C30   C     C_R   0.631503 0.354074 0.037207 -0.122318
C31   C     C_R   0.465454 0.649904 0.897788 0.136005
C32   C     C_R   0.374567 0.673632 0.947296 -0.132315
C33   C     C_R   0.378145 0.750088 0.983409 -0.160531
C34   C     C_R   0.523619 0.590604 0.219317 -0.237922
C35   C     C_R   0.472022 0.803662 0.970246 -0.127618
C36   C     C_R   0.562565 0.780869 0.920971 -0.143076
C37   C     C_R   0.559554 0.704387 0.884881 -0.159696
C38   C     C_R   0.619868 0.272069 0.608008 0.203601
C39   C     C_R   0.734603 0.296330 0.591349 -0.123149
C40   C     C_R   0.807852 0.324286 0.652400 -0.164114
C41   C     C_R   0.768534 0.325058 0.731043 -0.123634
C42   C     C_R   0.656612 0.296701 0.748815 -0.140243
C43   C     C_R   0.582919 0.269508 0.687684 -0.133875
C44   C     C_R   0.310046 0.727872 0.459955 0.198266
C45   C     C_R   0.419576 0.765073 0.488967 0.026270
C46   C     C_R   0.299984 0.704547 0.379993 -0.121463
C47   C     C_R   0.192388 0.679523 0.348848 -0.179119
C48   C     C_R   0.093828 0.679376 0.396770 -0.108002
C49   C     C_R   0.102971 0.703182 0.476274 -0.130022
C50   C     C_R   0.210762 0.726922 0.508060 -0.131404
C51   C     C_R   0.592855 0.097716 0.609882 0.174063
C52   C     C_R   0.518814 0.059215 0.665907 -0.142454
C53   C     C_R   0.565206 0.011850 0.729629 -0.147510
C54   C     C_R   0.685547 0.003047 0.738029 -0.107124
C55   C     C_R   0.759722 0.041568 0.682696 -0.140928
C56   C     C_R   0.546806 0.234628 0.545119 0.027658
C57   C     C_R   0.713693 0.088638 0.618637 -0.137483
C58   C     C_R   0.318111 0.900960 0.482248 0.171277
C59   C     C_R   0.269176 0.935154 0.550018 -0.144778
C60   C     C_R   0.166495 0.980281 0.542770 -0.147560
C61   C     C_R   0.112018 0.991338 0.468013 -0.102914
C62   C     C_R   0.160322 0.957484 0.400323 -0.138910
C63   C     C_R   0.263213 0.912548 0.407236 -0.135181
C64   C     C_3   0.750514 0.874320 0.543164 -0.915329
C65   C     C_3   0.361954 0.128290 0.348877 -0.920257
C66   C     C_R   0.426652 0.852303 0.490630 -0.179532
C67   C     C_R   0.542935 0.147479 0.541901 -0.182844
C68   C     C_R   0.535778 0.890985 0.504944 0.256186
H1    H     H_    0.520146 0.381955 0.250691 0.165594
H2    H     H_    0.411563 0.176297 0.079311 0.125812
H3    H     H_    0.566019 0.160063 0.979294 0.122226
H4    H     H_    0.707134 0.273382 0.952850 0.123425
H5    H     H_    0.694125 0.402848 0.025112 0.127398
H6    H     H_    0.300753 0.633090 0.957672 0.127896
H7    H     H_    0.308004 0.767841 0.021547 0.127712
H8    H     H_    0.474597 0.862846 0.998212 0.120984
H9    H     H_    0.635281 0.822421 0.910854 0.122045
H10   H     H_    0.631174 0.687402 0.847624 0.122762
H11   H     H_    0.767580 0.292868 0.531208 0.129358
H12   H     H_    0.511015 0.620111 0.746513 0.168858
H13   H     H_    0.895577 0.344274 0.638891 0.138740
H14   H     H_    0.825444 0.346207 0.778390 0.126027
H15   H     H_    0.627080 0.295304 0.809971 0.137809
H16   H     H_    0.497708 0.245122 0.702314 0.106792
H17   H     H_    0.374611 0.707974 0.341350 0.120157
H18   H     H_    0.185050 0.661609 0.287161 0.133512
H19   H     H_    0.010372 0.660719 0.372368 0.133511
H20   H     H_    0.026502 0.703240 0.513228 0.132477
H21   H     H_    0.216563 0.746558 0.569314 0.116958
H22   H     H_    0.425462 0.065709 0.659888 0.118349
H23   H     H_    0.388831 0.366035 0.894614 0.155250
H24   H     H_    0.507892 0.981947 0.772491 0.125419
H25   H     H_    0.721295 0.966294 0.787359 0.114381
H26   H     H_    0.852863 0.034491 0.689119 0.122591
H27   H     H_    0.771847 0.117450 0.575610 0.115322
H28   H     H_    0.310549 0.926675 0.608239 0.120638
H29   H     H_    0.129023 0.006548 0.595123 0.120978
H30   H     H_    0.032418 0.026170 0.462539 0.120895
H31   H     H_    0.118232 0.966282 0.342445 0.126866
H32   H     H_    0.300279 0.886996 0.354360 0.117708
H33   H     H_    0.774485 0.859826 0.606553 0.240923
H34   H     H_    0.536844 0.651873 0.104681 0.162787
H35   H     H_    0.815186 0.846078 0.503907 0.234051
H36   H     H_    0.755969 0.941862 0.532848 0.262883
H37   H     H_    0.267827 0.141359 0.353904 0.242603
H38   H     H_    0.394823 0.158529 0.293090 0.230844
H39   H     H_    0.372648 0.061042 0.343415 0.262566
H40   H     H_    0.413282 0.363402 0.749199 0.155649
H41   H     H_    0.520657 0.647907 0.250538 0.156264
H42   H     H_    0.690763 0.715262 0.544944 0.160362
H43   H     H_    0.381415 0.287142 0.385904 0.150871
H44   H     H_    0.396029 0.305550 0.151753 0.123683
N1    N     N_2   0.438917 0.490392 0.986083 -0.193525
N2    N     N_2   0.528257 0.525109 0.011845 -0.195371
N3    N     N_R   0.513820 0.716920 0.509720 -0.124129
N4    N     N_R   0.486180 0.283080 0.490280 -0.124019
N5    N     N_2   0.551433 0.979128 0.505866 -0.162577
N6    N     N_2   0.477229 0.021742 0.468379 -0.163107
O1    O     O_R   0.495050 0.422540 0.612660 -0.609693
O2    O     O_R   0.504950 0.577460 0.387340 -0.621679
O3    O     O_R   0.503930 0.561840 0.618900 -0.623998
O4    O     O_R   0.496070 0.438160 0.381100 -0.628120
O5    O     O_R   0.661110 0.430350 0.496870 -0.611779
O6    O     O_R   0.338890 0.569650 0.503130 -0.601722
O7    O     O_R   0.669990 0.569650 0.503110 -0.625679
O8    O     O_R   0.330010 0.430350 0.496890 -0.617079
Zn1   Zn    Zn3+2 0.494070 0.406980 0.495830 0.941720
Zn2   Zn    Zn3+2 0.505930 0.593020 0.504170 0.938551

loop_
_geom_bond_atom_site_label_1
_geom_bond_atom_site_label_2
_ccdc_geom_bond_type
C64   H35   S    
C66   C68   A    
C41   C42   A    
C17   H1    S    
O8    Zn1   S    
C6    H43   S    
C52   H22   S    
C3    C68   A    
C2    N6    S    
C3    C64   S    
C52   C53   A    
C26   C27   A    
C62   C63   A    
C28   C29   A    
C19   C21   A    
C36   H9    S    
C32   H6    S    
C4    C65   S    
C5    H42   S    
C23   H40   S    
C25   C30   A    
C15   C17   A    
C1    O1    A    
O4    Zn1   S    
C54   H25   S    
C17   C19   A    
C12   O2    A    
C33   H7    S    
C61   H30   S    
C44   C46   A    
N4    Zn1   S    
O7    Zn2   S    
C22   H23   S    
C51   C57   A    
C15   C34   A    
C24   H34   S    
O6    Zn2   S    
C46   H17   S    
C59   C60   A    
C5    N3    A    
C43   H16   S    
C49   H20   S    
C55   H26   S    
C65   H37   S    
C58   C66   S    
C64   H33   S    
C35   H8    S    
C51   C52   A    
C47   H18   S    
C38   C39   A    
O3    Zn2   S    
C4    C6    A    
C2    C67   A    
C39   C40   A    
C30   H5    S    
C8    O6    A    
C63   H32   S    
C25   C26   A    
C53   C54   A    
C24   C34   A    
N3    Zn2   S    
C31   C37   A    
C60   C61   A    
C16   H12   S    
C35   C36   A    
C39   H11   S    
C14   C23   A    
C2    C4    A    
C29   C30   A    
C68   N5    S    
C45   N3    A    
C50   H21   S    
O5    Zn1   S    
C47   C48   A    
C12   C15   S    
C53   H24   S    
C56   N4    A    
C48   H19   S    
C38   C56   S    
C16   C18   A    
C51   C67   S    
C7    O7    A    
C9    C11   T    
C6    N4    A    
C27   H2    S    
C8    O8    A    
C40   C41   A    
C20   C22   A    
C60   H29   S    
C55   C57   A    
C57   H27   S    
C14   C16   A    
C28   H3    S    
C42   C43   A    
C26   H44   S    
C65   H38   S    
C45   C66   A    
C44   C45   S    
N1    N2    D    
C44   C50   A    
C58   C63   A    
C7    C9    S    
C54   C55   A    
C36   C37   A    
C40   H13   S    
C31   C32   A    
C64   H36   S    
C42   H15   S    
C7    O5    A    
C21   N2    S    
C3    C5    A    
C10   C13   T    
O2    Zn2   S    
C18   C31   S    
C56   C67   A    
C37   H10   S    
C32   C33   A    
C29   H4    S    
C58   C59   A    
C38   C43   A    
N5    N6    D    
C11   C13   S    
C20   N1    S    
C48   C49   A    
C41   H14   S    
C33   C35   A    
C18   C20   A    
C61   C62   A    
C19   C25   S    
C1    O3    A    
C46   C47   A    
C62   H31   S    
C12   O4    A    
C8    C10   S    
C49   C50   A    
C59   H28   S    
C21   C24   A    
C27   C28   A    
C34   H41   S    
C22   C23   A    
C1    C14   S    
C65   H39   S    
O1    Zn1   S    
