data_mof_unit_36921.cif
_audit_creation_date              2012-12-11T14:10:40-0500
_audit_creation_method            fapswitch 2.2
_symmetry_space_group_name_H-M    P1
_symmetry_Int_Tables_number       1
_space_group_crystal_system       triclinic
_cell_length_a                    19.830733
_cell_length_b                    17.202972
_cell_length_c                    15.461902
_cell_angle_alpha                 89.988228
_cell_angle_beta                  52.235826
_cell_angle_gamma                 90.022747
_cell_volume                      4169.9213728

loop_
_atom_site_label
_atom_site_type_symbol
_atom_type_description
_atom_site_fract_x
_atom_site_fract_y
_atom_site_fract_z
_atom_type_partial_charge
C1    C     C_R   0.341248 0.177264 0.043887 0.716293
C2    C     C_R   0.621922 0.802118 0.008136 0.678850
C3    C     C_R   0.658819 0.177285 0.956079 0.710197
C4    C     C_R   0.378152 0.802074 0.991761 0.678918
C5    C     C_R   0.841239 0.677255 0.043907 0.716317
C6    C     C_R   0.121918 0.302118 0.008141 0.678824
C7    C     C_R   0.158818 0.677286 0.956080 0.710195
C8    C     C_R   0.878152 0.302074 0.991760 0.678914
C9    C     C_3   0.330893 0.269901 0.543246 0.047533
C10   C     C_3   0.763782 0.786377 0.440053 0.038742
C11   C     C_3   0.678105 0.261070 0.448545 0.039846
C12   C     C_3   0.227613 0.795446 0.568667 0.033067
C13   C     C_3   0.831177 0.770244 0.542966 0.047635
C14   C     C_3   0.263985 0.286701 0.439815 0.038628
C15   C     C_3   0.178143 0.761032 0.448516 0.039837
C16   C     C_3   0.727630 0.295423 0.568649 0.033096
C17   C     C_2   0.280936 0.689824 0.965380 -0.137851
C18   C     C_2   0.815271 0.252904 0.902088 -0.114237
C19   C     C_2   0.719299 0.689964 0.034294 -0.139657
C20   C     C_2   0.185001 0.253002 0.097565 -0.112050
C21   C     C_2   0.780933 0.189825 0.965385 -0.137840
C22   C     C_2   0.315269 0.752905 0.902089 -0.114237
C23   C     C_2   0.219334 0.189987 0.034237 -0.139574
C24   C     C_2   0.684993 0.753001 0.097583 -0.112129
C25   C     C_R   0.346521 0.831142 0.220130 -0.100034
C26   C     C_R   0.608834 0.197275 0.785957 -0.061210
C27   C     C_R   0.653776 0.831634 0.779703 -0.107428
C28   C     C_R   0.391425 0.197194 0.214267 -0.051714
C29   C     C_R   0.846518 0.331145 0.220132 -0.100029
C30   C     C_R   0.108841 0.697272 0.785954 -0.061251
C31   C     C_R   0.153766 0.331624 0.779726 -0.107317
C32   C     C_R   0.891468 0.697200 0.214267 -0.051797
C33   C     C_R   0.367547 0.888437 0.895122 -0.237851
C34   C     C_R   0.668692 0.087421 0.051074 -0.241299
C35   C     C_R   0.632525 0.888455 0.104789 -0.238471
C36   C     C_R   0.331382 0.087505 0.948768 -0.244903
C37   C     C_R   0.867547 0.388436 0.895121 -0.237869
C38   C     C_R   0.168693 0.587421 0.051074 -0.241284
C39   C     C_R   0.132526 0.388457 0.104788 -0.238434
C40   C     C_R   0.831374 0.587499 0.948786 -0.244940
C41   C     C_R   0.397943 0.104829 0.310038 -0.144832
C42   C     C_R   0.645114 0.922973 0.683988 -0.127217
C43   C     C_R   0.601595 0.105399 0.690272 -0.142486
C44   C     C_R   0.354621 0.922812 0.315935 -0.124457
C45   C     C_R   0.897972 0.604817 0.310028 -0.144771
C46   C     C_R   0.145137 0.422973 0.683996 -0.127290
C47   C     C_R   0.101604 0.605395 0.690267 -0.142454
C48   C     C_R   0.854623 0.422812 0.315935 -0.124423
C49   C     C_R   0.289834 0.150029 0.018248 -0.070281
C50   C     C_R   0.648985 0.812139 0.070454 -0.052858
C51   C     C_R   0.710298 0.149949 0.981545 -0.071086
C52   C     C_R   0.351158 0.812083 0.929363 -0.051100
C53   C     C_R   0.789820 0.650018 0.018277 -0.070266
C54   C     C_R   0.148986 0.312142 0.070452 -0.052846
C55   C     C_R   0.210297 0.649950 0.981545 -0.071085
C56   C     C_R   0.851159 0.312082 0.929362 -0.051108
C57   C     C_R   0.303211 0.865810 0.321608 0.006195
C58   C     C_R   0.625760 0.180285 0.687715 0.007890
C59   C     C_R   0.696856 0.866309 0.678031 0.012973
C60   C     C_R   0.373912 0.179745 0.312888 0.018622
C61   C     C_R   0.803210 0.365814 0.321610 0.006200
C62   C     C_R   0.125774 0.680280 0.687709 0.007883
C63   C     C_R   0.196872 0.366302 0.678060 0.012942
C64   C     C_R   0.873983 0.679743 0.312875 0.018681
C65   C     C_3   0.289144 0.205280 0.523335 0.017174
C66   C     C_3   0.805433 0.851317 0.459334 0.014522
C67   C     C_3   0.720961 0.204925 0.477483 0.049469
C68   C     C_3   0.184807 0.851805 0.539853 0.045563
C69   C     C_3   0.789539 0.705335 0.523318 0.017096
C70   C     C_3   0.305742 0.351360 0.459369 0.014539
C71   C     C_3   0.221006 0.704918 0.477481 0.049451
C72   C     C_3   0.684832 0.351814 0.539861 0.045501
C73   C     C_3   0.714138 0.757794 0.558365 -0.233913
C74   C     C_3   0.382229 0.297989 0.422584 -0.254079
C75   C     C_3   0.287876 0.765833 0.450466 -0.269477
C76   C     C_3   0.616508 0.290126 0.568798 -0.280340
C77   C     C_3   0.214012 0.258049 0.558144 -0.233922
C78   C     C_3   0.882185 0.798263 0.422314 -0.254062
C79   C     C_3   0.787862 0.265810 0.450446 -0.269480
C80   C     C_3   0.116516 0.790087 0.568766 -0.280370
C81   C     C_3   0.756890 0.824001 0.577956 0.112502
C82   C     C_3   0.338220 0.232416 0.404278 0.108911
C83   C     C_3   0.243856 0.823098 0.421351 0.113776
C84   C     C_3   0.661617 0.233190 0.596565 0.113147
C85   C     C_3   0.256875 0.323964 0.578006 0.112578
C86   C     C_3   0.838288 0.732396 0.404282 0.108869
C87   C     C_3   0.743849 0.323106 0.421357 0.113766
C88   C     C_3   0.161632 0.733184 0.596560 0.113157
H1    H     H_    0.326512 0.780817 0.199459 0.160634
H2    H     H_    0.607070 0.254627 0.815571 0.186247
H3    H     H_    0.673931 0.781432 0.800309 0.149409
H4    H     H_    0.393657 0.254656 0.184611 0.169828
H5    H     H_    0.826507 0.280821 0.199463 0.160620
H6    H     H_    0.107077 0.754625 0.815567 0.186253
H7    H     H_    0.173893 0.281413 0.800351 0.149422
H8    H     H_    0.893685 0.754666 0.184630 0.169782
H9    H     H_    0.363876 0.914206 0.834285 0.142539
H10   H     H_    0.687999 0.053672 0.091594 0.153024
H11   H     H_    0.636241 0.914199 0.165591 0.141903
H12   H     H_    0.312093 0.053825 0.908175 0.152852
H13   H     H_    0.863877 0.414205 0.834284 0.142544
H14   H     H_    0.188000 0.553672 0.091592 0.153024
H15   H     H_    0.136245 0.414201 0.165587 0.141911
H16   H     H_    0.812078 0.553815 0.908202 0.152858
H17   H     H_    0.405237 0.077127 0.366596 0.110713
H18   H     H_    0.656554 0.957001 0.617516 0.114811
H19   H     H_    0.594926 0.077947 0.632969 0.110447
H20   H     H_    0.342672 0.956642 0.382868 0.111395
H21   H     H_    0.905290 0.577097 0.366552 0.110698
H22   H     H_    0.156605 0.456995 0.617501 0.114776
H23   H     H_    0.094942 0.577942 0.632958 0.110429
H24   H     H_    0.842675 0.456643 0.382868 0.111362
H25   H     H_    0.645742 0.740855 0.613202 0.145037
H26   H     H_    0.450882 0.313722 0.366808 0.134583
H27   H     H_    0.357493 0.755552 0.402752 0.143692
H28   H     H_    0.546739 0.299595 0.617499 0.138974
H29   H     H_    0.145547 0.241329 0.612789 0.144935
H30   H     H_    0.950771 0.814210 0.366341 0.134673
H31   H     H_    0.857477 0.255503 0.402712 0.143706
H32   H     H_    0.046744 0.799530 0.617446 0.138945
H33   H     H_    0.292388 0.674508 0.023219 0.200295
H34   H     H_    0.804683 0.267452 0.843083 0.191432
H35   H     H_    0.707872 0.674699 0.976415 0.197896
H36   H     H_    0.195568 0.267506 0.156596 0.193040
H37   H     H_    0.792378 0.174514 0.023234 0.200280
H38   H     H_    0.304676 0.767457 0.843090 0.191434
H39   H     H_    0.207941 0.174753 0.976318 0.197831
H40   H     H_    0.695581 0.767527 0.156589 0.193047
N1    N     N_R   0.408680 0.130810 0.995780 -0.106565
N2    N     N_R   0.591320 0.869190 0.004220 -0.102795
N3    N     N_R   0.591320 0.130810 0.004220 -0.106670
N4    N     N_R   0.408680 0.869190 0.995780 -0.103960
N5    N     N_R   0.908680 0.630810 0.995780 -0.106557
N6    N     N_R   0.091320 0.369190 0.004220 -0.102800
N7    N     N_R   0.091320 0.630810 0.004220 -0.106669
N8    N     N_R   0.908680 0.369190 0.995780 -0.103958
N9    N     N_R   0.421410 0.867210 0.153620 -0.033060
N10   N     N_R   0.578590 0.132790 0.846380 -0.055576
N11   N     N_R   0.578590 0.867210 0.846380 -0.031012
N12   N     N_R   0.421410 0.132790 0.153620 -0.054712
N13   N     N_R   0.921410 0.367210 0.153620 -0.033056
N14   N     N_R   0.078590 0.632790 0.846380 -0.055576
N15   N     N_R   0.078590 0.367210 0.846380 -0.031042
N16   N     N_R   0.921410 0.632790 0.153620 -0.054664
N17   N     N_R   0.403840 0.921910 0.935760 -0.074893
N18   N     N_R   0.596160 0.078090 0.064240 -0.072946
N19   N     N_R   0.596160 0.921910 0.064240 -0.074593
N20   N     N_R   0.403840 0.078090 0.935760 -0.072472
N21   N     N_R   0.903840 0.421910 0.935760 -0.074890
N22   N     N_R   0.096160 0.578090 0.064240 -0.072949
N23   N     N_R   0.096160 0.421910 0.064240 -0.074599
N24   N     N_R   0.903840 0.578090 0.935760 -0.072471
N25   N     N_R   0.426250 0.076100 0.213650 -0.047885
N26   N     N_R   0.573750 0.923900 0.786350 -0.048892
N27   N     N_R   0.573750 0.076100 0.786350 -0.047477
N28   N     N_R   0.426250 0.923900 0.213650 -0.048993
N29   N     N_R   0.926250 0.576100 0.213650 -0.047891
N30   N     N_R   0.073750 0.423900 0.786350 -0.048891
N31   N     N_R   0.073750 0.576100 0.786350 -0.047471
N32   N     N_R   0.926250 0.423900 0.213650 -0.048999
Ni1   Ni    Ni4+2 0.500000 0.131570 0.000000 0.258980
Ni2   Ni    Ni4+2 0.500000 0.868430 0.000000 0.324836
Ni3   Ni    Ni4+2 0.000000 0.631570 0.000000 0.258990
Ni4   Ni    Ni4+2 0.000000 0.368430 0.000000 0.324826
Ni5   Ni    Ni4+2 0.488900 0.000000 0.862310 0.187138
Ni6   Ni    Ni4+2 0.511100 1.000000 0.137690 0.187169
Ni7   Ni    Ni4+2 0.988900 0.500000 0.862310 0.187131
Ni8   Ni    Ni4+2 0.011100 0.500000 0.137690 0.187177
F1    F     F_    0.335372 0.246496 0.089486 -0.758969
F2    F     F_    0.599311 0.733474 0.989281 -0.714104
F3    F     F_    0.664614 0.246720 0.910927 -0.755959
F4    F     F_    0.400863 0.733450 0.010487 -0.712812
F5    F     F_    0.835348 0.746472 0.089548 -0.759051
F6    F     F_    0.099298 0.233471 0.989305 -0.714094
F7    F     F_    0.164611 0.746722 0.910933 -0.755964
F8    F     F_    0.900864 0.233450 0.010486 -0.712811
N33   N     N_3   0.279544 0.125423 0.560725 -0.229154
H41   H     H_    0.242644 0.126852 0.645969 0.120317
H42   H     H_    0.243602 0.095778 0.542547 0.115197
N34   N     N_3   0.812562 0.931753 0.425389 -0.228886
H43   H     H_    0.852675 0.932531 0.339921 0.116251
H44   H     H_    0.843966 0.962326 0.449679 0.108509
N35   N     N_3   0.740623 0.124210 0.441797 -0.224449
H45   H     H_    0.782907 0.124402 0.356339 0.130859
H46   H     H_    0.773935 0.101372 0.468356 0.105398
N36   N     N_3   0.167573 0.933223 0.572019 -0.225360
H47   H     H_    0.123105 0.934822 0.657250 0.126461
H48   H     H_    0.137698 0.956774 0.541059 0.105508
N37   N     N_3   0.780325 0.625543 0.560737 -0.229197
H49   H     H_    0.743667 0.627041 0.645950 0.120190
H50   H     H_    0.744273 0.595666 0.542917 0.115151
N38   N     N_3   0.313230 0.431863 0.425472 -0.228865
H51   H     H_    0.353535 0.432700 0.340001 0.116209
H52   H     H_    0.344559 0.462205 0.450050 0.108560
N39   N     N_3   0.240704 0.624203 0.441800 -0.224453
H53   H     H_    0.283001 0.624393 0.356343 0.130868
H54   H     H_    0.274010 0.601386 0.468382 0.105494
N40   N     N_3   0.667635 0.433232 0.572031 -0.225358
H55   H     H_    0.623174 0.434831 0.657263 0.126475
H56   H     H_    0.637765 0.456811 0.541080 0.105559
N41   N     N_3   0.366955 0.261359 0.601202 -0.217440
H57   H     H_    0.417677 0.222202 0.556658 0.103550
H58   H     H_    0.320853 0.234995 0.676398 0.098676
N42   N     N_3   0.725754 0.795772 0.384537 -0.202798
H59   H     H_    0.671190 0.829965 0.434952 0.104799
H60   H     H_    0.768068 0.828292 0.313677 0.132480
N43   N     N_3   0.653222 0.241957 0.379918 -0.219097
H61   H     H_    0.605612 0.199552 0.421090 0.106875
H62   H     H_    0.624955 0.291522 0.375601 0.102556
N44   N     N_3   0.254327 0.815806 0.635026 -0.199138
H63   H     H_    0.299783 0.860004 0.593955 0.107596
H64   H     H_    0.285713 0.767517 0.636210 0.123620
N45   N     N_3   0.867490 0.762080 0.600660 -0.217396
H65   H     H_    0.918235 0.722941 0.556149 0.103534
H66   H     H_    0.821515 0.735849 0.676022 0.098556
N46   N     N_3   0.226230 0.296473 0.384012 -0.202681
H67   H     H_    0.171730 0.330754 0.434360 0.104789
H68   H     H_    0.268735 0.329039 0.313271 0.132341
N47   N     N_3   0.153290 0.741886 0.379866 -0.219090
H69   H     H_    0.105694 0.699467 0.421029 0.106861
H70   H     H_    0.125012 0.791435 0.375532 0.102587
N48   N     N_3   0.754376 0.315750 0.634983 -0.199132
H71   H     H_    0.799853 0.359929 0.593897 0.107586
H72   H     H_    0.785742 0.267441 0.636160 0.123613

loop_
_geom_bond_atom_site_label_1
_geom_bond_atom_site_label_2
_ccdc_geom_bond_type
N10   N27   A    
C68   C80   S    
C29   H5    S    
C80   H32   S    
C39   N23   A    
N25   Ni6   S    
C8    N8    A    
C18   C21   D    
N41   H58   S    
N41   H57   S    
C16   N48   S    
C28   N12   A    
C7    C55   A    
N14   N31   A    
C72   C76   S    
C75   C83   S    
C16   C72   S    
C76   C84   S    
C47   C62   A    
C79   C87   S    
N8    N21   A    
C65   C82   S    
C70   N38   S    
C4    N4    A    
C47   N31   A    
N45   H65   S    
N34   H43   S    
C33   C52   A    
C5    N5    A    
C48   N32   A    
C19   H35   S    
C34   C51   A    
C41   H17   S    
C4    C52   A    
C3    N3    A    
N4    N17   A    
C22   C52   S    
C42   N26   A    
N46   H68   S    
C1    N1    A    
C11   C76   S    
N35   H46   S    
N44   H63   S    
N9    Ni2   S    
C10   C73   S    
C43   N27   A    
C23   C49   S    
C39   C54   A    
N47   H70   S    
N3    Ni1   S    
N23   Ni8   S    
C46   N30   A    
C13   C81   S    
C16   C84   S    
C73   H25   S    
N43   H62   S    
C40   N24   A    
N3    N18   A    
C1    C49   A    
C14   C77   S    
C13   N45   S    
N37   H50   S    
C13   C69   S    
N1    N20   A    
C2    C50   A    
C43   C58   A    
C9    C85   S    
C37   C56   A    
C60   C82   S    
C36   N20   A    
C10   C86   S    
C38   C55   A    
C11   C87   S    
N33   H42   S    
C79   H31   S    
C70   C74   S    
C57   C83   S    
N26   Ni5   S    
C69   C73   S    
N40   H55   S    
N7    Ni3   S    
C61   C87   S    
C17   C55   S    
C45   H21   S    
C18   C56   S    
N12   N25   A    
C30   H6    S    
N2    Ni2   S    
C10   C66   S    
C19   C53   S    
N18   Ni6   S    
C77   C85   S    
C67   C84   S    
C4    F4    S    
C63   C85   S    
N36   H48   S    
N20   Ni5   S    
C14   C70   S    
C8    C56   A    
N48   H71   S    
N5    N24   A    
C25   C57   A    
C6    C54   A    
C35   H11   S    
N5    Ni3   S    
N29   Ni8   S    
C64   C86   S    
C74   H26   S    
C11   C67   S    
N30   Ni7   S    
C41   N25   A    
C44   H20   S    
C24   C50   S    
C29   N13   A    
C66   C78   S    
C29   C61   A    
C71   C75   S    
C65   C77   S    
C12   C88   S    
C14   N46   S    
N43   H61   S    
C44   N28   A    
C31   C63   A    
C67   C79   S    
N46   H67   S    
C32   C64   A    
C20   C54   S    
C69   N37   S    
N47   H69   S    
C3    C51   A    
C9    N41   S    
C35   N19   A    
C25   H1    S    
C6    F6    S    
N11   N26   A    
N12   Ni1   S    
C62   C88   S    
C27   N11   A    
N39   H53   S    
N9    N28   A    
C7    F7    S    
N38   H52   S    
C25   N9    A    
N35   H45   S    
C48   H24   S    
C7    N7    A    
N19   Ni6   S    
C58   C84   S    
C40   H16   S    
C26   C58   A    
C12   C68   S    
N13   N32   A    
C71   N39   S    
C15   C80   S    
C11   N43   S    
C20   C23   D    
N28   Ni6   S    
C44   C57   A    
C12   C75   S    
N22   Ni8   S    
C35   C50   A    
N1    Ni1   S    
C28   H4    S    
C43   H19   S    
C27   H3    S    
C42   H18   S    
C28   C60   A    
C67   N35   S    
C36   H12   S    
C73   C81   S    
N17   Ni5   S    
C17   H33   S    
C32   H8    S    
C72   N40   S    
C18   H34   S    
C40   C53   A    
N44   H64   S    
C46   H22   S    
N16   Ni3   S    
C45   N29   A    
C75   H27   S    
C9    C74   S    
C14   C82   S    
C21   H37   S    
N15   Ni4   S    
C21   C51   S    
C72   C87   S    
N21   Ni7   S    
N15   N30   A    
C23   H39   S    
N8    Ni4   S    
C5    C53   A    
C13   C78   S    
N48   H72   S    
N34   H44   S    
C78   H30   S    
N2    N19   A    
C68   C83   S    
C5    F5    S    
N11   Ni2   S    
C59   C81   S    
C41   C60   A    
N42   H60   S    
C26   N10   A    
C42   C59   A    
C15   C83   S    
C8    F8    S    
C39   H15   S    
C80   C88   S    
C65   N33   S    
C37   N21   A    
N7    N22   A    
C15   C71   S    
C45   C64   A    
C77   H29   S    
C17   C22   D    
C30   N14   A    
C46   C63   A    
C16   C79   S    
N38   H51   S    
C34   H10   S    
C30   C62   A    
C19   C24   D    
N16   N29   A    
N45   H66   S    
C12   N44   S    
C2    F2    S    
C27   C59   A    
C36   C49   A    
C66   C81   S    
C37   H13   S    
C34   N18   A    
N4    Ni2   S    
C3    F3    S    
C48   C61   A    
C66   N34   S    
N27   Ni5   S    
C47   H23   S    
N6    N23   A    
C1    F1    S    
C76   H28   S    
C2    N2    A    
N31   Ni7   S    
N10   Ni1   S    
C33   H9    S    
N32   Ni8   S    
C31   N15   A    
N37   H49   S    
C9    C65   S    
C32   N16   A    
C22   H38   S    
C31   H7    S    
N33   H41   S    
C68   N36   S    
C71   C88   S    
N6    Ni4   S    
C6    N6    A    
N42   H59   S    
N13   Ni4   S    
C38   H14   S    
C78   C86   S    
N14   Ni3   S    
C24   H40   S    
N24   Ni7   S    
N40   H56   S    
C26   H2    S    
N36   H47   S    
C70   C85   S    
C15   N47   S    
C38   N22   A    
C74   C82   S    
C69   C86   S    
C33   N17   A    
C20   H36   S    
N39   H54   S    
C10   N42   S    
