data_mof_unit_52106.cif
_audit_creation_date              2012-12-11T15:43:18-0500
_audit_creation_method            fapswitch 2.2
_symmetry_space_group_name_H-M    P1
_symmetry_Int_Tables_number       1
_space_group_crystal_system       triclinic
_cell_length_a                    19.043842
_cell_length_b                    10.947855
_cell_length_c                    18.796748
_cell_angle_alpha                 89.938437
_cell_angle_beta                  89.839449
_cell_angle_gamma                 89.790648
_cell_volume                      3918.87557988

loop_
_atom_site_label
_atom_site_type_symbol
_atom_type_description
_atom_site_fract_x
_atom_site_fract_y
_atom_site_fract_z
_atom_type_partial_charge
C1    C     C_R   0.711818 0.330297 0.138644 0.559595
C2    C     C_R   0.269815 0.375775 0.854113 0.545762
C3    C     C_R   0.211817 0.830297 0.138644 0.559590
C4    C     C_R   0.769815 0.875776 0.854113 0.545764
C5    C     C_R   0.489988 0.396311 0.932489 -0.142637
C6    C     C_R   0.468688 0.375098 0.078378 -0.151643
C7    C     C_R   0.989956 0.896315 0.932496 -0.142683
C8    C     C_R   0.968683 0.875089 0.078386 -0.151643
C9    C     C_R   0.976669 0.001496 0.972599 0.038133
C10   C     C_R   0.965513 0.990819 0.046791 0.040003
C11   C     C_R   0.476707 0.501492 0.972591 0.038173
C12   C     C_R   0.465524 0.490824 0.046776 0.039954
C13   C     C_R   0.751651 0.907189 0.926114 0.012754
C14   C     C_R   0.223738 0.849039 0.063041 -0.001545
C15   C     C_R   0.251648 0.407187 0.926113 0.012711
C16   C     C_R   0.723742 0.349038 0.063042 -0.001523
C17   C     C_R   0.727609 0.814087 0.971413 0.021108
C18   C     C_R   0.291451 0.852845 0.034942 0.026722
C19   C     C_R   0.227614 0.314081 0.971413 0.021064
C20   C     C_R   0.791455 0.352854 0.034945 0.026726
C21   C     C_R   0.727362 0.828865 0.044318 -0.018308
C22   C     C_R   0.302027 0.880886 0.963989 0.058506
C23   C     C_R   0.227367 0.328860 0.044319 -0.018353
C24   C     C_R   0.802029 0.380917 0.963994 0.058393
C25   C     C_R   0.783242 0.024669 0.028912 -0.136207
C26   C     C_R   0.177259 0.887311 0.944648 -0.167738
C27   C     C_R   0.283232 0.524677 0.028910 -0.136152
C28   C     C_R   0.677263 0.387307 0.944648 -0.167733
C29   C     C_R   0.782340 0.010678 0.955860 -0.141100
C30   C     C_R   0.166548 0.860802 0.016713 -0.162734
C31   C     C_R   0.282327 0.510685 0.955858 -0.141036
C32   C     C_R   0.666552 0.360795 0.016713 -0.162740
C33   C     C_3   0.658774 0.748578 0.973396 -0.249095
C34   C     C_3   0.351232 0.930866 0.058254 -0.251678
C35   C     C_3   0.158780 0.248564 0.973400 -0.249017
C36   C     C_3   0.851234 0.430877 0.058262 -0.251625
C37   C     C_3   0.660098 0.761937 0.053868 -0.245745
C38   C     C_3   0.362497 0.961891 0.980630 -0.231004
C39   C     C_3   0.160106 0.261925 0.053871 -0.245674
C40   C     C_3   0.862485 0.461949 0.980641 -0.231024
C41   C     C_R   0.751927 0.936940 0.073877 0.016281
C42   C     C_R   0.245637 0.904338 0.918682 0.005517
C43   C     C_R   0.251926 0.436941 0.073877 0.016265
C44   C     C_R   0.745640 0.404349 0.918685 0.005515
C45   C     C_R   0.532170 0.154849 0.146141 0.528368
C46   C     C_R   0.469365 0.156511 0.852677 0.536233
C47   C     C_R   0.032172 0.654849 0.146140 0.528360
C48   C     C_R   0.969363 0.656512 0.852678 0.536246
C49   C     C_R   0.485134 0.162557 0.571014 0.021566
C50   C     C_R   0.499194 0.170380 0.422514 0.013595
C51   C     C_R   0.985134 0.662557 0.571015 0.021566
C52   C     C_R   0.999195 0.670380 0.422514 0.013593
C53   C     C_R   0.462337 0.066415 0.528222 0.047440
C54   C     C_R   0.468015 0.070026 0.455529 0.017487
C55   C     C_R   0.962337 0.566415 0.528223 0.047442
C56   C     C_R   0.968016 0.570026 0.455530 0.017486
C57   C     C_R   0.513286 0.275129 0.463874 -0.165074
C58   C     C_R   0.506733 0.270925 0.538039 -0.175947
C59   C     C_R   0.013287 0.775128 0.463875 -0.165073
C60   C     C_R   0.006734 0.770925 0.538039 -0.175948
C61   C     C_3   0.480238 0.933870 0.531970 -0.266057
C62   C     C_3   0.483786 0.935944 0.451662 -0.270416
C63   C     C_3   0.980239 0.433870 0.531971 -0.266059
C64   C     C_3   0.983787 0.435944 0.451662 -0.270413
C65   C     C_R   0.749678 0.932993 0.580398 0.018176
C66   C     C_R   0.236664 0.890064 0.430761 0.017975
C67   C     C_R   0.249678 0.432993 0.580398 0.018177
C68   C     C_R   0.736665 0.390065 0.430761 0.017975
C69   C     C_R   0.797981 0.005281 0.543012 0.027116
C70   C     C_R   0.180641 0.940133 0.468475 0.031594
C71   C     C_R   0.297980 0.505284 0.543013 0.027119
C72   C     C_R   0.680641 0.440134 0.468475 0.031596
C73   C     C_R   0.795479 0.012149 0.470300 0.039579
C74   C     C_R   0.182578 0.950385 0.541006 0.021566
C75   C     C_R   0.295478 0.512152 0.470301 0.039580
C76   C     C_R   0.682578 0.450385 0.541006 0.021567
C77   C     C_R   0.689233 0.894845 0.469237 -0.164066
C78   C     C_R   0.291395 0.838057 0.543794 -0.154808
C79   C     C_R   0.189233 0.394844 0.469237 -0.164068
C80   C     C_R   0.791395 0.338058 0.543794 -0.154809
C81   C     C_R   0.690762 0.889318 0.543744 -0.170638
C82   C     C_R   0.289436 0.828757 0.469363 -0.152888
C83   C     C_R   0.190762 0.389317 0.543744 -0.170638
C84   C     C_R   0.789436 0.328758 0.469362 -0.152888
C85   C     C_3   0.876838 0.005092 0.541949 -0.267847
C86   C     C_3   0.144607 0.059738 0.458104 -0.278990
C87   C     C_3   0.376838 0.505100 0.541950 -0.267844
C88   C     C_3   0.644607 0.559739 0.458104 -0.278991
C89   C     C_R   0.741596 0.970974 0.147220 0.535638
C90   C     C_R   0.258223 0.967773 0.851914 0.540037
C91   C     C_R   0.241596 0.470973 0.147220 0.535631
C92   C     C_R   0.758223 0.467775 0.851914 0.540038
C93   C     C_3   0.873287 0.011247 0.461756 -0.279186
C94   C     C_3   0.146657 0.072360 0.538035 -0.269494
C95   C     C_3   0.373286 0.511254 0.461757 -0.279187
C96   C     C_3   0.646657 0.572360 0.538035 -0.269492
C97   C     C_R   0.744907 0.949423 0.431649 0.019251
C98   C     C_R   0.241735 0.911321 0.579031 0.018031
C99   C     C_R   0.244907 0.449423 0.431650 0.019251
C100  C     C_R   0.741736 0.411322 0.579031 0.018029
C101  C     C_R   0.727294 0.372223 0.355017 0.555208
C102  C     C_R   0.269982 0.380599 0.648370 0.544406
C103  C     C_R   0.227293 0.872223 0.355017 0.555207
C104  C     C_R   0.769982 0.880599 0.648370 0.544411
C105  C     C_R   0.532060 0.157677 0.353328 0.552233
C106  C     C_R   0.466703 0.156712 0.645675 0.542174
C107  C     C_R   0.032060 0.657677 0.353328 0.552229
C108  C     C_R   0.966703 0.656712 0.645675 0.542185
C109  C     C_R   0.740246 0.975611 0.356195 0.545558
C110  C     C_R   0.257570 0.969148 0.646607 0.545624
C111  C     C_R   0.240246 0.475612 0.356195 0.545557
C112  C     C_R   0.757570 0.469148 0.646607 0.545626
C113  C     C_R   0.501531 0.170474 0.923180 -0.000956
C114  C     C_R   0.508118 0.160265 0.072061 0.001887
C115  C     C_R   0.001528 0.670480 0.923181 -0.000966
C116  C     C_R   0.008122 0.660265 0.072060 0.001883
C117  C     C_R   0.492352 0.279289 0.963923 0.009076
C118  C     C_R   0.488056 0.270860 0.038820 -0.011284
C119  C     C_R   0.992339 0.779292 0.963927 0.009084
C120  C     C_R   0.988051 0.770858 0.038824 -0.011289
C121  C     C_R   0.525035 0.058227 0.029937 -0.146359
C122  C     C_R   0.522992 0.063816 0.956940 -0.170079
C123  C     C_R   0.025050 0.558236 0.029934 -0.146341
C124  C     C_R   0.023003 0.563828 0.956937 -0.170086
Cr1   Cr    Cr6+3 0.772010 0.169670 0.250090 1.005373
Cr2   Cr    Cr6+3 0.227990 0.169670 0.749910 1.000734
Cr3   Cr    Cr6+3 0.272010 0.669670 0.250090 1.005374
Cr4   Cr    Cr6+3 0.727990 0.669670 0.749910 1.000731
Cr5   Cr    Cr6+3 0.615000 0.323260 0.249260 1.004889
Cr6   Cr    Cr6+3 0.385000 0.323260 0.750740 1.003352
Cr7   Cr    Cr6+3 0.115000 0.823260 0.249260 1.004920
Cr8   Cr    Cr6+3 0.885000 0.823260 0.750740 1.003266
Cr9   Cr    Cr6+3 0.616710 0.010760 0.250840 1.016840
Cr10  Cr    Cr6+3 0.383290 0.010760 0.749160 1.022364
Cr11  Cr    Cr6+3 0.116710 0.510760 0.250840 1.016870
Cr12  Cr    Cr6+3 0.883290 0.510760 0.749160 1.022306
H1    H     H_    0.541053 0.972504 0.053268 0.166041
H2    H     H_    0.533220 0.981046 0.927022 0.141365
H3    H     H_    0.041079 0.472517 0.053262 0.166057
H4    H     H_    0.033238 0.481063 0.927017 0.141406
H5    H     H_    0.535122 0.356304 0.439853 0.140563
H6    H     H_    0.520348 0.350317 0.569376 0.121696
H7    H     H_    0.035123 0.856304 0.439853 0.140564
H8    H     H_    0.020349 0.850317 0.569377 0.121696
H9    H     H_    0.936965 0.377828 0.553156 0.139686
H10   H     H_    0.036759 0.413802 0.431395 0.161018
H11   H     H_    0.436964 0.877829 0.553156 0.139688
H12   H     H_    0.536758 0.913802 0.431395 0.161016
H13   H     H_    0.531879 0.917126 0.557555 0.133787
H14   H     H_    0.440699 0.884230 0.425984 0.128902
H15   H     H_    0.031879 0.417127 0.557556 0.133786
H16   H     H_    0.940700 0.384230 0.425984 0.128904
H17   H     H_    0.646558 0.852248 0.441111 0.120002
H18   H     H_    0.333815 0.795912 0.572980 0.116915
H19   H     H_    0.146558 0.352246 0.441111 0.120003
H20   H     H_    0.833815 0.295913 0.572979 0.116911
H21   H     H_    0.649671 0.841107 0.571771 0.115487
H22   H     H_    0.329787 0.777327 0.442143 0.127335
H23   H     H_    0.149672 0.341105 0.571771 0.115486
H24   H     H_    0.829787 0.277327 0.442143 0.127337
H25   H     H_    0.899581 0.918034 0.561099 0.175429
H26   H     H_    0.090553 0.050087 0.436872 0.133805
H27   H     H_    0.399583 0.418044 0.561101 0.175425
H28   H     H_    0.590553 0.550087 0.436872 0.133802
H29   H     H_    0.899216 0.088744 0.566361 0.122793
H30   H     H_    0.178088 0.127140 0.429721 0.140223
H31   H     H_    0.399213 0.588754 0.566362 0.122798
H32   H     H_    0.678087 0.627141 0.429721 0.140221
H33   H     H_    0.894185 0.097869 0.439636 0.131243
H34   H     H_    0.181905 0.146530 0.555357 0.170724
H35   H     H_    0.394182 0.597877 0.439636 0.131239
H36   H     H_    0.681905 0.646531 0.555357 0.170724
H37   H     H_    0.892708 0.927075 0.435033 0.142806
H38   H     H_    0.093805 0.071116 0.563301 0.127416
H39   H     H_    0.392709 0.427083 0.435034 0.142805
H40   H     H_    0.593804 0.571116 0.563300 0.127419
H41   H     H_    0.502350 0.408514 0.876784 0.118890
H42   H     H_    0.458782 0.368058 0.134959 0.119883
H43   H     H_    0.002313 0.908523 0.876791 0.118878
H44   H     H_    0.958784 0.868044 0.134968 0.119888
H45   H     H_    0.805504 0.107839 0.049829 0.165782
H46   H     H_    0.132538 0.904658 0.910795 0.126928
H47   H     H_    0.305489 0.607851 0.049826 0.165824
H48   H     H_    0.632543 0.404645 0.910793 0.126891
H49   H     H_    0.806362 0.079943 0.922634 0.169481
H50   H     H_    0.114002 0.857455 0.037504 0.150624
H51   H     H_    0.306338 0.579956 0.922629 0.169698
H52   H     H_    0.614006 0.357440 0.037503 0.150598
H53   H     H_    0.163656 0.152186 0.955704 0.161155
H54   H     H_    0.894786 0.376466 0.081500 0.206024
H55   H     H_    0.663646 0.652200 0.955699 0.161117
H56   H     H_    0.394776 0.876464 0.081513 0.206032
H57   H     H_    0.615792 0.801304 0.947634 0.139147
H58   H     H_    0.334082 0.010524 0.090723 0.136533
H59   H     H_    0.115796 0.301284 0.947639 0.139238
H60   H     H_    0.834084 0.510511 0.090749 0.136535
H61   H     H_    0.617314 0.819861 0.075451 0.182933
H62   H     H_    0.352139 0.059628 0.967983 0.132742
H63   H     H_    0.117321 0.319846 0.075455 0.182991
H64   H     H_    0.852104 0.559686 0.968013 0.132726
H65   H     H_    0.667774 0.673473 0.081962 0.163121
H66   H     H_    0.411791 0.924255 0.958445 0.211245
H67   H     H_    0.167787 0.173463 0.081966 0.163156
H68   H     H_    0.911783 0.424363 0.958440 0.211269
O1    O     O_R   0.787520 0.042810 0.170440 -0.548896
O2    O     O_R   0.212480 0.042810 0.829560 -0.533301
O3    O     O_R   0.287520 0.542810 0.170440 -0.548874
O4    O     O_R   0.712480 0.542810 0.829560 -0.533306
O5    O     O_R   0.556610 0.252880 0.323980 -0.511679
O6    O     O_R   0.443390 0.252880 0.676020 -0.512899
O7    O     O_R   0.056610 0.752880 0.323980 -0.511679
O8    O     O_R   0.943390 0.752880 0.676020 -0.512896
O9    O     O_R   0.545950 0.051210 0.330860 -0.520097
O10   O     O_R   0.454050 0.051210 0.669140 -0.518556
O11   O     O_R   0.045950 0.551210 0.330860 -0.520094
O12   O     O_R   0.954050 0.551210 0.669140 -0.518556
O13   O     O_R   0.681390 0.959480 0.325510 -0.505660
O14   O     O_R   0.318610 0.959480 0.674490 -0.505270
O15   O     O_R   0.181390 0.459480 0.325510 -0.505657
O16   O     O_R   0.818610 0.459480 0.674490 -0.505276
O17   O     O_3   0.667900 0.167900 0.250060 -0.267203
O18   O     O_3   0.332100 0.167900 0.749940 -0.243709
O19   O     O_3   0.167900 0.667900 0.250060 -0.267213
O20   O     O_3   0.832100 0.667900 0.749940 -0.243687
O21   O     O_R   0.765640 0.292100 0.175020 -0.499004
O22   O     O_R   0.234360 0.292100 0.824980 -0.501989
O23   O     O_R   0.265640 0.792100 0.175020 -0.498998
O24   O     O_R   0.734360 0.792100 0.824980 -0.501980
O25   O     O_R   0.670190 0.408840 0.168540 -0.513322
O26   O     O_R   0.329810 0.408840 0.831460 -0.515919
O27   O     O_R   0.170190 0.908840 0.168540 -0.513297
O28   O     O_R   0.829810 0.908840 0.831460 -0.516019
O29   O     O_R   0.556620 0.251410 0.175160 -0.525247
O30   O     O_R   0.443380 0.251410 0.824840 -0.508092
O31   O     O_R   0.056620 0.751410 0.175160 -0.525247
O32   O     O_R   0.943380 0.751410 0.824840 -0.508108
O33   O     O_R   0.545960 0.049620 0.170320 -0.514997
O34   O     O_R   0.454040 0.049620 0.829680 -0.519718
O35   O     O_R   0.045960 0.549620 0.170320 -0.514985
O36   O     O_R   0.954040 0.549620 0.829680 -0.519725
O37   O     O_R   0.681390 0.958010 0.176690 -0.499360
O38   O     O_R   0.318610 0.958010 0.823310 -0.489935
O39   O     O_R   0.181390 0.458010 0.176690 -0.499360
O40   O     O_R   0.818610 0.458010 0.823310 -0.489976
O41   O     O_R   0.787510 0.044390 0.330970 -0.520528
O42   O     O_R   0.212490 0.044390 0.669030 -0.526146
O43   O     O_R   0.287510 0.544390 0.330970 -0.520530
O44   O     O_R   0.712490 0.544390 0.669030 -0.526142
O45   O     O_R   0.765630 0.293570 0.323840 -0.503151
O46   O     O_R   0.234370 0.293570 0.676160 -0.510065
O47   O     O_R   0.265630 0.793570 0.323840 -0.503155
O48   O     O_R   0.734370 0.793570 0.676160 -0.510059
O49   O     O_R   0.670190 0.410420 0.329080 -0.514975
O50   O     O_R   0.329810 0.410420 0.670920 -0.525032
O51   O     O_R   0.170190 0.910420 0.329080 -0.514970
O52   O     O_R   0.829810 0.910420 0.670920 -0.525042
C125  C     C_2   0.972469 0.118503 0.933375 0.252541
H69   H     H_    0.002554 0.130750 0.884750 0.075346
O53   O     O_2   0.932461 0.199350 0.952182 -0.517128
C126  C     C_2   0.957011 0.097045 0.094912 0.249156
H70   H     H_    0.928257 0.086748 0.144457 0.106955
O54   O     O_2   0.985709 0.194234 0.082463 -0.518104
C127  C     C_2   0.472546 0.618510 0.933382 0.252773
H71   H     H_    0.502847 0.630927 0.884930 0.075386
O55   O     O_2   0.432329 0.699149 0.951993 -0.517230
C128  C     C_2   0.456998 0.597068 0.094881 0.248992
H72   H     H_    0.428296 0.586748 0.144459 0.106965
O56   O     O_2   0.485610 0.694315 0.082370 -0.518316

loop_
_geom_bond_atom_site_label_1
_geom_bond_atom_site_label_2
_ccdc_geom_bond_type
C112  O44   A    
C25   C41   A    
C87   H27   S    
C55   C56   A    
C88   C96   S    
C67   C83   A    
C98   C110  S    
C116  C123  A    
C39   H67   S    
Cr2   O42   S    
C103  O51   A    
C14   C18   A    
C35   C39   S    
C86   H30   S    
C73   C93   S    
C72   C76   A    
Cr4   O20   S    
C31   H51   S    
C84   H24   S    
C75   C95   S    
C127  H71   S    
C74   C98   A    
C22   C42   A    
C53   C54   A    
C65   C69   A    
C15   C19   A    
Cr8   O8    S    
C26   C42   A    
Cr4   O48   S    
C17   C33   S    
C64   H16   S    
C59   H7    S    
C36   H54   S    
C30   H50   S    
C13   C29   A    
C65   C104  S    
C45   O29   A    
Cr2   O46   S    
C5    C11   A    
C9    C125  S    
Cr7   O19   S    
C6    C12   A    
C82   H22   S    
Cr7   O51   S    
C8    H44   S    
C107  O7    A    
Cr6   O26   S    
Cr11  O39   S    
C22   C38   S    
C123  H3    S    
C105  O5    A    
C12   C128  S    
C7    C9    A    
C125  H69   S    
C121  H1    S    
C4    C13   S    
C95   H39   S    
C85   H25   S    
Cr10  O38   S    
Cr3   O3    S    
C86   C94   S    
C83   H23   S    
Cr9   O37   S    
C79   C99   A    
C114  C121  A    
C85   C93   S    
C45   C114  S    
C89   O1    A    
C113  C122  A    
C40   H68   S    
C52   C107  S    
Cr11  O35   S    
C51   C108  S    
C88   H32   S    
C55   C63   S    
C75   C99   A    
C70   C74   A    
C50   C105  S    
Cr9   O17   S    
C56   C64   S    
C69   C73   A    
C99   C111  S    
C86   H26   S    
C89   O37   A    
C11   C127  S    
Cr1   O45   S    
C96   H40   S    
C9    C10   A    
C67   C102  S    
C63   H15   S    
Cr3   O47   S    
C44   C92   S    
C16   C20   A    
C123  C124  A    
C77   H17   S    
C34   H58   S    
C46   O34   A    
C72   C88   S    
C109  O41   A    
C59   C60   A    
C35   H53   S    
C62   H12   S    
C80   C100  A    
Cr3   O23   S    
Cr10  O34   S    
Cr8   O20   S    
Cr2   O22   S    
Cr9   O33   S    
C14   C30   A    
C111  O15   A    
Cr1   O21   S    
Cr8   O28   S    
C87   H31   S    
C34   C38   S    
C108  O8    A    
Cr1   O1    S    
C25   H45   S    
C80   H20   S    
C47   O31   A    
C25   C29   A    
C47   C116  S    
C106  O10   A    
Cr11  O11   S    
C71   C75   A    
C105  O9    A    
C32   H52   S    
C63   C64   S    
C27   C31   A    
C80   C84   A    
C68   C84   A    
C20   C24   A    
C76   C100  A    
C28   C32   A    
Cr6   O18   S    
C81   H21   S    
C68   C101  S    
C122  H2    S    
Cr5   O17   S    
Cr3   O19   S    
C96   H36   S    
C3    O23   A    
C3    O27   A    
Cr12  O40   S    
C78   H18   S    
C20   C36   S    
C54   C62   S    
C51   C55   A    
Cr10  O18   S    
Cr10  O14   S    
C79   H19   S    
C15   C31   A    
C28   C44   A    
C43   C91   S    
C49   C58   A    
C116  C120  A    
Cr5   O29   S    
C68   C72   A    
C42   C90   S    
Cr6   O30   S    
Cr4   O44   S    
C101  O49   A    
C19   C23   A    
C17   C21   A    
C36   H60   S    
C78   C98   A    
Cr7   O27   S    
C92   O4    A    
C52   C59   A    
C7    C119  A    
C76   C96   S    
C66   C82   A    
C97   C109  S    
C78   C82   A    
C65   C81   A    
Cr12  O20   S    
C36   C40   S    
Cr4   O24   S    
Cr11  O15   S    
C45   O33   A    
C38   H62   S    
C112  O16   A    
Cr1   O17   S    
C7    H43   S    
C1    C16   S    
C108  O12   A    
Cr5   O25   S    
C77   C97   A    
C2    C15   S    
C18   C34   S    
C5    H41   S    
C121  C122  A    
C114  C118  A    
C3    C14   S    
C128  O56   D    
C94   H38   S    
C48   C115  S    
C21   C41   A    
C26   H46   S    
C126  O54   D    
C103  O47   A    
Cr5   O49   S    
C73   C97   A    
C37   H61   S    
C94   H34   S    
C90   O38   A    
C102  O46   A    
Cr7   O7    S    
C24   C44   A    
C10   C126  S    
Cr6   O6    S    
Cr3   O43   S    
Cr8   O52   S    
Cr5   O5    S    
C70   C86   S    
C46   O30   A    
C115  C124  A    
C69   C85   S    
C8    C120  A    
C4    O28   A    
C33   C37   S    
C113  C117  A    
C1    O21   A    
C104  O48   A    
C127  O55   D    
C27   C43   A    
C39   H63   S    
C87   C95   S    
C93   H33   S    
C40   H64   S    
C58   H6    S    
C62   H14   S    
C46   C113  S    
C64   H10   S    
C41   C89   S    
C18   C22   A    
C50   C57   A    
C66   C103  S    
C124  H4    S    
C8    C10   A    
C101  O45   A    
C90   O2    A    
C91   O39   A    
C126  H70   S    
Cr6   O50   S    
C107  O11   A    
Cr10  O10   S    
C91   O3    A    
C119  C120  A    
Cr2   O18   S    
C100  C112  S    
C49   C106  S    
Cr12  O16   S    
C35   H59   S    
C16   C32   A    
Cr11  O19   S    
C48   O36   A    
C115  C119  A    
C104  O52   A    
C57   H5    S    
C33   H55   S    
C85   H29   S    
Cr12  O36   S    
C61   H11   S    
Cr9   O9    S    
Cr7   O31   S    
C50   C54   A    
C88   H28   S    
C117  C118  A    
C60   H8    S    
C79   C83   A    
C92   O40   A    
C110  O42   A    
C57   C58   A    
C66   C70   A    
C61   H13   S    
C34   H56   S    
Cr2   O2    S    
C23   C39   S    
C93   H37   S    
C48   O32   A    
C47   O35   A    
C29   H49   S    
C67   C71   A    
C53   C61   S    
C4    O24   A    
C28   H48   S    
C61   C62   S    
C110  O14   A    
C27   H47   S    
C24   C40   S    
C49   C53   A    
C109  O13   A    
C128  H72   S    
C2    O26   A    
C33   H57   S    
C13   C17   A    
Cr8   O32   S    
C1    O25   A    
C21   C37   S    
C2    O22   A    
C111  O43   A    
C77   C81   A    
C38   H66   S    
C102  O50   A    
C5    C117  A    
C74   C94   S    
C37   H65   S    
C71   C87   S    
C19   C35   S    
C51   C60   A    
Cr4   O4    S    
Cr1   O41   S    
C125  O53   D    
C23   C43   A    
C95   H35   S    
C63   H9    S    
C6    H42   S    
C52   C56   A    
C11   C12   A    
C6    C118  A    
Cr9   O13   S    
Cr12  O12   S    
C26   C30   A    
C106  O6    A    
