data_mof_unit_18350.cif
_audit_creation_date              2012-12-11T17:37:46-0500
_audit_creation_method            fapswitch 2.2
_symmetry_space_group_name_H-M    P1
_symmetry_Int_Tables_number       1
_space_group_crystal_system       triclinic
_cell_length_a                    13.047435
_cell_length_b                    13.055382
_cell_length_c                    15.354954
_cell_angle_alpha                 116.27256
_cell_angle_beta                  64.080988
_cell_angle_gamma                 97.317705
_cell_volume                      2102.3492289

loop_
_atom_site_label
_atom_site_type_symbol
_atom_type_description
_atom_site_fract_x
_atom_site_fract_y
_atom_site_fract_z
_atom_type_partial_charge
Br1   Br    Br    0.807166 0.102363 0.994098 -0.519362
Br2   Br    Br    0.420410 0.125892 0.837413 -0.497187
Br3   Br    Br    0.799736 0.552707 0.773684 -0.614929
Br4   Br    Br    0.000189 0.881967 0.770699 -0.574136
Br5   Br    Br    0.633188 0.273566 0.993427 -0.552628
C1    C     C_R   0.996523 0.830368 0.059445 -0.103492
C2    C     C_R   0.298281 0.594542 0.792053 -0.137587
C3    C     C_R   0.258975 0.420296 0.050739 -0.056025
C4    C     C_R   0.680972 0.461830 0.220867 -0.094420
C5    C     C_R   0.043596 0.281084 0.684638 -0.103884
C6    C     C_R   0.360354 0.442891 0.982067 0.152451
C7    C     C_R   0.023108 0.173069 0.679130 0.008805
C8    C     C_R   0.295408 0.564567 0.695513 0.039212
C9    C     C_R   0.986278 0.161018 0.064453 0.053433
C10   C     C_R   0.432179 0.732581 0.195714 -0.117422
C11   C     C_R   0.321656 0.774555 0.276623 -0.123907
C12   C     C_R   0.677043 0.526465 0.322317 0.009572
C13   C     C_R   0.285067 0.891105 0.322242 0.117273
C14   C     C_R   0.361737 0.964826 0.286152 -0.152234
C15   C     C_R   0.472173 0.922423 0.205088 -0.080795
C16   C     C_R   0.755456 0.517770 0.892565 0.249494
C17   C     C_R   0.507352 0.806399 0.159813 -0.086535
C18   C     C_R   0.150088 0.033434 0.502685 -0.223095
C19   C     C_R   0.038918 0.072963 0.583752 0.085555
C20   C     C_R   0.943220 0.017132 0.572632 0.044766
C21   C     C_R   0.960448 0.921380 0.479686 -0.258837
C22   C     C_R   0.070207 0.882189 0.397938 0.068046
C23   C     C_R   0.663790 0.456372 0.924467 -0.021945
C24   C     C_R   0.167373 0.935928 0.407799 0.022800
C25   C     C_R   0.758131 0.005773 0.713946 -0.171709
C26   C     C_R   0.639785 0.028670 0.768919 -0.092687
C27   C     C_R   0.583961 0.104462 0.758459 0.381400
C28   C     C_R   0.015847 0.696407 0.301399 -0.131780
C29   C     C_R   0.648565 0.160516 0.692766 -0.134496
C30   C     C_R   0.768591 0.138701 0.640263 -0.220038
C31   C     C_R   0.823116 0.060466 0.649239 0.093133
C32   C     C_R   0.827570 0.311338 0.412442 -0.064454
C33   C     C_R   0.730881 0.357829 0.421060 -0.094449
C34   C     C_R   0.073952 0.790580 0.301638 0.040238
C35   C     C_R   0.697749 0.475471 0.483946 0.106792
C36   C     C_R   0.762774 0.545861 0.536923 -0.159607
C37   C     C_R   0.861625 0.499399 0.524421 -0.012759
C38   C     C_R   0.892795 0.382025 0.464172 0.019774
C39   C     C_R   0.496455 0.540870 0.591550 -0.216702
C40   C     C_R   0.680571 0.415837 0.985943 0.239496
C41   C     C_R   0.389966 0.571890 0.605427 0.053329
C42   C     C_R   0.377917 0.592391 0.527400 0.058175
C43   C     C_R   0.475715 0.579896 0.435412 -0.231476
C44   C     C_R   0.580682 0.544731 0.420838 0.072426
C45   C     C_R   0.337706 0.521238 0.954751 -0.128977
C46   C     C_R   0.591785 0.524251 0.498957 0.013559
C47   C     C_R   0.238175 0.578949 0.451985 -0.150302
C48   C     C_R   0.140050 0.620551 0.459133 -0.198731
C49   C     C_R   0.070098 0.712098 0.553315 -0.187954
C50   C     C_R   0.097327 0.760545 0.641124 0.432339
C51   C     C_R   0.196152 0.720282 0.634089 -0.199501
C52   C     C_R   0.096693 0.798347 0.208633 -0.134472
C53   C     C_R   0.267820 0.629287 0.539184 0.059586
C54   C     C_2   0.469457 0.416876 0.969696 -0.148883
C55   C     C_2   0.565097 0.440223 0.902261 -0.130851
C56   C     C_R   0.961898 0.180399 0.781093 -0.016850
C57   C     C_2   0.814816 0.944779 0.114654 -0.123101
C58   C     C_2   0.813248 0.030421 0.204824 -0.153485
C59   C     C_R   0.785092 0.552021 0.314103 -0.101477
C60   C     C_R   0.894124 0.746518 0.965840 -0.047255
C61   C     C_R   0.903811 0.848342 0.044751 0.124096
C62   C     C_2   0.067721 0.293949 0.190346 0.976121
C63   C     C_2   0.595068 0.237915 0.673340 1.026264
C64   C     C_R   0.200025 0.506525 0.694520 -0.101464
C65   C     C_R   0.038952 0.260068 0.099376 -0.129006
C66   C     C_R   0.938152 0.177837 0.006928 0.353947
H1    H     H_    0.024258 0.890111 0.118991 0.114805
H2    H     H_    0.610648 0.425859 0.200993 0.152004
H3    H     H_    0.335607 0.054770 0.319766 0.119692
H4    H     H_    0.530329 0.979616 0.177227 0.139135
H5    H     H_    0.222483 0.077824 0.514319 0.143701
H6    H     H_    0.886389 0.880050 0.468723 0.140672
H7    H     H_    0.798864 0.942615 0.719042 0.175895
H8    H     H_    0.590809 0.985344 0.818520 0.170623
H9    H     H_    0.819842 0.177083 0.586600 0.167696
H10   H     H_    0.967500 0.345993 0.457619 0.089822
H11   H     H_    0.851955 0.220615 0.366298 0.111668
H12   H     H_    0.927686 0.111250 0.802426 0.188075
H13   H     H_    0.680789 0.302235 0.380698 0.122910
H14   H     H_    0.737864 0.636700 0.586251 0.126549
H15   H     H_    0.912629 0.553895 0.563687 0.152797
H16   H     H_    0.504645 0.520445 0.649663 0.151647
H17   H     H_    0.470580 0.597414 0.374553 0.130319
H18   H     H_    0.291654 0.508202 0.377967 0.129278
H19   H     H_    0.118680 0.581881 0.391395 0.175277
H20   H     H_    0.994208 0.744354 0.558456 0.137005
H21   H     H_    0.990675 0.662129 0.359636 0.110529
H22   H     H_    0.217960 0.761330 0.701707 0.160492
H23   H     H_    0.167920 0.479000 0.634214 0.111355
H24   H     H_    0.466030 0.399806 0.033497 0.170868
H25   H     H_    0.565319 0.465460 0.843718 0.180317
H26   H     H_    0.744517 0.943590 0.094631 0.169803
H27   H     H_    0.879265 0.035262 0.230994 0.133627
H28   H     H_    0.148085 0.859100 0.181149 0.119418
H29   H     H_    0.811481 0.601387 0.377375 0.105321
H30   H     H_    0.824881 0.730608 0.942609 0.151237
H31   H     H_    0.396922 0.564180 0.909208 0.103913
H32   H     H_    0.117238 0.242922 0.273371 0.310411
H33   H     H_    0.453775 0.296537 0.681381 0.318747
H34   H     H_    0.355773 0.650081 0.822184 0.112448
H35   H     H_    0.250694 0.366835 0.089859 0.135030
H36   H     H_    0.082568 0.305596 0.619189 0.104701
H37   H     H_    0.592852 0.773727 0.097083 0.107833
H38   H     H_    0.459619 0.642861 0.161050 0.109761
H39   H     H_    0.264999 0.716256 0.304023 0.120533
N1    N     N_R   0.037320 0.720000 0.995830 -0.055580
N2    N     N_R   0.824900 0.517970 0.936430 -0.101990
N3    N     N_R   0.003190 0.648180 0.211390 -0.038255
N4    N     N_R   0.774330 0.457010 0.995830 -0.092644
N5    N     N_R   0.053760 0.709130 0.151980 -0.052131
N6    N     N_R   0.853840 0.498830 0.211390 -0.044109
N7    N     N_R   0.974250 0.667320 0.936430 -0.045699
N8    N     N_R   0.225670 0.542990 0.004170 -0.051118
N9    N     N_R   0.946240 0.290870 0.848020 -0.040890
N10   N     N_R   0.146160 0.501170 0.788610 -0.039669
N11   N     N_R   0.025750 0.332680 0.063570 -0.083050
N12   N     N_R   0.962680 0.280000 0.004170 -0.088390
N13   N     N_R   0.209230 0.553860 0.848010 -0.041556
N14   N     N_R   0.175100 0.482030 0.063570 -0.042343
N15   N     N_R   0.996810 0.351820 0.788610 -0.040446
N16   N     N_R   0.790770 0.446140 0.151990 -0.036992
Ni1   Ni    Ni4+2 0.130310 0.630310 0.000000 0.222137
Ni2   Ni    Ni4+2 0.869690 0.369690 0.000000 0.293220
Ni3   Ni    Ni4+2 0.985660 0.509480 0.863750 0.260068
Ni4   Ni    Ni4+2 0.014340 0.490520 0.136250 0.255364
O1    O     O_2   0.064777 0.395394 0.249091 -0.701869
O2    O     O_R   0.096586 0.209530 0.210222 -0.804161
O3    O     O_2   0.654046 0.300726 0.634218 -0.653035
O4    O     O_R   0.478618 0.239169 0.697746 -0.753971

loop_
_geom_bond_atom_site_label_1
_geom_bond_atom_site_label_2
_ccdc_geom_bond_type
C50   C51   A    
C59   N6    A    
C56   N9    A    
C9    C66   A    
C10   H38   S    
C66   N12   A    
C62   O2    S    
C60   H30   S    
N11   Ni4   S    
N2    N4    A    
C5    H36   S    
C11   H39   S    
C52   N5    A    
C48   C49   A    
C1    H1    S    
C21   C22   A    
C57   C58   D    
H33   O4    S    
C18   C24   A    
C63   O3    D    
C13   C14   A    
C58   H27   S    
C12   C59   A    
C25   C26   A    
C22   C24   A    
C10   C11   A    
C34   C52   A    
C30   H9    S    
N5    Ni1   S    
Br2   C27   S    
C29   C30   A    
C36   C37   A    
C49   C50   A    
C40   N4    A    
C10   C17   A    
C42   C43   A    
C22   C34   S    
C44   C46   A    
C18   C19   A    
C43   H17   S    
C37   H15   S    
N2    Ni3   S    
C5    N15   A    
N7    Ni3   S    
H32   O2    S    
C18   H5    S    
N10   N13   A    
N9    Ni2   S    
C54   C55   D    
N6    N16   A    
C9    C65   A    
C47   H18   S    
C54   H24   S    
C6    C54   S    
C5    C7    A    
C39   C41   A    
C23   C55   S    
C51   H22   S    
C23   C40   A    
C21   H6    S    
N3    Ni4   S    
C57   C61   S    
N10   Ni3   S    
C19   C20   A    
C64   H23   S    
C56   H12   S    
C28   H21   S    
C29   C63   S    
C3    N14   A    
N8    N14   A    
C20   C21   A    
Br5   C40   S    
C15   H4    S    
C30   C31   A    
C27   C29   A    
C32   C38   A    
C32   C33   A    
C57   H26   S    
N4    Ni2   S    
N13   Ni1   S    
C26   C27   A    
C2    C8    A    
C2    H34   S    
N14   Ni4   S    
C13   C24   S    
C28   C34   A    
N11   N12   A    
C47   C53   A    
C55   H25   S    
C39   C46   A    
C4    C12   A    
C43   C44   A    
C16   C23   A    
C15   C17   A    
C45   H31   S    
Br4   C50   S    
N1    Ni1   S    
C38   H10   S    
C32   H11   S    
Br3   C16   S    
N8    Ni1   S    
C12   C44   S    
C39   H16   S    
N9    N15   A    
C16   N2    A    
C47   C48   A    
C41   C42   A    
C35   C36   A    
N16   Ni2   S    
C33   H13   S    
C45   N8    A    
C4    H2    S    
C14   H3    S    
C62   O1    D    
C2    N13   A    
C3    H35   S    
C26   H8    S    
C35   C46   S    
C36   H14   S    
C7    C19   S    
C64   N10   A    
C28   N3    A    
C4    N16   A    
C25   C31   A    
N1    N7    A    
C62   C65   S    
C14   C15   A    
C63   O4    S    
C59   H29   S    
C49   H20   S    
C6    C45   A    
C42   C53   S    
C33   C35   A    
C7    C56   A    
C65   N11   A    
C8    C41   S    
C8    C64   A    
Br1   C66   S    
C3    C6    A    
C17   H37   S    
C51   C53   A    
C1    N1    A    
N12   Ni2   S    
C20   C31   S    
C25   H7    S    
N15   Ni3   S    
C1    C61   A    
N6    Ni4   S    
C11   C13   A    
C60   C61   A    
C37   C38   A    
C48   H19   S    
C60   N7    A    
N3    N5    A    
C52   H28   S    
