data_mof_unit_53642.cif
_audit_creation_date              2012-12-11T16:22:20-0500
_audit_creation_method            fapswitch 2.2
_symmetry_space_group_name_H-M    P1
_symmetry_Int_Tables_number       1
_space_group_crystal_system       triclinic
_cell_length_a                    13.461843
_cell_length_b                    14.045267
_cell_length_c                    30.037981
_cell_angle_alpha                 98.294708
_cell_angle_beta                  89.844845
_cell_angle_gamma                 118.722653
_cell_volume                      4913.97003387

loop_
_atom_site_label
_atom_site_type_symbol
_atom_type_description
_atom_site_fract_x
_atom_site_fract_y
_atom_site_fract_z
_atom_type_partial_charge
C1    C     C_R   0.721271 0.099252 0.569097 0.548579
C2    C     C_1   0.349527 0.665975 0.763874 -0.044744
C3    C     C_3   0.278839 0.933255 0.362636 -0.225228
C4    C     C_3   0.161589 0.858133 0.377512 -0.388571
C5    C     C_3   0.411813 0.335958 0.438336 -0.264534
C6    C     C_3   0.329819 0.382743 0.443476 -0.450012
C7    C     C_3   0.924291 0.416937 0.202244 -0.268201
C8    C     C_3   0.973935 0.524659 0.183145 -0.457552
C9    C     C_3   0.724507 0.877646 0.359753 0.023314
C10   C     C_3   0.719394 0.778520 0.377192 -0.239873
C11   C     C_3   0.627625 0.670245 0.350552 -0.497231
C12   C     C_3   0.707345 0.954403 0.073045 0.009657
C13   C     C_1   0.350338 0.671078 0.724357 -0.047693
C14   C     C_3   0.681303 0.854561 0.037334 -0.260731
C15   C     C_3   0.553824 0.774942 0.029995 -0.473991
C16   C     C_3   0.500526 0.654122 0.573558 -0.273783
C17   C     C_3   0.468908 0.532987 0.570370 -0.456013
C18   C     C_3   0.568507 0.628843 0.901170 0.007468
C19   C     C_3   0.627535 0.582083 0.927340 -0.239437
C20   C     C_3   0.752646 0.665463 0.939716 -0.496518
C21   C     C_3   0.143294 0.959187 0.765977 -0.273298
C22   C     C_3   0.075225 0.873610 0.724918 -0.446426
C23   C     C_R   0.382310 0.786262 0.550351 0.532289
C24   C     C_R   0.305456 0.599794 0.897199 0.021939
C25   C     C_3   0.215444 0.137015 0.723092 -0.105195
C26   C     C_3   0.236580 0.065832 0.752691 0.062002
C27   C     C_1   0.295901 0.199198 0.876082 -0.008410
C28   C     C_1   0.361561 0.138505 0.612938 -0.025123
C29   C     C_3   0.288469 0.240931 0.758595 -0.115736
C30   C     C_3   0.309302 0.169093 0.787471 0.038350
C31   C     C_R   0.347435 0.679874 0.677644 0.018193
C32   C     C_3   0.397003 0.260688 0.734383 -0.115259
C33   C     C_3   0.324231 0.157003 0.699690 0.037168
C34   C     C_3   0.417918 0.189429 0.763975 -0.099559
C35   C     C_R   0.396610 0.119313 0.569281 0.544242
C36   C     C_3   0.344845 0.085679 0.728857 0.060650
C37   C     C_1   0.302716 0.181223 0.836232 -0.060198
C38   C     C_1   0.339987 0.149258 0.651516 -0.069124
C39   C     C_3   0.905467 0.272200 0.733991 0.050721
C40   C     C_3   0.812455 0.253033 0.767259 -0.088816
C41   C     C_1   0.897670 0.204313 0.878203 -0.018618
C42   C     C_R   0.271396 0.709322 0.661275 -0.135019
C43   C     C_1   0.770923 0.132734 0.614360 -0.019965
C44   C     C_3   0.945870 0.205281 0.757919 -0.086635
C45   C     C_3   0.851334 0.184540 0.790458 0.041955
C46   C     C_3   0.861625 0.098884 0.725931 -0.112742
C47   C     C_R   0.720144 0.094852 0.442587 0.553408
C48   C     C_3   0.822753 0.167102 0.702527 0.049032
C49   C     C_3   0.767919 0.078408 0.759238 -0.107364
C50   C     C_3   0.728863 0.146577 0.735222 -0.115850
C51   C     C_1   0.871238 0.193950 0.838950 -0.063429
C52   C     C_1   0.800010 0.152271 0.653859 -0.067556
C53   C     C_R   0.277789 0.734360 0.618030 -0.144311
C54   C     C_3   0.238205 0.625918 0.259252 -0.087125
C55   C     C_3   0.290361 0.719380 0.230456 -0.109233
C56   C     C_1   0.308573 0.607126 0.111438 -0.032375
C57   C     C_1   0.365739 0.733404 0.378551 -0.049718
C58   C     C_3   0.287072 0.562161 0.229174 0.049918
C59   C     C_R   0.381830 0.783079 0.424653 0.531926
C60   C     C_3   0.338576 0.654944 0.200785 0.047224
C61   C     C_3   0.398288 0.618226 0.259998 -0.090765
C62   C     C_3   0.349784 0.682719 0.289425 0.039183
C63   C     C_3   0.449981 0.711763 0.231070 -0.115415
C64   C     C_R   0.263544 0.672362 0.835400 -0.144481
C65   C     C_3   0.401952 0.776718 0.261428 -0.106222
C66   C     C_1   0.326825 0.634499 0.151593 -0.074192
C67   C     C_1   0.356792 0.704703 0.338498 -0.089026
C68   C     C_R   0.351599 0.135050 0.401966 -0.007907
C69   C     C_R   0.374021 0.243654 0.398192 -0.003081
C70   C     C_R   0.363579 0.268241 0.355347 -0.151416
C71   C     C_R   0.395592 0.114143 0.442811 0.527318
C72   C     C_R   0.316536 0.184916 0.318176 0.004733
C73   C     C_R   0.272940 0.074932 0.323194 0.275626
C74   C     C_R   0.298619 0.049544 0.363696 -0.003126
C75   C     C_R   0.243940 0.643641 0.878388 -0.179657
C76   C     C_R   0.223706 0.139882 0.159774 -0.114600
C77   C     C_R   0.217572 0.141631 0.113655 -0.128708
C78   C     C_R   0.411635 0.291812 0.121114 -0.129051
C79   C     C_R   0.417472 0.289791 0.167273 -0.124737
C80   C     C_R   0.322239 0.216261 0.186698 0.034439
C81   C     C_1   0.324658 0.217295 0.234213 -0.024968
C82   C     C_1   0.322489 0.209575 0.273429 -0.011688
C83   C     C_R   0.359419 0.728575 0.589908 0.025479
C84   C     C_R   0.310027 0.220561 0.094166 0.016131
C85   C     C_R   0.781414 0.132885 0.402365 0.027777
C86   C     C_R   0.394524 0.594055 0.873547 0.249284
C87   C     C_R   0.812709 0.065834 0.372426 0.254829
C88   C     C_R   0.848188 0.094876 0.330102 -0.106865
C89   C     C_R   0.847871 0.186168 0.317066 -0.006216
C90   C     C_R   0.824343 0.256102 0.347449 -0.136499
C91   C     C_R   0.792654 0.230451 0.390023 -0.176344
C92   C     C_R   0.901028 0.314273 0.168968 0.012581
C93   C     C_R   0.919888 0.316620 0.122994 -0.164358
C94   C     C_R   0.849478 0.118821 0.108731 0.247629
C95   C     C_R   0.426169 0.683345 0.604356 0.015606
C96   C     C_R   0.834273 0.116615 0.154674 -0.120175
C97   C     C_R   0.410810 0.620240 0.829928 -0.105698
C98   C     C_R   0.863081 0.213361 0.184609 -0.005829
C99   C     C_1   0.860062 0.207589 0.231735 -0.042995
C100  C     C_1   0.857329 0.200039 0.270940 -0.041596
C101  C     C_R   0.901205 0.221082 0.093450 0.005199
C102  C     C_R   0.284056 0.232655 0.921963 0.549463
C103  C     C_R   0.266839 0.546848 0.937752 0.554117
C104  C     C_R   0.945405 0.221997 0.922904 0.543171
C105  C     C_R   0.291946 0.245200 0.049847 0.536605
C106  C     C_R   0.275238 0.558805 0.065179 0.537044
C107  C     C_R   0.422662 0.664349 0.649286 -0.090462
C108  C     C_R   0.343947 0.656596 0.810651 -0.009400
C109  C     C_R   0.953691 0.233291 0.050008 0.556659
C110  C     C_3   0.382237 0.001990 0.709557 -0.271921
C111  C     C_3   0.410547 0.952549 0.746351 -0.441305
C112  C     C_3   0.982197 0.381186 0.718047 -0.281538
C113  C     C_3   0.052735 0.470952 0.757495 -0.436571
C114  C     C_3   0.222697 0.439559 0.209618 -0.277903
C115  C     C_3   0.178851 0.368971 0.246727 -0.431678
C116  C     C_3   0.105624 0.972474 0.279888 0.008832
C117  C     C_3   0.037407 0.864781 0.247279 -0.259080
C118  C     C_3   0.913981 0.837933 0.239678 -0.494782
Cr1   Cr    Cr6+3 0.583430 0.162610 0.509470 1.005446
Cr2   Cr    Cr6+3 0.584210 0.916680 0.495400 1.010964
Cr3   Cr    Cr6+3 0.332380 0.920740 0.495100 0.999446
Cr4   Cr    Cr6+3 0.086810 0.177030 0.983130 1.031067
Cr5   Cr    Cr6+3 0.337180 0.419300 0.994610 1.020130
Cr6   Cr    Cr6+3 0.084840 0.422330 0.995830 1.008554
H1    H     H_    0.176486 0.650240 0.895858 0.135752
H2    H     H_    0.211539 0.700885 0.820482 0.113961
H3    H     H_    0.035383 0.229837 0.767870 0.101043
H4    H     H_    0.246645 0.761283 0.217909 0.119964
H5    H     H_    0.151916 0.590984 0.271637 0.096769
H6    H     H_    0.449539 0.865734 0.275618 0.110613
H7    H     H_    0.536690 0.747551 0.219027 0.098256
H8    H     H_    0.441092 0.575439 0.272428 0.096058
H9    H     H_    0.137973 0.086124 0.093969 0.147247
H10   H     H_    0.150261 0.081488 0.174695 0.111644
H11   H     H_    0.211431 0.719359 0.682931 0.104213
H12   H     H_    0.133208 0.116604 0.705802 0.099796
H13   H     H_    0.494653 0.347873 0.187974 0.106088
H14   H     H_    0.484217 0.353644 0.107127 0.128994
H15   H     H_    0.392972 0.352657 0.350859 0.113866
H16   H     H_    0.956141 0.393916 0.110452 0.148280
H17   H     H_    0.824795 0.327428 0.337445 0.117339
H18   H     H_    0.769830 0.283736 0.412161 0.138347
H19   H     H_    0.223230 0.765571 0.607911 0.134079
H20   H     H_    0.804395 0.039609 0.167334 0.109214
H21   H     H_    0.870902 0.043494 0.306644 0.099623
H22   H     H_    0.471620 0.606438 0.810214 0.108386
H23   H     H_    0.500621 0.211149 0.781249 0.099647
H24   H     H_    0.479086 0.638318 0.662334 0.106932
H25   H     H_    0.469970 0.018005 0.773538 0.144551
H26   H     H_    0.332087 0.896153 0.760965 0.151284
H27   H     H_    0.452355 0.905188 0.731548 0.154712
H28   H     H_    0.314746 0.935865 0.685014 0.145893
H29   H     H_    0.458503 0.043957 0.690787 0.140522
H30   H     H_    0.996822 0.482586 0.782409 0.146840
H31   H     H_    0.110633 0.449163 0.774362 0.166017
H32   H     H_    0.104197 0.549646 0.744805 0.144757
H33   H     H_    0.039747 0.369797 0.693910 0.148238
H34   H     H_    0.462417 0.341010 0.726210 0.108105
H35   H     H_    0.928690 0.406645 0.700347 0.143757
H36   H     H_    0.250791 0.382956 0.269658 0.150788
H37   H     H_    0.120035 0.389146 0.266712 0.149589
H38   H     H_    0.132304 0.280677 0.231359 0.150711
H39   H     H_    0.150141 0.423079 0.186482 0.158050
H40   H     H_    0.280397 0.417221 0.189816 0.158358
H41   H     H_    0.104805 0.040262 0.265046 0.135712
H42   H     H_    0.063387 0.965606 0.312196 0.133036
H43   H     H_    0.076395 0.871550 0.214403 0.170411
H44   H     H_    0.039711 0.796637 0.261215 0.160423
H45   H     H_    0.265619 0.305395 0.771683 0.115111
H46   H     H_    0.872529 0.827682 0.271985 0.141906
H47   H     H_    0.867077 0.759945 0.215537 0.144657
H48   H     H_    0.909541 0.904716 0.225480 0.143869
H49   H     H_    0.150633 0.890191 0.412068 0.173176
H50   H     H_    0.093971 0.850841 0.354062 0.135903
H51   H     H_    0.150796 0.774489 0.376944 0.147434
H52   H     H_    0.285280 0.896711 0.328104 0.172870
H53   H     H_    0.347671 0.933653 0.382670 0.162207
H54   H     H_    0.328920 0.422204 0.414129 0.149233
H55   H     H_    0.242508 0.316352 0.446839 0.164474
H56   H     H_    0.792012 0.315997 0.784728 0.097577
H57   H     H_    0.357166 0.446275 0.474192 0.134542
H58   H     H_    0.415538 0.308127 0.470642 0.170093
H59   H     H_    0.498099 0.402761 0.433900 0.141202
H60   H     H_    0.057072 0.543626 0.169496 0.158308
H61   H     H_    0.914067 0.519810 0.156425 0.149693
H62   H     H_    0.988126 0.593088 0.210541 0.129889
H63   H     H_    0.843430 0.403060 0.216906 0.147681
H64   H     H_    0.984481 0.428442 0.230281 0.143936
H65   H     H_    0.741035 0.871639 0.323415 0.106697
H66   H     H_    0.640799 0.875112 0.363373 0.148086
H67   H     H_    0.640057 0.123395 0.725342 0.106695
H68   H     H_    0.803045 0.781205 0.374347 0.160433
H69   H     H_    0.701363 0.782316 0.413357 0.180973
H70   H     H_    0.542743 0.663866 0.354305 0.157135
H71   H     H_    0.627761 0.600245 0.363596 0.139428
H72   H     H_    0.643940 0.664597 0.314249 0.138747
H73   H     H_    0.665583 0.999019 0.060980 0.128128
H74   H     H_    0.671446 0.924698 0.104871 0.123652
H75   H     H_    0.713844 0.882541 0.004941 0.167595
H76   H     H_    0.724915 0.810817 0.048268 0.169426
H77   H     H_    0.519582 0.746546 0.062093 0.152406
H78   H     H_    0.710701 0.998669 0.770220 0.107149
H79   H     H_    0.537747 0.702060 0.004826 0.155996
H80   H     H_    0.508757 0.815470 0.017283 0.142656
H81   H     H_    0.489925 0.515976 0.602994 0.149937
H82   H     H_    0.376728 0.479194 0.560547 0.156943
H83   H     H_    0.517504 0.512386 0.544407 0.136695
H84   H     H_    0.491632 0.666653 0.538576 0.162864
H85   H     H_    0.590989 0.706951 0.586440 0.146507
H86   H     H_    0.574889 0.703583 0.922714 0.118186
H87   H     H_    0.612771 0.652303 0.869973 0.120588
H88   H     H_    0.584458 0.558763 0.958728 0.173623
H89   H     H_    0.882010 0.035861 0.708470 0.100873
H90   H     H_    0.620985 0.506901 0.906452 0.175464
H91   H     H_    0.797954 0.687888 0.908737 0.147140
H92   H     H_    0.792659 0.629109 0.958873 0.147338
H93   H     H_    0.761313 0.740855 0.961078 0.144613
H94   H     H_    0.036123 0.906753 0.703461 0.146915
H95   H     H_    0.130161 0.848571 0.704682 0.143718
H96   H     H_    0.006394 0.799488 0.736283 0.132718
H97   H     H_    0.181669 0.925009 0.787167 0.137403
H98   H     H_    0.084530 0.978528 0.786476 0.143928
O1    O     O_R   0.493980 0.188910 0.559650 -0.511386
O2    O     O_R   0.170560 0.527890 0.952050 -0.526467
O3    O     O_R   0.987620 0.318470 0.945550 -0.494384
O4    O     O_R   0.678640 0.153520 0.554450 -0.493661
O5    O     O_R   0.976400 0.159270 0.031530 -0.458031
O6    O     O_R   0.194000 0.188570 0.028560 -0.503254
O7    O     O_R   0.365260 0.335720 0.039020 -0.523889
O8    O     O_R   0.330440 0.515580 0.044910 -0.504054
O9    O     O_R   0.177310 0.536200 0.050190 -0.513183
O10   O     O_R   0.993870 0.326170 0.036530 -0.520257
O11   O     O_3   0.169610 0.339550 0.991190 -0.246916
O12   O     O_R   0.480180 0.824400 0.444640 -0.504596
O13   O     O_R   0.698130 0.004030 0.549500 -0.508746
O14   O     O_R   0.481060 0.827210 0.535360 -0.505810
O15   O     O_R   0.309260 0.811560 0.537660 -0.517433
O16   O     O_R   0.341620 0.023400 0.546290 -0.493005
O17   O     O_R   0.493030 0.185890 0.461780 -0.522242
O18   O     O_R   0.677760 0.150720 0.463730 -0.515194
O19   O     O_R   0.697180 0.001010 0.451640 -0.470534
O20   O     O_3   0.218310 0.992052 0.286463 -0.580848
O21   O     O_3   0.812476 0.974831 0.385186 -0.557490
O22   O     O_3   0.826291 0.023195 0.079823 -0.553021
O23   O     O_R   0.308310 0.808540 0.439800 -0.522398
O24   O     O_3   0.454004 0.547431 0.890039 -0.542908
O25   O     O_R   0.340740 0.020600 0.455570 -0.506632
O26   O     O_3   0.500010 0.000010 0.499990 -0.238867
O27   O     O_R   0.969650 0.150960 0.933380 -0.512062
O28   O     O_R   0.187740 0.180870 0.937580 -0.500240
O29   O     O_R   0.358510 0.327410 0.940870 -0.487665
O30   O     O_R   0.324180 0.507870 0.953930 -0.451010

loop_
_geom_bond_atom_site_label_1
_geom_bond_atom_site_label_2
_ccdc_geom_bond_type
C1    O4    A    
C113  H31   S    
C21   C26   S    
C63   C65   S    
C44   H3    S    
C31   C42   A    
C6    H55   S    
C20   H93   S    
C19   C20   S    
C11   H70   S    
C71   O25   A    
C113  H30   S    
C22   H95   S    
C47   O18   A    
C81   C82   T    
C85   C91   A    
C92   C98   A    
C7    C8    S    
C116  C117  S    
C46   C49   S    
C21   H97   S    
C62   C67   S    
C60   C63   S    
C103  O30   A    
C47   C85   S    
C7    H63   S    
C17   H82   S    
C18   H86   S    
C11   H71   S    
C48   C50   S    
C29   C32   S    
C110  H28   S    
C42   C53   A    
C5    C6    S    
C23   O15   A    
C109  O10   A    
Cr3   O15   S    
C43   C52   T    
C57   C59   S    
C96   H20   S    
C45   C51   S    
C117  H44   S    
C68   C74   A    
Cr3   O16   S    
C78   H14   S    
C33   C36   S    
C106  O9    A    
C18   C19   S    
C97   H22   S    
C105  O6    A    
C61   C63   S    
C86   C97   A    
C94   O22   S    
C110  C111  S    
C5    C69   S    
C25   H12   S    
C61   H8    S    
Cr2   O12   S    
Cr5   O11   S    
C97   C108  A    
C114  H40   S    
C1    C43   S    
Cr3   O26   S    
C15   H80   S    
C73   O20   S    
Cr6   O2    S    
C28   C35   S    
C68   C69   A    
C12   O22   S    
C4    H51   S    
C96   C98   A    
C88   H21   S    
C56   C66   T    
C118  H48   S    
C9    C10   S    
C91   H18   S    
C88   C89   A    
C8    H60   S    
C58   C61   S    
Cr3   O23   S    
C22   H94   S    
Cr3   O25   S    
C60   C66   S    
C70   H15   S    
C86   O24   S    
C40   H56   S    
C21   C22   S    
C6    H54   S    
C116  H42   S    
C61   C62   S    
C35   O16   A    
C77   H9    S    
C112  H35   S    
C57   C67   T    
C9    H65   S    
C111  H25   S    
C112  C113  S    
C15   H77   S    
C44   C46   S    
C64   C108  A    
C58   C60   S    
C32   H34   S    
C85   C87   A    
C73   C74   A    
C25   C29   S    
C40   C45   S    
C28   C38   T    
C116  O20   S    
C70   C72   A    
C21   H98   S    
C30   C34   S    
C6    H57   S    
C102  O29   A    
C90   H17   S    
C20   H91   S    
Cr6   O3    S    
C7    H64   S    
C17   H83   S    
C76   C77   A    
C94   C101  A    
C112  H33   S    
C10   H69   S    
C93   C101  A    
C39   C40   S    
C47   O19   A    
C76   H10   S    
C78   C79   A    
C72   C73   A    
C89   C100  S    
C77   C84   A    
C8    H62   S    
C25   C26   S    
C14   H76   S    
C10   H68   S    
C106  O8    A    
C30   C37   S    
C42   H11   S    
C3    C74   S    
C32   C34   S    
C115  H37   S    
Cr1   O26   S    
Cr5   O29   S    
C29   C30   S    
C35   O1    A    
C103  O2    A    
Cr4   O28   S    
C71   O17   A    
C34   H23   S    
C18   O24   S    
C87   O21   S    
C99   C100  T    
Cr5   O7    S    
C45   C49   S    
C12   H73   S    
C46   H89   S    
Cr4   O6    S    
Cr1   O1    S    
C84   C105  S    
C59   O23   A    
C83   C95   A    
C11   H72   S    
C94   C96   A    
C50   H67   S    
C2    C13   T    
C56   C106  S    
Cr6   O10   S    
C95   C107  A    
C118  H46   S    
C23   O14   A    
C26   C36   S    
C39   C112  S    
C79   H13   S    
C12   C14   S    
C26   C30   S    
C63   H7    S    
C4    H49   S    
C36   C110  S    
C1    O13   A    
C49   C50   S    
C116  H41   S    
C49   H78   S    
C59   O12   A    
Cr6   O11   S    
C113  H32   S    
C90   C91   A    
C3    C4    S    
C9    O21   S    
C111  H26   S    
C20   H92   S    
C5    H58   S    
C44   C45   S    
C9    H66   S    
C54   C58   S    
C54   H5    S    
C22   H96   S    
C54   C55   S    
C16   H85   S    
C16   C95   S    
C104  O27   A    
C62   C65   S    
C55   C65   S    
C31   C107  A    
C19   H88   S    
C13   C31   S    
C76   C80   A    
C80   C81   S    
C16   H84   S    
C111  H27   S    
C15   H79   S    
C24   C75   A    
C114  C115  S    
C39   C44   S    
C23   C83   S    
C41   C51   T    
C8    H61   S    
C54   C62   S    
C14   H75   S    
C27   C102  S    
C64   H2    S    
C33   C38   S    
C41   C104  S    
C65   H6    S    
C115  H36   S    
C53   C83   A    
C19   H90   S    
C29   H45   S    
C32   C33   S    
C24   C103  S    
C115  H38   S    
C17   H81   S    
C18   H87   S    
C3    H53   S    
C53   H19   S    
Cr5   O30   S    
Cr2   O13   S    
C110  H29   S    
C117  C118  S    
Cr2   O14   S    
Cr4   O27   S    
C107  H24   S    
C109  O5    A    
Cr1   O17   S    
C114  H39   S    
C16   C17   S    
Cr5   O8    S    
C24   C86   A    
C118  H47   S    
C117  H43   S    
C68   C71   S    
C40   C50   S    
Cr4   O5    S    
C93   H16   S    
C2    C108  S    
C92   C93   A    
C64   C75   A    
C102  O28   A    
C34   C36   S    
Cr2   O19   S    
C69   C70   A    
Cr1   O18   S    
Cr6   O9    S    
C25   C33   S    
C10   C11   S    
C79   C80   A    
C46   C48   S    
C78   C84   A    
C3    H52   S    
C48   C52   S    
Cr4   O11   S    
C55   H4    S    
C87   C88   A    
C104  O3    A    
C98   C99   S    
C7    C92   S    
C58   C114  S    
C12   H74   S    
C14   C15   S    
C4    H50   S    
Cr2   O26   S    
C75   H1    S    
C89   C90   A    
C55   C60   S    
C101  C109  S    
C5    H59   S    
C72   C82   S    
C27   C37   T    
Cr1   O4    S    
C105  O7    A    
C39   C48   S    
