data_mof_unit_66645.cif
_audit_creation_date              2012-12-11T14:27:24-0500
_audit_creation_method            fapswitch 2.2
_symmetry_space_group_name_H-M    P1
_symmetry_Int_Tables_number       1
_space_group_crystal_system       triclinic
_cell_length_a                    8.351027
_cell_length_b                    15.086424
_cell_length_c                    15.027842
_cell_angle_alpha                 96.154326
_cell_angle_beta                  100.291865
_cell_angle_gamma                 97.940513
_cell_volume                      1828.01512606

loop_
_atom_site_label
_atom_site_type_symbol
_atom_type_description
_atom_site_fract_x
_atom_site_fract_y
_atom_site_fract_z
_atom_type_partial_charge
Ba1   Ba    Ba6+2 0.154720 0.543770 0.458160 1.865815
Ba2   Ba    Ba6+2 0.655440 0.456220 0.541760 1.811257
C1    C     C_3   0.376418 0.889736 0.166905 1.017663
C2    C     C_R   0.892198 0.795309 0.528280 0.020829
C3    C     C_R   0.076791 0.232611 0.521319 -0.223073
C4    C     C_3   0.933929 0.782553 0.266454 0.784850
C5    C     C_R   0.177925 0.172324 0.553341 0.010611
C6    C     C_R   0.114189 0.080321 0.545925 -0.028013
C7    C     C_R   0.947656 0.045982 0.503451 0.054046
C8    C     C_R   0.851491 0.107478 0.460894 -0.062884
C9    C     C_R   0.875845 0.952105 0.498459 0.047228
C10   C     C_R   0.706637 0.922975 0.455116 -0.082188
C11   C     C_R   0.617238 0.985814 0.415901 0.488873
C12   C     C_3   0.425758 0.815476 0.224654 0.680711
C13   C     C_R   0.693567 0.072486 0.408526 0.406433
C14   C     C_R   0.965375 0.886204 0.535822 -0.031679
C15   C     C_R   0.728589 0.768767 0.484386 -0.190034
C16   C     C_3   0.949261 0.875405 0.235432 1.035970
C17   C     C_R   0.916747 0.202563 0.472241 0.062295
C18   C     C_R   0.235936 0.466840 0.766181 -0.301951
C19   C     C_R   0.153674 0.414171 0.820509 -0.001677
C20   C     C_R   0.239347 0.403037 0.908711 0.382442
C21   C     C_R   0.389810 0.462877 0.947925 0.016232
C22   C     C_R   0.466679 0.516253 0.890856 -0.212513
C23   C     C_3   0.533845 0.741601 0.677931 0.334853
C24   C     C_R   0.395074 0.513598 0.799360 0.017145
C25   C     C_R   0.619722 0.517077 0.086186 -0.354684
C26   C     C_R   0.672887 0.549433 0.179184 0.010173
C27   C     C_R   0.408380 0.486346 0.208373 0.007274
C28   C     C_3   0.726760 0.331090 0.243272 1.106563
C29   C     C_R   0.342460 0.477923 0.113252 0.293601
C30   C     C_R   0.452011 0.482207 0.050198 -0.022812
C31   C     C_R   0.567954 0.532802 0.240118 0.431061
C32   C     C_3   0.812966 0.321794 0.160015 0.466797
C33   C     C_3   0.966939 0.684243 0.744129 0.376534
C34   C     C_3   0.485138 0.833664 0.700446 -0.282442
C35   C     C_3   0.973075 0.739483 0.837106 1.152708
C36   C     C_3   0.195758 0.269775 0.337097 0.478091
C37   C     C_3   0.101152 0.173963 0.298680 0.253313
C38   C     C_3   0.512938 0.727633 0.109914 0.106405
C39   C     C_3   0.245885 0.730329 0.905389 0.273640
C40   C     C_3   0.862006 0.727736 0.968548 0.208627
C41   C     C_3   0.010137 0.094265 0.152083 0.221607
C42   C     C_3   0.084148 0.023125 0.771638 0.164541
C43   C     C_3   0.785409 0.030718 0.885869 0.149909
C44   C     C_3   0.469171 0.123342 0.326360 0.348957
C45   C     C_3   0.911145 0.197305 0.739719 1.267789
C46   C     C_3   0.064740 0.310474 0.978350 0.238109
C47   C     C_3   0.135582 0.548000 0.041669 0.274890
C48   C     C_3   0.480955 0.253402 0.143954 0.008457
C49   C     C_3   0.854618 0.101795 0.763125 1.160568
C50   C     C_3   0.470658 0.265898 0.780994 0.375980
C51   C     C_3   0.514817 0.241287 0.876897 -0.318907
C52   C     C_R   0.633877 0.830292 0.447665 0.061003
F1    F     F_    0.972892 0.311773 0.186906 -0.729223
F2    F     F_    0.791643 0.767993 0.301194 -0.783830
F3    F     F_    0.624375 0.557767 0.330993 -0.670542
F4    F     F_    0.812696 0.881155 0.170659 -0.719432
F5    F     F_    0.789464 0.415492 0.291178 -0.695377
F6    F     F_    0.869984 0.803237 0.820717 -0.764405
F7    F     F_    0.257512 0.854055 0.090349 -0.735253
F8    F     F_    0.511704 0.935953 0.140929 -0.690035
F9    F     F_    0.963884 0.941200 0.309101 -0.749828
F10   F     F_    0.846848 0.198984 0.648897 -0.712425
F11   F     F_    0.081146 0.214649 0.753575 -0.816372
F12   F     F_    0.686649 0.080271 0.726980 -0.702346
F13   F     F_    0.454652 0.963231 0.380597 -0.762791
H1    H     H_    0.759796 0.261263 0.109693 -0.094776
H2    H     H_    0.656067 0.753256 0.659140 -0.037866
H3    H     H_    0.445694 0.705444 0.617319 0.060185
H4    H     H_    0.574390 0.872759 0.759590 0.147307
H5    H     H_    0.484186 0.871608 0.641020 0.094702
H6    H     H_    0.361042 0.826008 0.717922 0.138185
H7    H     H_    0.323646 0.939027 0.207328 -0.002217
H8    H     H_    0.357337 0.296756 0.775193 0.047734
H9    H     H_    0.572250 0.316383 0.770254 0.085981
H10   H     H_    0.409349 0.196587 0.892693 0.147984
H11   H     H_    0.545792 0.303645 0.927036 0.069558
H12   H     H_    0.808382 0.382092 0.124086 0.003205
H13   H     H_    0.040411 0.781423 0.321815 0.021796
H14   H     H_    0.623345 0.205922 0.883227 0.144650
H15   H     H_    0.673035 0.698859 0.479954 0.092546
H16   H     H_    0.091897 0.903030 0.571070 0.066051
H17   H     H_    0.126785 0.303805 0.530511 0.027300
H18   H     H_    0.197950 0.037574 0.573798 0.072173
H19   H     H_    0.708777 0.523018 0.042280 0.107425
H20   H     H_    0.580065 0.562651 0.917021 0.097733
H21   H     H_    0.174715 0.472541 0.697676 0.072622
H22   H     H_    0.059172 0.887302 0.204621 -0.052392
H23   H     H_    0.000310 0.616397 0.752684 -0.058612
H24   H     H_    0.635455 0.722211 0.147401 0.125397
H25   H     H_    0.521535 0.785713 0.070901 0.144396
H26   H     H_    0.470863 0.666827 0.058704 -0.005721
H27   H     H_    0.224060 0.710260 0.971395 0.089229
H28   H     H_    0.372664 0.768633 0.916555 0.083608
H29   H     H_    0.240934 0.669821 0.855387 -0.079994
H30   H     H_    0.743619 0.751217 0.943692 0.095150
H31   H     H_    0.956779 0.785400 0.004925 0.159201
H32   H     H_    0.838246 0.680662 0.018067 0.033578
H33   H     H_    0.940996 0.142689 0.117347 0.079051
H34   H     H_    0.840099 0.675501 0.705735 -0.004308
H35   H     H_    0.926219 0.048844 0.183192 0.151754
H36   H     H_    0.055141 0.052013 0.099757 0.078255
H37   H     H_    0.060323 0.969908 0.815268 0.129975
H38   H     H_    0.156184 0.085056 0.814872 0.105180
H39   H     H_    0.162537 0.998481 0.725256 0.062917
H40   H     H_    0.797073 0.964843 0.849390 0.133022
H41   H     H_    0.654295 0.040635 0.875398 0.103245
H42   H     H_    0.827391 0.028794 0.959750 0.066242
H43   H     H_    0.422263 0.121361 0.390863 0.047754
H44   H     H_    0.392652 0.072694 0.272236 0.113275
H45   H     H_    0.110270 0.311191 0.363033 -0.068276
H46   H     H_    0.455681 0.189419 0.304107 0.095251
H47   H     H_    0.992466 0.243863 0.950143 0.107808
H48   H     H_    0.984400 0.362515 0.965519 0.043752
H49   H     H_    0.098620 0.308112 0.052508 0.149314
H50   H     H_    0.181806 0.554907 0.978373 -0.074800
H51   H     H_    0.179803 0.611603 0.088837 0.124192
H52   H     H_    0.999699 0.540939 0.021099 0.076895
H53   H     H_    0.530583 0.189754 0.154474 0.091028
H54   H     H_    0.494861 0.274083 0.076770 0.042403
H55   H     H_    0.346564 0.238736 0.139673 0.179094
H56   H     H_    0.296912 0.266239 0.394935 -0.152062
H57   H     H_    0.967419 0.175308 0.290057 0.059223
H58   H     H_    0.129355 0.127202 0.349410 -0.008986
H59   H     H_    0.556392 0.836309 0.259680 0.052899
O1    O     O_2   0.174040 0.723040 0.553850 -0.473719
O2    O     O_2   0.829083 0.434716 0.823238 -0.519473
O3    O     O_3   0.851845 0.262921 0.793852 -0.667031
O4    O     O_3   0.901550 0.609570 0.550800 -0.469569
O5    O     O_3   0.408230 0.452130 0.390190 -0.435055
O6    O     O_2   0.675480 0.547140 0.721810 -0.465266
O7    O     O_3   0.540944 0.695780 0.755281 -0.622080
O8    O     O_2   0.515789 0.175974 0.554586 -0.425331
O9    O     O_3   0.447262 0.188019 0.717072 -0.532528
O10   O     O_3   0.370320 0.665070 0.388210 -0.455121
O11   O     O_2   0.306832 0.819477 0.457573 -0.454458
O12   O     O_3   0.262869 0.307885 0.268244 -0.548969
O13   O     O_3   0.076795 0.729899 0.698328 -0.670141
O14   O     O_3   0.320084 0.809399 0.287877 -0.626218
O15   O     O_2   0.134800 0.452800 0.278160 -0.372610
O16   O     O_3   0.937630 0.618610 0.340820 -0.357754
O17   O     O_2   0.006251 0.555563 0.189443 -0.455837
O18   O     O_3   0.400515 0.730594 0.169619 -0.676114
O19   O     O_3   0.134058 0.787653 0.874575 -0.625332
O20   O     O_3   0.915352 0.680198 0.896171 -0.733490
O21   O     O_3   0.147460 0.141278 0.216521 -0.661234
O22   O     O_3   0.933856 0.037150 0.718469 -0.677309
O23   O     O_3   0.931438 0.716700 0.191955 -0.695509
O24   O     O_3   0.884722 0.103047 0.859649 -0.749917
O25   O     O_3   0.635596 0.113070 0.333701 -0.655147
O26   O     O_3   0.210691 0.321691 0.943189 -0.664368
O27   O     O_3   0.174099 0.471874 0.084555 -0.646412
O28   O     O_3   0.553472 0.325332 0.214950 -0.731843
O29   O     O_2   0.636250 0.276900 0.446120 -0.455923
O30   O     O_3   0.908740 0.390420 0.449120 -0.432305
O31   O     O_3   0.439970 0.334920 0.611710 -0.510316
O32   O     O_3   0.760127 0.262821 0.298029 -0.645061
O33   O     O_3   0.402050 0.547860 0.609740 -0.495457
O34   O     O_3   0.872650 0.381380 0.659100 -0.427646
P1    P     P_3+3 0.004160 0.709210 0.580280 0.982343
P2    P     P_3+3 0.305010 0.425580 0.290930 1.215996
P3    P     P_3+3 0.883141 0.609408 0.223704 1.111488
P4    P     P_3+3 0.806120 0.290780 0.419650 1.121512
P5    P     P_3+3 0.930028 0.372500 0.775220 1.015088
P6    P     P_3+3 0.414610 0.782174 0.393635 1.070913
P7    P     P_3+3 0.502326 0.577905 0.723805 0.956551
P8    P     P_3+3 0.394804 0.217394 0.607129 1.051298

loop_
_geom_bond_atom_site_label_1
_geom_bond_atom_site_label_2
_ccdc_geom_bond_type
C5    P8    S    
Ba2   O29   S    
C37   H58   S    
Ba1   O30   S    
C48   H55   S    
O6    P7    D    
C38   H26   S    
C50   H8    S    
C13   O25   S    
C42   H37   S    
C5    C6    A    
C39   H28   S    
C42   H38   S    
C10   C11   A    
O10   P6    S    
C45   O3    S    
C48   H53   S    
C47   O27   S    
C33   C35   S    
C22   C24   A    
C6    H18   S    
C8    C13   A    
C40   H31   S    
C36   C37   S    
C43   H42   S    
C16   F9    S    
C39   H29   S    
O15   P2    D    
C27   C31   A    
C19   P5    S    
C51   H14   S    
C15   H15   S    
C1    H7    S    
Ba1   O16   S    
C33   O13   S    
C4    O23   S    
C16   F4    S    
C47   H50   S    
C47   H51   S    
C49   O24   S    
Ba2   O33   S    
Ba2   O6    S    
C21   C22   A    
O23   P3    S    
C35   O20   S    
Ba1   O10   S    
C23   O7    S    
C7    C8    A    
C36   H56   S    
C34   H4    S    
O32   P4    S    
C46   H49   S    
C44   O25   S    
Ba1   P1    S    
C32   F1    S    
O1    P1    D    
C42   O22   S    
C44   H44   S    
C48   H54   S    
C52   P6    S    
O31   P8    S    
O17   P3    D    
O11   P6    D    
C29   O27   S    
C20   O26   S    
C1    F7    S    
O14   P6    S    
C4    C16   S    
C12   O18   S    
C24   P7    S    
C28   C32   S    
Ba1   O33   S    
Ba1   O15   S    
C41   H33   S    
Ba1   O4    S    
C40   H30   S    
Ba2   P4    S    
O16   P3    S    
C3    C5    A    
C3    H17   S    
C6    C7    A    
C45   C49   S    
O5    P2    S    
C50   H9    S    
C14   H16   S    
C37   H57   S    
C49   F12   S    
C2    C14   A    
C25   H19   S    
C51   H10   S    
C32   H12   S    
C9    C14   A    
C4    H13   S    
C39   H27   S    
O13   P1    S    
C8    C17   A    
O9    P8    S    
C28   F5    S    
Ba2   O5    S    
C36   O12   S    
O12   P2    S    
O34   P5    S    
C38   H25   S    
C7    C9    A    
C1    C12   S    
C46   H48   S    
C2    C15   A    
O4    P1    S    
C12   O14   S    
Ba1   P2    S    
C42   H39   S    
C11   C13   A    
O2    P5    D    
O8    P8    D    
O7    P7    S    
C23   H2    S    
C36   H45   S    
C40   O20   S    
C45   F10   S    
C50   C51   S    
C46   H47   S    
C11   F13   S    
C1    F8    S    
C28   O32   S    
C43   O24   S    
Ba2   O30   S    
C44   H46   S    
C25   C30   A    
C2    P1    S    
C16   H22   S    
C27   P2    S    
C29   C30   A    
Ba1   O1    S    
C4    F2    S    
C33   H34   S    
C26   C31   A    
C9    C10   A    
C43   H41   S    
C3    C17   A    
C31   F3    S    
O29   P4    D    
C12   H59   S    
C38   O18   S    
O3    P5    S    
C21   C30   S    
C46   O26   S    
C51   H11   S    
C41   H35   S    
C27   C29   A    
C44   H43   S    
C32   H1    S    
C40   H32   S    
C47   H52   S    
C18   C24   A    
C49   O22   S    
C48   O28   S    
Ba2   O31   S    
Ba1   O5    S    
Ba1   Ba2   S    
Ba2   O4    S    
O33   P7    S    
C17   P4    S    
C38   H24   S    
C22   H20   S    
C41   H36   S    
C35   F6    S    
C41   O21   S    
C34   H6    S    
C23   C34   S    
C33   H23   S    
C34   H5    S    
C28   O28   S    
C39   O19   S    
C18   C19   A    
O30   P4    S    
Ba2   O34   S    
C18   H21   S    
C37   O21   S    
C25   C26   A    
C50   O9    S    
C20   C21   A    
C23   H3    S    
C35   O19   S    
C19   C20   A    
C15   C52   A    
C45   F11   S    
C10   C52   A    
C43   H40   S    
C26   P3    S    
