data_mof_unit_9047.cif
_audit_creation_date              2012-12-10T17:16:42-0500
_audit_creation_method            fapswitch 2.2
_symmetry_space_group_name_H-M    P1
_symmetry_Int_Tables_number       1
_space_group_crystal_system       triclinic
_cell_length_a                    23.437897
_cell_length_b                    12.974423
_cell_length_c                    11.832277
_cell_angle_alpha                 100.274299
_cell_angle_beta                  92.52077
_cell_angle_gamma                 90.589829
_cell_volume                      3536.39149004

loop_
_atom_site_label
_atom_site_type_symbol
_atom_type_description
_atom_site_fract_x
_atom_site_fract_y
_atom_site_fract_z
_atom_type_partial_charge
C1    C     C_R   0.499260 0.299051 0.477782 0.855444
C2    C     C_R   0.498413 0.700539 0.521956 0.854456
C3    C     C_R   0.241726 0.595645 0.529736 0.332625
C4    C     C_R   0.761471 0.418585 0.470109 0.364837
C5    C     C_R   0.300706 0.592870 0.510983 0.212898
C6    C     C_R   0.701755 0.415348 0.469607 0.255949
C7    C     C_R   0.329260 0.497576 0.505138 -0.321913
C8    C     C_R   0.671251 0.508662 0.497243 -0.296737
C9    C     C_R   0.298414 0.403309 0.503628 0.244564
C10   C     C_R   0.700070 0.606752 0.527905 0.226029
C11   C     C_R   0.238841 0.405378 0.511978 0.337599
C12   C     C_R   0.760939 0.607984 0.536982 0.303368
C13   C     C_R   0.210599 0.501767 0.524367 0.058718
C14   C     C_R   0.790839 0.514808 0.503595 0.064400
C15   C     C_R   0.491685 0.813839 0.534423 -0.181984
C16   C     C_R   0.496507 0.184441 0.462156 -0.175516
C17   C     C_R   0.509640 0.011986 0.347277 0.198083
C18   C     C_R   0.465745 0.983339 0.641401 0.186636
C19   C     C_R   0.510398 0.121202 0.357200 0.375053
C20   C     C_R   0.473224 0.875370 0.636134 0.403766
C21   C     C_R   0.479758 0.138570 0.553894 -0.303012
C22   C     C_R   0.500632 0.859477 0.438633 -0.330423
C23   C     C_R   0.391423 0.497593 0.501187 0.948062
C24   C     C_R   0.608724 0.502850 0.499058 0.972489
C25   C     C_R   0.479302 0.029973 0.546148 -0.020482
C26   C     C_R   0.495861 0.966687 0.442993 0.025718
C27   C     C_R   0.437096 0.427182 0.026828 -0.362728
C28   C     C_R   0.566906 0.563043 0.969051 -0.317888
C29   C     C_R   0.441694 0.435480 0.146686 0.386557
C30   C     C_R   0.558282 0.565978 0.850730 0.381740
C31   C     C_R   0.532450 0.520088 0.151582 0.549290
C32   C     C_R   0.468533 0.478966 0.848750 0.571281
C33   C     C_R   0.525879 0.519577 0.030133 -0.108952
C34   C     C_R   0.476939 0.475059 0.968317 -0.119969
C35   C     C_R   0.880859 0.489818 0.602507 0.618276
C36   C     C_R   0.120507 0.521710 0.425090 0.654790
C37   C     C_R   0.880519 0.545039 0.420474 0.608128
C38   C     C_R   0.121453 0.495792 0.619917 0.564049
C39   C     C_R   0.940212 0.540408 0.420004 -0.072450
C40   C     C_R   0.061617 0.495705 0.618242 -0.052204
C41   C     C_R   0.970713 0.516127 0.516785 -0.088312
C42   C     C_R   0.030971 0.513509 0.518646 -0.072570
C43   C     C_R   0.941018 0.494172 0.611431 -0.139328
C44   C     C_R   0.060489 0.528678 0.421057 -0.128307
C45   C     C_R   0.969735 0.558176 0.324539 -0.256455
C46   C     C_R   0.032022 0.478433 0.713857 -0.270142
C47   C     C_R   0.029153 0.549195 0.322652 0.449750
C48   C     C_R   0.972277 0.477484 0.711456 0.459751
Cu1   Cu    Cu3+1 0.504210 0.507730 0.615930 1.015831
Cu2   Cu    Cu3+1 0.495790 0.492270 0.384070 0.969757
H1    H     H_    0.946830 0.577065 0.249563 0.187155
H2    H     H_    0.055013 0.464059 0.790706 0.185676
H3    H     H_    0.400621 0.385405 0.980558 0.196492
H4    H     H_    0.605121 0.597709 0.013417 0.195420
H5    H     H_    0.513678 0.810507 0.361171 0.177262
H6    H     H_    0.469132 0.188912 0.632944 0.206739
N1    N     N_R   0.852181 0.517375 0.509451 -0.407149
N2    N     N_R   0.149364 0.504806 0.523010 -0.403856
N3    N     N_R   0.510550 0.519360 0.790130 -0.247631
N4    N     N_R   0.489450 0.480640 0.209870 -0.234439
O1    O     O_R   0.502990 0.354470 0.582000 -0.565695
O2    O     O_R   0.497010 0.645530 0.418000 -0.620438
O3    O     O_R   0.495870 0.341410 0.386200 -0.576323
O4    O     O_R   0.504130 0.658590 0.613800 -0.562390
O5    O     O_R   0.421440 0.506500 0.597920 -0.560563
O6    O     O_R   0.578560 0.493500 0.402080 -0.563775
O7    O     O_R   0.414320 0.493440 0.402120 -0.559872
O8    O     O_R   0.585680 0.506560 0.597880 -0.540385
O9    O     O_2   0.851037 0.457630 0.685153 -0.493663
O10   O     O_2   0.150202 0.532158 0.332536 -0.508634
O11   O     O_2   0.850836 0.574612 0.331606 -0.565077
O12   O     O_2   0.151526 0.488059 0.717819 -0.612849
O13   O     O_3   0.418034 0.440290 0.791022 -0.551437
C49   C     C_3   0.373009 0.510597 0.823873 0.058027
H7    H     H_    0.370483 0.569989 0.767316 0.171263
H8    H     H_    0.377580 0.554497 0.913897 0.120265
C50   C     C_3   0.316545 0.449940 0.811102 -0.813334
H9    H     H_    0.312721 0.405188 0.882082 0.225174
H10   H     H_    0.280383 0.504781 0.812780 0.215704
H11   H     H_    0.314210 0.393843 0.728832 0.283359
O14   O     O_3   0.585617 0.544225 0.206011 -0.568991
C51   C     C_3   0.594449 0.653780 0.236513 0.055494
H12   H     H_    0.582309 0.679269 0.325936 0.195891
H13   H     H_    0.569959 0.700062 0.180564 0.107574
C52   C     C_3   0.657920 0.679303 0.233222 -0.800716
H14   H     H_    0.673736 0.654452 0.145869 0.237718
H15   H     H_    0.665491 0.765035 0.258949 0.199531
H16   H     H_    0.682702 0.637912 0.292953 0.260000
N5    N     N_2   0.596970 0.624316 0.795855 -0.356604
H17   H     H_    0.580689 0.692969 0.776723 0.282838
C53   C     C_3   0.656702 0.630827 0.833949 -0.692442
H18   H     H_    0.682243 0.656942 0.767615 0.249285
H19   H     H_    0.672185 0.552805 0.846547 0.240630
H20   H     H_    0.663285 0.689103 0.914614 0.199493
N6    N     N_2   0.395066 0.396587 0.199868 -0.395908
H21   H     H_    0.386693 0.318193 0.169239 0.201496
C54   C     C_3   0.343531 0.456965 0.194304 -0.671230
H22   H     H_    0.311484 0.431748 0.250402 0.215397
H23   H     H_    0.324638 0.444987 0.105082 0.203018
H24   H     H_    0.353036 0.541737 0.224232 0.243137
O15   O     O_3   0.056527 0.567134 0.226622 -0.539068
C55   C     C_3   0.052926 0.474801 0.142646 0.084339
H25   H     H_    0.008658 0.462241 0.104566 0.129436
H26   H     H_    0.065950 0.404586 0.179275 0.144759
C56   C     C_3   0.092924 0.485585 0.047420 -0.699422
H27   H     H_    0.089341 0.414445 0.979494 0.191466
H28   H     H_    0.081730 0.555167 0.008929 0.234477
H29   H     H_    0.137763 0.494673 0.082637 0.268460
O16   O     O_3   0.944822 0.457319 0.806504 -0.536150
C57   C     C_3   0.941777 0.551737 0.886510 0.074655
H30   H     H_    0.926242 0.617546 0.844917 0.133033
H31   H     H_    0.984451 0.573298 0.929470 0.136141
C58   C     C_3   0.900054 0.536945 0.977515 -0.714693
H32   H     H_    0.912988 0.470257 0.019450 0.235896
H33   H     H_    0.899358 0.609156 0.043847 0.198333
H34   H     H_    0.856414 0.520862 0.937293 0.264885
O17   O     O_3   0.213133 0.689368 0.545877 -0.558985
C59   C     C_3   0.222341 0.738911 0.661625 0.067641
H35   H     H_    0.268614 0.755639 0.683647 0.152587
H36   H     H_    0.205239 0.689430 0.720749 0.169290
C60   C     C_3   0.191398 0.842557 0.680323 -0.782816
H37   H     H_    0.144886 0.828667 0.660633 0.258053
H38   H     H_    0.198167 0.882243 0.771233 0.199189
H39   H     H_    0.208149 0.894224 0.623493 0.245191
O18   O     O_3   0.791176 0.325730 0.453824 -0.514575
C61   C     C_3   0.813232 0.305904 0.342638 0.061151
H40   H     H_    0.817112 0.376361 0.301541 0.148034
H41   H     H_    0.784886 0.248563 0.285053 0.148398
C62   C     C_3   0.871907 0.257637 0.349275 -0.755780
H42   H     H_    0.868671 0.183422 0.383217 0.258345
H43   H     H_    0.889303 0.240686 0.262247 0.196410
H44   H     H_    0.901671 0.312445 0.406776 0.241474
O19   O     O_3   0.331912 0.683160 0.505069 -0.617525
C63   C     C_3   0.311363 0.728473 0.411128 0.133717
H45   H     H_    0.277422 0.785211 0.439140 0.201775
H46   H     H_    0.294171 0.669191 0.336985 0.149034
C64   C     C_3   0.359800 0.788529 0.369322 -0.852847
H47   H     H_    0.395045 0.734671 0.341499 0.265725
H48   H     H_    0.344237 0.824122 0.295302 0.208065
H49   H     H_    0.375906 0.852014 0.439499 0.251140
O20   O     O_3   0.673703 0.319338 0.454884 -0.554352
C65   C     C_3   0.662010 0.281551 0.336527 0.122940
H50   H     H_    0.691411 0.313075 0.278708 0.097845
H51   H     H_    0.618056 0.303574 0.313321 0.207891
C66   C     C_3   0.666089 0.162604 0.313967 -0.694662
H52   H     H_    0.637399 0.128342 0.370276 0.263298
H53   H     H_    0.653688 0.130863 0.222635 0.211140
H54   H     H_    0.710431 0.139187 0.332523 0.231125
O21   O     O_3   0.326253 0.309793 0.504570 -0.563954
C67   C     C_3   0.336389 0.261035 0.390870 0.118090
H55   H     H_    0.377888 0.289939 0.366350 0.156811
H56   H     H_    0.302008 0.274703 0.327204 0.152792
C68   C     C_3   0.340303 0.143186 0.384986 -0.826601
H57   H     H_    0.297460 0.109278 0.394232 0.257093
H58   H     H_    0.356459 0.106139 0.300752 0.187492
H59   H     H_    0.369747 0.125474 0.454616 0.258515
O22   O     O_3   0.666507 0.695178 0.558550 -0.589995
C69   C     C_3   0.690122 0.788493 0.532234 0.137978
H60   H     H_    0.714487 0.774517 0.452441 0.171285
H61   H     H_    0.717933 0.828317 0.605460 0.188793
C70   C     C_3   0.642654 0.864340 0.516720 -0.843378
H62   H     H_    0.615830 0.876583 0.592908 0.265296
H63   H     H_    0.661281 0.940940 0.506237 0.218593
H64   H     H_    0.615806 0.833259 0.438822 0.230732
O23   O     O_3   0.207915 0.311935 0.495021 -0.563792
C71   C     C_3   0.199412 0.279532 0.601271 0.168736
H65   H     H_    0.152836 0.279346 0.614926 0.165934
H66   H     H_    0.220652 0.330340 0.677766 0.153468
C72   C     C_3   0.220362 0.168279 0.596729 -0.814799
H67   H     H_    0.267597 0.167039 0.594021 0.274361
H68   H     H_    0.207833 0.138743 0.674761 0.197781
H69   H     H_    0.201251 0.115834 0.519557 0.253286
O24   O     O_3   0.792348 0.698983 0.577234 -0.573099
C73   C     C_3   0.801820 0.711001 0.697928 0.056321
H70   H     H_    0.805881 0.635478 0.729593 0.172081
H71   H     H_    0.766055 0.754112 0.741954 0.141059
C74   C     C_3   0.856645 0.774454 0.733185 -0.778912
H72   H     H_    0.853209 0.852433 0.707342 0.257898
H73   H     H_    0.864330 0.785583 0.827898 0.195958
H74   H     H_    0.893318 0.732623 0.690917 0.241351
O25   O     O_3   0.465808 0.832354 0.733547 -0.574801
C75   C     C_3   0.407920 0.802864 0.738073 0.131004
H75   H     H_    0.399733 0.725362 0.682427 0.182452
H76   H     H_    0.377694 0.860609 0.710679 0.151040
C76   C     C_3   0.395897 0.793517 0.861140 -0.852132
H77   H     H_    0.402383 0.870925 0.918228 0.260108
H78   H     H_    0.351071 0.766505 0.865595 0.188677
H79   H     H_    0.425182 0.736343 0.891511 0.239409
O26   O     O_3   0.537696 0.165496 0.275780 -0.580845
C77   C     C_3   0.500178 0.171605 0.181017 0.098978
H80   H     H_    0.461319 0.215426 0.208608 0.135265
H81   H     H_    0.487013 0.093041 0.133458 0.164381
C78   C     C_3   0.531469 0.228097 0.099286 -0.791620
H82   H     H_    0.551130 0.302214 0.146800 0.261815
H83   H     H_    0.501408 0.246818 0.031345 0.200948
H84   H     H_    0.565748 0.177923 0.058668 0.239607
N7    N     N_2   0.528329 0.950002 0.243980 -0.413624
H85   H     H_    0.564185 0.906441 0.253692 0.243049
C79   C     C_3   0.483872 0.895150 0.166212 -0.742959
H86   H     H_    0.496312 0.892142 0.076259 0.245306
H87   H     H_    0.442314 0.935569 0.177047 0.223033
H88   H     H_    0.478267 0.813513 0.180570 0.217430
N8    N     N_2   0.441894 0.041857 0.741135 -0.428582
H89   H     H_    0.413393 0.098660 0.726866 0.249678
C80   C     C_3   0.481573 0.074189 0.838095 -0.645431
H90   H     H_    0.457025 0.103738 0.914833 0.211111
H91   H     H_    0.510578 0.137294 0.820880 0.222101
H92   H     H_    0.507241 0.007210 0.856776 0.261808

loop_
_geom_bond_atom_site_label_1
_geom_bond_atom_site_label_2
_ccdc_geom_bond_type
C69   H61   S    
N8    H89   S    
C16   C21   A    
C47   O15   S    
Cu1   O8    S    
C46   H2    S    
C27   C29   A    
C72   H68   S    
C41   C42   A    
N6    H21   S    
C66   H54   S    
C63   C64   S    
C66   H52   S    
O21   C67   S    
C39   C41   A    
O23   C71   S    
C50   H9    S    
C40   C46   A    
C78   H82   S    
N8    C80   S    
C9    O21   S    
O15   C55   S    
O18   C61   S    
Cu1   O5    S    
C4    O18   S    
C17   C26   A    
C62   H42   S    
C36   N2    A    
C16   C19   A    
C52   H14   S    
C50   H11   S    
C45   H1    S    
O25   C75   S    
C55   C56   S    
O13   C49   S    
C23   O7    A    
N7    C79   S    
C73   H70   S    
C60   H39   S    
C3    O17   S    
C77   C78   S    
C66   H53   S    
C38   N2    A    
C15   C22   A    
C36   O10   S    
C78   H83   S    
C67   C68   S    
C79   H88   S    
C77   H81   S    
C31   C33   A    
C70   H63   S    
C17   N7    S    
C18   N8    S    
N5    C53   S    
C35   C43   A    
C43   C48   A    
C18   C20   A    
C3    C13   A    
C44   C47   A    
C24   O6    A    
Cu1   N3    S    
C39   C45   A    
C62   H44   S    
C78   H84   S    
C80   H91   S    
C48   O16   S    
C64   H47   S    
C79   H86   S    
Cu1   O4    S    
O24   C73   S    
C59   H35   S    
C71   H66   S    
Cu2   O3    S    
C41   C43   A    
C65   C66   S    
O26   C77   S    
C18   C25   A    
C42   C44   A    
C30   N5    S    
C1    O3    A    
C54   H23   S    
C2    O4    A    
C54   H22   S    
C59   H36   S    
C45   C47   A    
C27   C34   A    
C15   C20   A    
C64   H49   S    
C38   O12   S    
Cu1   O1    S    
C49   H7    S    
C52   H15   S    
C72   H67   S    
C4    C6    A    
C32   O13   S    
C5    C7    A    
C28   H4    S    
C76   H79   S    
C63   H46   S    
C13   N2    S    
C61   C62   S    
C74   H73   S    
C25   C26   A    
C80   H90   S    
C49   C50   S    
O14   C51   S    
C57   H30   S    
O22   C69   S    
C58   H33   S    
C6    O20   S    
C59   C60   S    
C32   C34   A    
C31   N4    A    
C5    O19   S    
C77   H80   S    
C53   H19   S    
C56   H28   S    
N7    H85   S    
C57   C58   S    
C29   N4    A    
C74   H74   S    
C30   N3    A    
C27   H3    S    
C33   C34   A    
C50   H10   S    
C1    C16   S    
C56   H29   S    
C68   H59   S    
C55   H26   S    
C2    C15   S    
Cu2   O6    S    
C73   C74   S    
C60   H37   S    
C22   H5    S    
C10   C12   A    
C19   O26   S    
C12   C14   A    
C28   C33   A    
C74   H72   S    
C51   H13   S    
C9    C11   A    
C69   H60   S    
C71   H65   S    
Cu2   O2    S    
C72   H69   S    
C67   H56   S    
C36   C44   A    
C68   H58   S    
C49   H8    S    
C10   O22   S    
C53   H18   S    
C70   H64   S    
C52   H16   S    
C29   N6    S    
C58   H32   S    
Cu2   O7    S    
C80   H92   S    
C7    C9    A    
C14   N1    S    
C21   C25   A    
C61   H41   S    
C54   H24   S    
C75   H76   S    
C64   H48   S    
C40   C42   A    
C3    C5    A    
C1    O1    A    
C21   H6    S    
C6    C8    A    
N6    C54   S    
C63   H45   S    
C51   C52   S    
C56   H27   S    
C31   O14   S    
C35   N1    A    
Cu2   N4    S    
C58   H34   S    
C37   O11   S    
C68   H57   S    
C69   C70   S    
C37   C39   A    
C70   H62   S    
O20   C65   S    
C53   H20   S    
C38   C40   A    
C11   C13   A    
C23   O5    A    
C76   H77   S    
O19   C63   S    
C61   H40   S    
C7    C23   S    
C28   C30   A    
C17   C19   A    
C73   H71   S    
C65   H51   S    
C4    C14   A    
C55   H25   S    
C57   H31   S    
C60   H38   S    
C76   H78   S    
C24   O8    A    
C46   C48   A    
C2    O2    A    
C8    C24   S    
C35   O9    S    
C71   C72   S    
C8    C10   A    
Cu1   Cu2   S    
C22   C26   A    
O16   C57   S    
C79   H87   S    
C65   H50   S    
C12   O24   S    
C20   O25   S    
C11   O23   S    
C32   N3    A    
C51   H12   S    
N5    H17   S    
O17   C59   S    
C75   C76   S    
C37   N1    A    
C75   H75   S    
C67   H55   S    
C62   H43   S    
