data_mof_unit_55971.cif
_audit_creation_date              2013-03-05T16:38:01-0500
_audit_creation_method            fapswitch 2.2
_symmetry_space_group_name_H-M    P1
_symmetry_Int_Tables_number       1
_space_group_crystal_system       triclinic
_cell_length_a                    18.772241
_cell_length_b                    18.683896
_cell_length_c                    18.998612
_cell_angle_alpha                 109.605236
_cell_angle_beta                  109.673157
_cell_angle_gamma                 109.020041
_cell_volume                      5136.73106597

loop_
_atom_site_label
_atom_site_type_symbol
_atom_site_description
_atom_site_fract_x
_atom_site_fract_y
_atom_site_fract_z
_atom_type_partial_charge
O1    O     O_R   0.409800 0.552190 0.462000 -0.608085
O2    O     O_R   0.409840 0.447810 0.357640 -0.559813
C1    C     C_R   0.382528 0.502390 0.381857 0.784614
O3    O     O_R   0.590160 0.642370 0.552180 -0.607256
O4    O     O_R   0.590190 0.537990 0.447820 -0.535577
C2    C     C_R   0.620591 0.619478 0.502167 0.835726
Cu1   Cu    Cu3+1 0.499980 0.561800 0.561790 1.037611
Cu2   Cu    Cu3+1 0.500020 0.438200 0.438210 1.093135
O5    O     O_R   0.590160 0.552190 0.642360 -0.557315
O6    O     O_R   0.590200 0.447810 0.538000 -0.548404
O7    O     O_R   0.409810 0.462010 0.552180 -0.562000
O8    O     O_R   0.409840 0.357630 0.447820 -0.591043
C3    C     C_R   0.618225 0.498809 0.618412 0.839369
C4    C     C_R   0.379301 0.381123 0.498056 0.764608
C5    C     C_R   0.746386 0.833215 0.782670 -0.054676
C6    C     C_R   0.726596 0.804532 0.697177 -0.216039
H1    H     H_    0.671907 0.805129 0.653982 0.179633
C7    C     C_R   0.778373 0.778610 0.668165 -0.036081
C8    C     C_R   0.854859 0.787509 0.728445 0.322571
C9    C     C_R   0.875011 0.818441 0.814819 -0.221785
H2    H     H_    0.933778 0.826045 0.860691 0.224038
C10   C     C_R   0.820840 0.840503 0.842529 0.390900
C11   C     C_R   0.825109 0.819844 0.575231 -0.163935
C12   C     C_R   0.813425 0.811402 0.495938 -0.098104
C13   C     C_R   0.735477 0.743189 0.418747 -0.010462
C14   C     C_R   0.674311 0.680604 0.423256 -0.188700
C15   C     C_R   0.687012 0.687993 0.502890 -0.069358
C16   C     C_R   0.761982 0.760528 0.580326 0.078421
C17   C     C_R   0.636829 0.734055 0.284938 -0.114778
H3    H     H_    0.593231 0.736682 0.309685 0.189210
C18   C     C_R   0.616654 0.730072 0.205413 -0.083426
C19   C     C_R   0.673945 0.729726 0.173938 -0.106706
C20   C     C_R   0.751346 0.733362 0.221922 -0.046638
C21   C     C_R   0.771166 0.736545 0.301149 -0.013898
H4    H     H_    0.831592 0.740363 0.338224 0.105379
C22   C     C_R   0.714195 0.737116 0.333500 0.083060
H5    H     H_    0.498056 0.889793 0.622228 0.214606
C23   C     C_R   0.406535 0.753966 0.557588 -0.116916
C24   C     C_R   0.357645 0.674507 0.480859 -0.130758
C25   C     C_R   0.367104 0.666616 0.408959 -0.047407
C26   C     C_R   0.420864 0.742704 0.412107 0.256197
C27   C     C_R   0.467465 0.824815 0.489362 0.274649
C28   C     C_R   0.461846 0.828324 0.562204 -0.139728
C29   C     C_R   0.247253 0.576208 0.258220 -0.100468
H6    H     H_    0.243939 0.634896 0.265009 0.171207
C30   C     C_R   0.184673 0.496456 0.182828 -0.067943
C31   C     C_R   0.182983 0.417945 0.175804 0.050759
C32   C     C_R   0.250699 0.423561 0.241560 -0.181329
C33   C     C_R   0.314472 0.503528 0.316639 -0.068338
C34   C     C_R   0.310361 0.580782 0.327196 0.085488
C35   C     C_R   0.072650 0.264779 0.122308 -0.141703
H7    H     H_    0.096290 0.278613 0.188328 0.166409
C36   C     C_R   0.002450 0.182459 0.055967 -0.146324
H8    H     H_    0.972835 0.134845 0.072179 0.202773
C37   C     C_R   0.971037 0.161821 0.969523 0.404992
C38   C     C_R   0.012476 0.224286 0.950843 -0.184921
C39   C     C_R   0.080840 0.307593 0.017476 -0.173066
C40   C     C_R   0.110922 0.329246 0.103902 0.123217
C41   C     C_R   0.227947 0.528166 0.543412 -0.282519
C42   C     C_R   0.250356 0.466428 0.554314 0.416154
C43   C     C_R   0.215958 0.384914 0.481075 -0.081697
C44   C     C_R   0.156217 0.365475 0.399507 -0.316457
H9    H     H_    0.127878 0.302135 0.343785 0.179552
C45   C     C_R   0.131738 0.426559 0.389713 0.401957
C46   C     C_R   0.168923 0.508292 0.462146 -0.260688
C47   C     C_R   0.171983 0.249182 0.487725 -0.156327
C48   C     C_R   0.185560 0.182655 0.496506 -0.092968
C49   C     C_R   0.262205 0.180535 0.504090 0.012102
C50   C     C_R   0.324495 0.246431 0.504060 -0.233871
H10   H     H_    0.383528 0.245219 0.509811 0.153433
C51   C     C_R   0.311613 0.314065 0.497108 -0.044717
C52   C     C_R   0.234649 0.315850 0.489135 0.087418
C53   C     C_R   0.344241 0.125687 0.584498 -0.200557
C54   C     C_R   0.354164 0.057000 0.591533 -0.156180
H11   H     H_    0.405557 0.071475 0.651009 0.188690
C55   C     C_R   0.297843 0.970485 0.522714 0.427135
C56   C     C_R   0.232685 0.954378 0.446083 -0.206856
H12   H     H_    0.188840 0.888482 0.392029 0.169772
C57   C     C_R   0.222209 0.023007 0.439466 -0.197174
H13   H     H_    0.170692 0.009302 0.380559 0.128104
C58   C     C_R   0.277099 0.108880 0.509081 0.132814
H14   H     H_    0.409767 0.461761 0.808665 0.211494
C59   C     C_R   0.533110 0.555884 0.834818 0.290185
C60   C     C_R   0.603160 0.566199 0.818403 0.283936
C61   C     C_R   0.602738 0.491382 0.765821 -0.035413
C62   C     C_R   0.531042 0.408223 0.726433 -0.238987
C63   C     C_R   0.461336 0.398586 0.740797 -0.161208
H15   H     H_    0.406358 0.334269 0.710693 0.170235
C64   C     C_R   0.463122 0.471456 0.795830 -0.110979
C65   C     C_R   0.743862 0.496794 0.818279 -0.160274
H16   H     H_    0.739336 0.497949 0.874081 0.168685
C66   C     C_R   0.814345 0.495086 0.810040 -0.123831
C67   C     C_R   0.819544 0.490174 0.736410 -0.044438
C68   C     C_R   0.754894 0.491600 0.673056 0.330457
C69   C     C_R   0.685479 0.497263 0.683981 -0.194239
C70   C     C_R   0.679213 0.497637 0.756072 0.043857
C71   C     C_R   0.967739 0.553221 0.746267 0.405558
C72   C     C_R   0.029819 0.537408 0.728337 -0.183602
H17   H     H_    0.089128 0.590873 0.744451 0.196476
C73   C     C_R   0.015900 0.452604 0.688380 -0.178558
H18   H     H_    0.063856 0.441516 0.674268 0.166109
C74   C     C_R   0.940669 0.382178 0.667005 -0.101174
C75   C     C_R   0.878697 0.396060 0.685131 -0.165715
C76   C     C_R   0.890589 0.480833 0.723614 0.040104
O9    O     O_R   0.052200 0.909800 0.461980 -0.582478
O10   O     O_R   0.947810 0.909820 0.357620 -0.580975
C77   C     C_R   0.996599 0.877261 0.381946 0.763779
O11   O     O_R   0.962020 0.909790 0.552160 -0.559179
O12   O     O_R   0.857630 0.909810 0.447800 -0.588688
C78   C     C_R   0.881004 0.879299 0.497764 0.761554
Cu3   Cu    Cu3+1 0.061810 0.999960 0.561770 1.053038
Cu4   Cu    Cu3+1 0.938190 0.999990 0.438190 0.992112
O13   O     O_R   0.052190 0.090130 0.642340 -0.569304
O14   O     O_R   0.947800 0.090160 0.537980 -0.582651
O15   O     O_R   0.142370 0.090140 0.552150 -0.566333
O16   O     O_R   0.037980 0.090170 0.447800 -0.582648
C79   C     C_R   0.998713 0.117807 0.618289 0.786639
C80   C     C_R   0.118890 0.117301 0.498533 0.789042
O17   O     O_R   0.052200 0.461970 0.909800 -0.587842
O18   O     O_R   0.947810 0.357610 0.909840 -0.580255
C81   C     C_R   0.000532 0.381099 0.881473 0.766764
O19   O     O_R   0.142370 0.552160 0.090140 -0.571403
O20   O     O_R   0.037990 0.447800 0.090170 -0.541181
C82   C     C_R   0.118532 0.497858 0.116802 0.775262
Cu5   Cu    Cu3+1 0.061800 0.561770 0.999960 1.016190
Cu6   Cu    Cu3+1 0.938200 0.438190 0.000000 1.065130
O21   O     O_R   0.052190 0.642350 0.090120 -0.577100
O22   O     O_R   0.947800 0.537990 0.090150 -0.556031
O23   O     O_R   0.962010 0.552150 0.909780 -0.578980
O24   O     O_R   0.857630 0.447800 0.909820 -0.582315
C83   C     C_R   0.000434 0.619416 0.118869 0.784712
C84   C     C_R   0.881300 0.497865 0.879270 0.793593
C85   C     C_R   0.050070 0.738904 0.529458 0.348610
C86   C     C_R   0.050763 0.757374 0.463899 -0.193511
C87   C     C_R   0.977234 0.708915 0.380675 -0.119506
C88   C     C_R   0.902348 0.635733 0.361064 0.308716
C89   C     C_R   0.902814 0.618032 0.427591 -0.200348
C90   C     C_R   0.975350 0.668701 0.510318 -0.172042
C91   C     C_R   0.987377 0.669131 0.248167 -0.084741
H19   H     H_    0.978230 0.607661 0.245491 0.184193
C92   C     C_R   0.002444 0.687283 0.187231 -0.102854
C93   C     C_R   0.020997 0.769944 0.194687 0.017807
C94   C     C_R   0.014012 0.828321 0.256702 -0.231208
H20   H     H_    0.025987 0.890967 0.261091 0.162311
C95   C     C_R   0.997443 0.809702 0.316538 -0.102254
C96   C     C_R   0.986202 0.729960 0.314170 0.074984
C97   C     C_R   0.143769 0.867702 0.190217 -0.197919
C98   C     C_R   0.178820 0.901319 0.146969 -0.181333
H21   H     H_    0.246163 0.952485 0.182795 0.193408
C99   C     C_R   0.127067 0.870025 0.058764 0.363447
C100  C     C_R   0.039820 0.803353 0.014588 -0.108464
H22   H     H_    0.998798 0.777459 0.946698 0.214522
C101  C     C_R   0.004546 0.769767 0.057979 -0.108556
H23   H     H_    0.937033 0.719045 0.023095 0.170225
C102  C     C_R   0.056528 0.801961 0.146142 0.106833
H24   H     H_    0.395187 0.598767 0.066780 0.181872
C103  C     C_R   0.278751 0.549353 0.950323 -0.149601
H25   H     H_    0.300641 0.610352 0.949869 0.185884
C104  C     C_R   0.196765 0.478115 0.885178 -0.067989
H26   H     H_    0.155915 0.484664 0.834655 0.149459
C105  C     C_R   0.167308 0.399265 0.885979 0.036345
C106  C     C_R   0.223083 0.391077 0.950018 -0.274024
H27   H     H_    0.201767 0.328864 0.948189 0.188916
C107  C     C_R   0.305079 0.463065 0.017026 0.378394
C108  C     C_R   0.332362 0.542328 0.016387 -0.136259
C109  C     C_R   0.077161 0.256685 0.752494 -0.204143
H28   H     H_    0.137253 0.262347 0.754347 0.165436
C110  C     C_R   0.997513 0.184030 0.684472 -0.080718
C111  C     C_R   0.918857 0.176070 0.680517 -0.005548
C112  C     C_R   0.921597 0.241056 0.746504 -0.227353
C113  C     C_R   0.001470 0.314730 0.814474 -0.094908
C114  C     C_R   0.080325 0.323435 0.816807 0.021862
C115  C     C_R   0.784444 0.108115 0.539714 -0.124632
H29   H     H_    0.805628 0.170458 0.541913 0.127786
C116  C     C_R   0.708944 0.034388 0.466532 -0.063146
H30   H     H_    0.671768 0.040229 0.413266 0.154775
C117  C     C_R   0.681879 0.952989 0.461737 -0.007340
H31   H     H_    0.623713 0.895846 0.404878 0.160285
C118  C     C_R   0.728978 0.945576 0.530983 -0.096830
C119  C     C_R   0.805493 0.018769 0.603612 -0.105136
H32   H     H_    0.843172 0.011645 0.655568 0.161163
C120  C     C_R   0.833892 0.100410 0.608085 0.106260
N1    N     N_R   0.842641 0.872377 0.931435 0.183795
O25   O     O_R   0.790539 0.889106 0.956503 -0.244019
O26   O     O_R   0.915179 0.885728 0.988409 -0.357959
H33   H     H_    0.658711 0.727306 0.112762 0.203568
H34   H     H_    0.796151 0.734062 0.197883 0.173057
H35   H     H_    0.400320 0.758252 0.613282 0.188661
H36   H     H_    0.313065 0.618198 0.477704 0.171015
N2    N     N_R   0.429610 0.735156 0.338177 0.110938
O27   O     O_R   0.451435 0.679021 0.304061 -0.388270
O28   O     O_R   0.393227 0.764403 0.292141 -0.307368
N3    N     N_R   0.520344 0.904891 0.495651 0.114241
O29   O     O_R   0.585422 0.970158 0.570388 -0.361879
O30   O     O_R   0.494761 0.919122 0.431578 -0.305794
H37   H     H_    0.252228 0.364254 0.235247 0.159203
H38   H     H_    0.704587 0.852046 0.802502 0.210166
N4    N     N_R   0.896333 0.078744 0.901395 0.121201
O31   O     O_R   0.878041 0.051320 0.821571 -0.394968
O32   O     O_R   0.842254 0.033092 0.918036 -0.333017
H39   H     H_    0.990375 0.209060 0.884693 0.183287
H40   H     H_    0.109617 0.355697 0.001880 0.121174
H41   H     H_    0.150950 0.556347 0.456201 0.206277
H42   H     H_    0.253959 0.591020 0.598617 0.207841
N5    N     N_R   0.304693 0.485984 0.639939 0.126230
O33   O     O_R   0.285748 0.426878 0.662420 -0.397973
O34   O     O_R   0.364689 0.566121 0.699127 -0.321192
N6    N     N_R   0.067150 0.404698 0.307196 0.122542
O35   O     O_R   0.063129 0.465977 0.290770 -0.363075
O36   O     O_R   0.006827 0.323840 0.251088 -0.348455
H43   H     H_    0.113056 0.250613 0.482114 0.162587
H44   H     H_    0.387634 0.191593 0.638625 0.141824
N7    N     N_R   0.305991 0.899487 0.531173 0.125460
O37   O     O_R   0.354204 0.911831 0.606559 -0.332917
O38   O     O_R   0.262296 0.821152 0.464431 -0.383210
N8    N     N_R   0.533394 0.629494 0.892816 0.151964
O39   O     O_R   0.461271 0.622743 0.890429 -0.315684
O40   O     O_R   0.606248 0.700146 0.954501 -0.301532
N9    N     N_R   0.670690 0.651822 0.849474 0.160071
O41   O     O_R   0.650226 0.705916 0.831085 -0.299555
O42   O     O_R   0.752289 0.674682 0.892356 -0.348935
N10   N     N_R   0.914880 0.770100 0.704268 0.161392
O43   O     O_R   0.887326 0.708295 0.627825 -0.314857
O44   O     O_R   0.998063 0.816271 0.759050 -0.225686
H45   H     H_    0.529864 0.350596 0.685603 0.156130
N11   N     N_R   0.761223 0.489591 0.599083 0.139545
O45   O     O_R   0.766574 0.426345 0.549297 -0.340728
O46   O     O_R   0.758914 0.549554 0.579716 -0.312010
N12   N     N_R   0.985138 0.642126 0.787925 0.132264
O47   O     O_R   0.063054 0.706955 0.823505 -0.278337
O48   O     O_R   0.923827 0.659683 0.788905 -0.367317
H46   H     H_    0.930449 0.316692 0.636100 0.147007
H47   H     H_    0.820362 0.340347 0.667705 0.143563
H48   H     H_    0.973331 0.651987 0.559167 0.239147
N13   N     N_R   0.125244 0.790653 0.614805 0.145584
O49   O     O_R   0.125646 0.771600 0.674802 -0.267353
O50   O     O_R   0.193425 0.858300 0.633825 -0.299468
H49   H     H_    0.109765 0.808902 0.477104 0.215295
N14   N     N_R   0.826470 0.578021 0.275537 0.128676
O51   O     O_R   0.813963 0.598677 0.215271 -0.375261
O52   O     O_R   0.766878 0.504336 0.257966 -0.300688
H50   H     H_    0.846689 0.563924 0.415494 0.228489
H51   H     H_    0.184744 0.893109 0.258348 0.162039
N15   N     N_R   0.162715 0.906487 0.014838 0.147730
O53   O     O_R   0.245673 0.960441 0.052823 -0.306782
O54   O     O_R   0.112147 0.888830 0.937757 -0.253539
H52   H     H_    0.882857 0.875416 0.634336 0.167776
N16   N     N_R   0.359869 0.455886 0.085467 0.138352
O55   O     O_R   0.332683 0.384151 0.088818 -0.336595
O56   O     O_R   0.436654 0.521708 0.146238 -0.324757
H53   H     H_    0.861246 0.234955 0.744106 0.173205
H54   H     H_    0.615312 0.626624 0.364277 0.193628
H55   H     H_    0.706285 0.882907 0.527945 0.133930
H56   H     H_    0.557048 0.728110 0.168635 0.165355

loop_
_geom_bond_atom_site_label_1
_geom_bond_atom_site_label_2
_geom_bond_distance
_ccdc_geom_bond_type
C94   H20   1.085291 S    
C74   H46   1.080563 S    
C63   H15   1.081341 S    
Cu2   O6    1.976078 S    
C91   C96   1.393980 A    
C109  C114  1.389996 A    
C103  H25   1.082391 S    
C86   H49   1.082766 S    
C26   C27   1.422245 A    
C53   H44   1.081552 S    
C69   C70   1.411503 A    
C20   H34   1.082433 S    
Cu4   O16   1.971661 S    
C37   C38   1.401864 A    
C59   N8    1.442219 S    
Cu4   O14   1.973160 S    
C95   C96   1.417765 A    
C1    C33   1.461987 S    
O20   C82   1.289338 A    
C116  C117  1.397027 A    
C4    C51   1.454792 S    
O10   Cu4   1.966684 S    
C61   C62   1.401465 A    
C38   C39   1.397895 A    
Cu1   O7    1.970077 S    
C45   N6    1.436074 S    
C17   C22   1.404278 A    
C14   C15   1.400132 A    
C67   C68   1.407621 A    
H14   C64   1.082279 S    
C54   C55   1.406128 A    
C26   N2    1.434255 S    
C3    C69   1.461350 S    
C87   C88   1.427320 A    
C49   C58   1.480149 S    
C17   C18   1.397356 A    
C107  C108  1.406237 A    
C66   C84   1.452925 S    
N14   O51   1.299855 A    
C98   C99   1.403565 A    
C7    C8    1.417831 A    
C50   H10   1.084905 S    
N1    O26   1.301195 A    
C104  H26   1.081093 S    
O4    C2    1.300694 A    
C77   C95   1.453080 S    
O7    C4    1.290649 A    
C23   H35   1.082565 S    
C42   N5    1.435703 S    
C37   N4    1.435995 S    
O10   C77   1.299735 A    
Cu6   O24   1.973297 S    
C79   C110  1.451083 S    
C5    C6    1.393994 A    
C72   H17   1.082375 S    
C25   C34   1.490051 S    
N15   O53   1.301563 A    
C94   C95   1.393922 A    
C21   H4    1.078663 S    
C85   N13   1.439925 S    
C50   C51   1.400874 A    
O5    C3    1.295642 A    
C66   C67   1.409375 A    
C44   C45   1.405385 A    
C97   C98   1.394105 A    
C49   C50   1.394887 A    
C105  C114  1.482700 S    
C55   N7    1.437922 S    
C18   H56   1.082248 S    
C5    C10   1.402544 A    
C47   C52   1.391926 A    
C101  H23   1.083374 S    
C59   C60   1.419472 A    
N16   O56   1.301677 A    
N6    O35   1.301608 A    
C117  C118  1.396626 A    
C39   H40   1.075840 S    
N2    O28   1.300694 A    
N13   O49   1.301650 A    
C104  C105  1.402168 A    
C12   C13   1.414722 A    
N4    O31   1.301373 A    
C97   H51   1.082469 S    
C93   C102  1.475708 S    
C101  C102  1.400137 A    
C97   C102  1.402595 A    
C21   C22   1.402585 A    
C83   C92   1.458338 S    
C2    C15   1.459421 S    
C56   H12   1.081569 S    
O23   C84   1.293362 A    
O17   C81   1.288819 A    
O15   C80   1.296093 A    
C99   N15   1.438317 S    
C47   C48   1.398137 A    
O9    Cu3   1.973066 S    
C85   C90   1.399099 A    
C41   C42   1.402993 A    
C103  C104  1.396016 A    
C115  H29   1.082085 S    
C32   H37   1.084872 S    
C109  C110  1.395415 A    
C39   C40   1.399863 A    
N13   O50   1.301498 A    
C10   N1    1.440766 S    
C30   C82   1.452723 S    
C109  H28   1.085334 S    
C74   C75   1.394896 A    
C8    N10   1.439925 S    
Cu5   Cu6   2.687991 S    
O3    Cu1   1.974032 S    
C41   H42   1.082778 S    
C67   C76   1.486533 S    
C53   C58   1.401553 A    
N12   O47   1.301352 A    
C119  C120  1.403800 A    
C71   C72   1.409107 A    
C106  C107  1.407531 A    
C36   C37   1.402976 A    
C53   C54   1.397735 A    
C59   C64   1.404609 A    
C71   N12   1.443043 S    
C93   C94   1.389188 A    
C54   H11   1.082403 S    
C35   H7    1.081605 S    
O14   C79   1.294484 A    
C111  C112  1.393890 A    
C110  C111  1.408053 A    
Cu1   Cu2   2.684992 S    
C7    C16   1.483902 S    
C55   C56   1.404748 A    
N14   O52   1.301755 A    
O12   Cu4   1.972513 S    
C103  C108  1.396986 A    
C24   C25   1.401583 A    
C57   C58   1.402138 A    
C62   C63   1.392467 A    
C6    H1    1.083454 S    
O20   Cu6   1.972251 S    
C38   H39   1.079171 S    
C29   C30   1.394928 A    
N3    O30   1.299979 A    
C13   C14   1.396905 A    
C36   H8    1.082677 S    
C48   C49   1.412064 A    
C42   C43   1.415810 A    
O1    C1    1.288463 A    
H5    C28   1.082514 S    
C27   N3    1.438838 S    
O24   C84   1.294745 A    
N1    O25   1.301585 A    
N2    O27   1.300267 A    
C17   H3    1.078462 S    
C60   N9    1.433639 S    
Cu5   O23   1.972254 S    
N9    O42   1.300901 A    
O9    C77   1.291709 A    
C65   C66   1.392777 A    
C31   C32   1.394066 A    
C46   H41   1.082858 S    
N7    O37   1.301189 A    
C100  H22   1.077199 S    
C87   C96   1.487562 S    
C44   H9    1.083492 S    
C73   C74   1.390972 A    
C20   C21   1.398581 A    
C56   C57   1.398063 A    
C12   C78   1.453189 S    
C68   C69   1.417574 A    
Cu3   O13   1.966684 S    
C35   C40   1.406073 A    
C11   C16   1.391069 A    
C60   C61   1.415063 A    
N10   O44   1.300379 A    
C113  C114  1.419056 A    
C115  C116  1.398127 A    
C14   H54   1.085061 S    
O13   C79   1.293084 A    
C89   H50   1.082446 S    
O17   Cu5   1.968047 S    
C43   C52   1.484314 S    
C6    C7    1.404100 A    
C25   C26   1.417826 A    
C81   C113  1.458878 S    
C9    C10   1.403296 A    
C115  C120  1.403709 A    
C117  H31   1.082161 S    
C72   C73   1.394467 A    
C63   C64   1.392590 A    
C85   C86   1.402507 A    
C33   C34   1.420684 A    
C57   H13   1.082075 S    
C90   H48   1.081988 S    
O3    C2    1.290010 A    
C27   C28   1.404464 A    
O19   C82   1.299143 A    
O22   C83   1.299492 A    
N9    O41   1.300300 A    
N16   O55   1.301597 A    
C106  H27   1.082979 S    
C29   C34   1.393410 A    
Cu1   O5    1.969515 S    
N15   O54   1.300074 A    
N5    O33   1.300484 A    
C30   C31   1.416337 A    
C32   C33   1.397986 A    
Cu6   O22   1.967945 S    
C11   C12   1.392106 A    
Cu3   Cu4   2.689040 S    
O1    Cu1   1.976077 S    
C75   H47   1.083511 S    
C18   C19   1.396165 A    
O2    Cu2   1.969513 S    
C29   H6    1.085273 S    
N11   O45   1.300918 A    
N8    O40   1.300896 A    
C88   C89   1.407801 A    
O6    C3    1.293778 A    
O4    Cu2   1.970075 S    
N4    O32   1.300290 A    
C91   H19   1.085131 S    
O11   C78   1.299031 A    
C65   C70   1.388915 A    
C86   C87   1.407224 A    
C89   C90   1.393164 A    
N11   O46   1.299985 A    
C99   C100  1.407720 A    
O11   Cu3   1.971564 S    
C19   H33   1.080364 S    
C24   H36   1.077407 S    
C19   C20   1.396107 A    
C8    C9    1.404661 A    
O2    C1    1.303547 A    
O8    C4    1.297515 A    
N7    O38   1.301763 A    
C23   C28   1.390187 A    
N12   O48   1.299640 A    
C116  H30   1.082251 S    
C105  C106  1.404113 A    
O12   C78   1.290079 A    
C45   C46   1.400411 A    
C31   C40   1.489232 S    
C91   C92   1.398834 A    
C65   H16   1.085408 S    
C23   C24   1.389311 A    
H24   C108  1.082192 S    
O19   Cu5   1.973297 S    
C5    H38   1.082338 S    
C73   H18   1.082608 S    
C61   C70   1.480927 S    
O16   C80   1.295186 A    
C112  H53   1.084515 S    
O18   Cu6   1.971745 S    
C98   H21   1.082395 S    
C100  C101  1.398448 A    
C11   H52   1.085583 S    
C43   C44   1.406331 A    
C107  N16   1.439827 S    
C48   C80   1.458331 S    
O21   C83   1.291869 A    
C111  C120  1.477539 S    
C71   C76   1.423007 A    
C68   N11   1.438951 S    
C13   C22   1.485595 S    
C118  C119  1.398635 A    
C118  H55   1.081100 S    
N8    O39   1.301737 A    
C51   C52   1.413829 A    
C9    H2    1.078949 S    
N6    O36   1.300937 A    
N3    O29   1.301800 A    
C112  C113  1.403103 A    
C88   N14   1.447969 S    
C75   C76   1.405565 A    
Cu5   O21   1.971741 S    
C62   H45   1.083493 S    
O18   C81   1.302817 A    
Cu3   O15   1.972634 S    
C35   C36   1.396592 A    
C47   H43   1.085136 S    
C92   C93   1.412793 A    
N5    O34   1.301158 A    
N10   O43   1.299869 A    
C41   C46   1.394495 A    
C119  H32   1.082503 S    
Cu2   O8    1.974034 S    
C15   C16   1.416486 A    
