data_mof_unit_49379.cif
_audit_creation_date              2012-12-11T15:36:27-0500
_audit_creation_method            fapswitch 2.2
_symmetry_space_group_name_H-M    P1
_symmetry_Int_Tables_number       1
_space_group_crystal_system       triclinic
_cell_length_a                    15.043543
_cell_length_b                    15.072269
_cell_length_c                    34.872181
_cell_angle_alpha                 91.261256
_cell_angle_beta                  91.684376
_cell_angle_gamma                 60.113525
_cell_volume                      6852.21230117

loop_
_atom_site_label
_atom_site_type_symbol
_atom_type_description
_atom_site_fract_x
_atom_site_fract_y
_atom_site_fract_z
_atom_type_partial_charge
Br1   Br    Br    0.203464 0.839233 0.424111 -0.484013
Br2   Br    Br    0.497328 0.158906 0.166538 -0.563566
Br3   Br    Br    0.429026 0.262397 0.404384 -0.510999
Br4   Br    Br    0.808846 0.422401 0.683257 -0.557434
Br5   Br    Br    0.937262 0.897110 0.778048 -0.554761
C1    C     C_R   0.611282 0.301417 0.444078 0.589769
C2    C     C_R   0.614728 0.078621 0.761205 -0.032738
C3    C     C_R   0.086710 0.767961 0.884422 -0.115030
C4    C     C_R   0.106530 0.761096 0.845399 -0.078025
C5    C     C_R   0.097077 0.688777 0.822391 0.054371
C6    C     C_R   0.075480 0.618204 0.839204 -0.116419
C7    C     C_R   0.056633 0.624293 0.878286 -0.122300
C8    C     C_R   0.183661 0.595147 0.763755 -0.147908
C9    C     C_R   0.197211 0.589383 0.724394 -0.122270
C10   C     C_R   0.137354 0.675057 0.701444 -0.006005
C11   C     C_R   0.063044 0.766606 0.718166 -0.078892
C12   C     C_R   0.047725 0.772527 0.757676 0.171478
C13   C     C_R   0.603214 0.156485 0.787043 0.076099
C14   C     C_R   0.661473 0.772361 0.165719 -0.127930
C15   C     C_R   0.109623 0.686419 0.780764 0.032443
C16   C     C_R   0.184256 0.733553 0.643274 -0.112153
C17   C     C_R   0.224032 0.712421 0.606435 -0.116832
C18   C     C_R   0.197988 0.566035 0.602095 -0.118804
C19   C     C_R   0.159208 0.586690 0.638900 -0.114583
C20   C     C_R   0.156089 0.667938 0.660212 0.025313
C21   C     C_R   0.235362 0.625737 0.586265 0.021354
C22   C     C_R   0.674916 0.075157 0.905325 -0.008643
C23   C     C_R   0.599356 0.060454 0.886461 -0.119323
C24   C     C_R   0.554223 0.186225 0.639440 -0.114609
C25   C     C_R   0.570524 0.090984 0.848039 0.246377
C26   C     C_R   0.817234 0.608957 0.159562 -0.113506
C27   C     C_R   0.554114 0.214155 0.601495 -0.118056
C28   C     C_R   0.693967 0.245890 0.617304 -0.110842
C29   C     C_R   0.692832 0.219661 0.655253 -0.101547
C30   C     C_R   0.620804 0.192948 0.666780 0.020164
C31   C     C_R   0.621717 0.247569 0.590434 0.019214
C32   C     C_R   0.045576 0.739088 0.048522 0.537475
C33   C     C_R   0.740834 0.683958 0.182600 -0.002621
C34   C     C_R   0.747284 0.746525 0.064093 0.570611
C35   C     C_R   0.751139 0.040329 0.050726 0.542801
C36   C     C_R   0.016020 0.722824 0.939514 0.541891
C37   C     C_R   0.717343 0.730297 0.954795 0.541318
C38   C     C_R   0.817945 0.624434 0.119921 0.239442
C39   C     C_R   0.721646 0.023873 0.941919 0.550069
C40   C     C_R   0.757374 0.579172 0.239440 -0.104197
C41   C     C_R   0.748244 0.570298 0.278976 0.256193
C42   C     C_R   0.725976 0.654463 0.303420 0.062513
C43   C     C_R   0.716418 0.744307 0.288342 -0.165335
C44   C     C_R   0.618124 0.136998 0.828746 0.076589
C45   C     C_R   0.724941 0.752460 0.249146 -0.128650
C46   C     C_R   0.743046 0.670887 0.224366 -0.001746
C47   C     C_R   0.605730 0.728690 0.357449 -0.119375
C48   C     C_R   0.593552 0.610168 0.449501 0.542682
C49   C     C_R   0.573064 0.718454 0.393213 -0.113697
C50   C     C_R   0.734188 0.561045 0.403294 -0.116408
C51   C     C_R   0.766835 0.571534 0.367577 -0.060845
C52   C     C_R   0.701071 0.653126 0.343816 0.058838
C53   C     C_R   0.635393 0.632305 0.415743 0.015961
C54   C     C_R   0.102588 0.728635 0.084820 0.019774
C55   C     C_R   0.688307 0.157560 0.848725 -0.145051
C56   C     C_R   0.152785 0.633481 0.103245 -0.111281
C57   C     C_R   0.176920 0.627920 0.142278 -0.114092
C58   C     C_R   0.152053 0.717193 0.163452 0.026555
C59   C     C_R   0.112544 0.810697 0.144323 -0.118823
C60   C     C_R   0.302799 0.592183 0.442565 0.563965
C61   C     C_R   0.087924 0.816448 0.105151 -0.125005
C62   C     C_R   0.203245 0.758823 0.227382 -0.112652
C63   C     C_R   0.209666 0.750822 0.267347 -0.109395
C64   C     C_R   0.167801 0.698731 0.286130 0.029217
C65   C     C_R   0.116249 0.658186 0.264325 -0.109652
C66   C     C_R   0.716308 0.127108 0.886533 -0.129056
C67   C     C_R   0.110830 0.665260 0.224508 -0.110299
C68   C     C_R   0.156002 0.713794 0.205689 0.025757
C69   C     C_R   0.212806 0.581951 0.341839 -0.127753
C70   C     C_R   0.242787 0.557860 0.380039 -0.142505
C71   C     C_R   0.212730 0.729933 0.391900 0.154324
C72   C     C_R   0.605691 0.300362 0.553673 0.541536
C73   C     C_R   0.182489 0.753455 0.353393 -0.086695
C74   C     C_R   0.185674 0.678845 0.327809 -0.003986
C75   C     C_R   0.247994 0.629332 0.405220 0.026478
C76   C     C_R   0.723176 0.098636 0.087052 -0.009706
C77   C     C_R   0.590695 0.248403 0.772706 -0.119545
C78   C     C_R   0.794647 0.116569 0.107397 -0.137399
C79   C     C_R   0.778989 0.146739 0.145837 -0.156238
C80   C     C_R   0.691664 0.159815 0.164390 0.034566
C81   C     C_R   0.616156 0.149133 0.143282 0.164705
C82   C     C_R   0.631894 0.119887 0.104786 -0.092062
C83   C     C_R   0.603389 0.255979 0.223494 -0.069106
C84   C     C_R   0.587817 0.606490 0.558961 0.538265
C85   C     C_R   0.595204 0.261731 0.263275 -0.092964
C86   C     C_R   0.671115 0.184336 0.286353 0.034589
C87   C     C_R   0.756102 0.101864 0.269205 -0.109379
C88   C     C_R   0.594571 0.260459 0.733443 -0.106444
C89   C     C_R   0.763634 0.095540 0.229389 -0.109178
C90   C     C_R   0.686677 0.171910 0.206333 0.051461
C91   C     C_R   0.744697 0.184142 0.351063 -0.113286
C92   C     C_R   0.731994 0.209111 0.390306 0.227699
C93   C     C_R   0.556994 0.238912 0.384553 0.106456
C94   C     C_R   0.571242 0.215239 0.345532 -0.104085
C95   C     C_R   0.662887 0.192772 0.328337 -0.037101
C96   C     C_R   0.297708 0.589204 0.551659 0.542206
C97   C     C_R   0.634569 0.244742 0.406818 0.066731
C98   C     C_R   0.693169 0.691689 0.919039 0.022724
C99   C     C_R   0.609766 0.181338 0.707815 0.023429
C100  C     C_R   0.770843 0.604335 0.900795 -0.124825
C101  C     C_R   0.759788 0.584550 0.862251 -0.119781
C102  C     C_R   0.670596 0.651100 0.841427 0.030940
C103  C     C_R   0.588787 0.732238 0.860611 -0.116901
C104  C     C_R   0.599953 0.752424 0.899158 -0.124917
C105  C     C_R   0.579386 0.654922 0.779767 -0.112013
C106  C     C_R   0.575187 0.653706 0.739751 -0.094780
C107  C     C_R   0.658704 0.641553 0.718748 0.041748
C108  C     C_R   0.740285 0.716705 0.103506 0.056620
C109  C     C_R   0.746679 0.630154 0.738018 -0.070579
C110  C     C_R   0.616976 0.091425 0.721747 -0.100280
C111  C     C_R   0.751237 0.630657 0.778003 -0.093647
C112  C     C_R   0.667543 0.643248 0.799216 0.029709
C113  C     C_R   0.713132 0.545663 0.657013 0.135822
C114  C     C_R   0.697230 0.538261 0.617799 -0.112955
C115  C     C_R   0.565851 0.716920 0.616450 -0.067709
C116  C     C_R   0.582246 0.726825 0.655585 0.217902
C117  C     C_R   0.653779 0.639143 0.676540 0.019631
C118  C     C_R   0.620708 0.622348 0.597535 -0.062235
C119  C     C_R   0.058678 0.701499 0.900930 0.023368
C120  C     C_R   0.660889 0.788360 0.126660 -0.164739
Cr1   Cr    Cr6+3 0.426010 0.422500 0.497000 1.076145
Cr2   Cr    Cr6+3 0.651300 0.426310 0.501970 1.061281
Cr3   Cr    Cr6+3 0.422670 0.651170 0.501050 1.083158
Cr4   Cr    Cr6+3 0.905130 0.911420 0.992650 1.020560
Cr5   Cr    Cr6+3 0.911860 0.682710 0.002320 1.063294
Cr6   Cr    Cr6+3 0.682710 0.906840 0.004710 1.020974
H1    H     H_    0.600125 0.859555 0.114967 0.158751
H2    H     H_    0.209426 0.554682 0.156455 0.124381
H3    H     H_    0.081384 0.619603 0.278037 0.112184
H4    H     H_    0.071481 0.632448 0.208303 0.115379
H5    H     H_    0.216433 0.522516 0.322820 0.128869
H6    H     H_    0.267754 0.480691 0.389181 0.189189
H7    H     H_    0.093140 0.880392 0.160195 0.107371
H8    H     H_    0.865875 0.100423 0.094511 0.135433
H9    H     H_    0.575755 0.106515 0.089583 0.157396
H10   H     H_    0.509505 0.216583 0.328264 0.159123
H11   H     H_    0.530166 0.327087 0.276107 0.119602
H12   H     H_    0.496754 0.774730 0.402133 0.163178
H13   H     H_    0.544171 0.316151 0.206051 0.142513
H14   H     H_    0.841450 0.513546 0.357732 0.149625
H15   H     H_    0.837662 0.154666 0.161732 0.114063
H16   H     H_    0.815540 0.041692 0.286581 0.113084
H17   H     H_    0.828310 0.029953 0.216483 0.112540
H18   H     H_    0.816838 0.163476 0.337819 0.110942
H19   H     H_    0.843338 0.555538 0.915367 0.128709
H20   H     H_    0.538600 0.820149 0.912413 0.127474
H21   H     H_    0.506931 0.662168 0.725083 0.129147
H22   H     H_    0.514043 0.664794 0.795530 0.107768
H23   H     H_    0.878035 0.540015 0.172654 0.093652
H24   H     H_    0.823104 0.520340 0.848153 0.115198
H25   H     H_    0.811405 0.621240 0.722071 0.142327
H26   H     H_    0.819213 0.623736 0.792370 0.116471
H27   H     H_    0.740063 0.464297 0.603849 0.167963
H28   H     H_    0.519211 0.784662 0.845119 0.112817
H29   H     H_    0.507166 0.782902 0.601144 0.168388
H30   H     H_    0.089357 0.827750 0.901354 0.125554
H31   H     H_    0.770531 0.516490 0.220232 0.093927
H32   H     H_    0.034514 0.572546 0.890221 0.129234
H33   H     H_    0.136614 0.536080 0.651554 0.125458
H34   H     H_    0.784415 0.494504 0.420298 0.143744
H35   H     H_    0.255805 0.518430 0.711863 0.124735
H36   H     H_    0.231541 0.528426 0.781077 0.120616
H37   H     H_    0.126136 0.814123 0.832902 0.143251
H38   H     H_    0.015895 0.832588 0.700412 0.146678
H39   H     H_    0.182336 0.796564 0.659516 0.126891
H40   H     H_    0.251746 0.760010 0.594825 0.142196
H41   H     H_    0.069174 0.561101 0.821779 0.114179
H42   H     H_    0.600377 0.830034 0.182932 0.144188
H43   H     H_    0.204431 0.499516 0.587045 0.141585
H44   H     H_    0.566825 0.020536 0.900837 0.114821
H45   H     H_    0.165996 0.564410 0.088227 0.142124
H46   H     H_    0.774406 0.139794 0.900451 0.144193
H47   H     H_    0.745450 0.224208 0.676023 0.161466
H48   H     H_    0.587325 0.331035 0.723036 0.129569
H49   H     H_    0.581258 0.309619 0.792035 0.107427
H50   H     H_    0.628807 0.029676 0.702269 0.125780
H51   H     H_    0.626948 0.006107 0.771588 0.162478
H52   H     H_    0.498301 0.165518 0.647939 0.126705
H53   H     H_    0.699413 0.809273 0.306870 0.124615
H54   H     H_    0.497686 0.214723 0.581330 0.135426
H55   H     H_    0.726139 0.192299 0.834378 0.133565
H56   H     H_    0.049069 0.890922 0.091751 0.128619
H57   H     H_    0.746652 0.271700 0.609735 0.155262
H58   H     H_    0.715206 0.823387 0.238016 0.135573
H59   H     H_    0.553947 0.792299 0.339445 0.121892
H60   H     H_    0.942428 0.492936 0.113282 0.316034
H61   H     H_    0.874533 0.176325 0.396583 0.331045
H62   H     H_    0.552359 0.823141 0.698168 0.331339
H63   H     H_    0.769562 0.432281 0.272916 0.320310
H64   H     H_    0.473156 0.041557 0.846267 0.319646
H65   H     H_    0.158160 0.829801 0.343272 0.137689
H66   H     H_    0.250845 0.781846 0.283396 0.114670
H67   H     H_    0.237965 0.797102 0.213344 0.112904
O1    O     O_R   0.324990 0.503440 0.453910 -0.493947
O2    O     O_R   0.675430 0.831160 0.051290 -0.534186
O3    O     O_R   0.698870 0.998880 0.039560 -0.502894
O4    O     O_R   0.522030 0.339050 0.458320 -0.464172
O5    O     O_R   0.811290 0.006780 0.950620 -0.509449
O6    O     O_R   0.980960 0.812920 0.953200 -0.498327
O7    O     O_R   0.001480 0.656720 0.955830 -0.520869
O8    O     O_R   0.809240 0.683250 0.968050 -0.502262
O9    O     O_R   0.652500 0.818540 0.967340 -0.519788
O10   O     O_R   0.677620 0.987170 0.961730 -0.501409
O11   O     O_3   0.833240 0.833660 0.999890 -0.249721
O12   O     O_R   0.639980 0.519500 0.542640 -0.503758
O13   O     O_R   0.676180 0.324490 0.458320 -0.445153
O14   O     O_R   0.643570 0.521510 0.464260 -0.502698
O15   O     O_R   0.504630 0.675350 0.460920 -0.492130
O16   O     O_R   0.339850 0.642450 0.459830 -0.450206
O17   O     O_R   0.321120 0.501280 0.538470 -0.516439
O18   O     O_R   0.518440 0.337050 0.536710 -0.498641
O19   O     O_R   0.672300 0.322330 0.542880 -0.514097
O20   O     O_3   0.894492 0.551913 0.097214 -0.682133
O21   O     O_3   0.812749 0.202436 0.412516 -0.657530
O22   O     O_3   0.524336 0.822267 0.672226 -0.700332
O23   O     O_R   0.500750 0.673190 0.545480 -0.511428
O24   O     O_3   0.754620 0.483042 0.293872 -0.707804
O25   O     O_3   0.498030 0.075113 0.828774 -0.711994
O26   O     O_R   0.336260 0.640450 0.538210 -0.495234
O27   O     O_3   0.499990 0.499990 0.500010 -0.267893
O28   O     O_R   0.834210 0.019400 0.034570 -0.517521
O29   O     O_R   0.002210 0.824620 0.031030 -0.506767
O30   O     O_R   0.024400 0.669340 0.039790 -0.496661
O31   O     O_R   0.830490 0.694950 0.045870 -0.429874

loop_
_geom_bond_atom_site_label_1
_geom_bond_atom_site_label_2
_ccdc_geom_bond_type
Cr1   O1    S    
H62   O22   S    
C50   C51   A    
C80   C90   S    
C103  C104  A    
C106  C107  A    
Br3   C93   S    
C82   H9    S    
C34   O2    A    
C62   H67   S    
Cr6   O9    S    
C37   C98   S    
Cr3   O26   S    
C107  C109  A    
C88   H48   S    
Cr1   O17   S    
C18   H43   S    
C59   H7    S    
C80   C81   A    
Cr1   O4    S    
C100  H19   S    
C44   C55   A    
C26   C38   A    
C27   H54   S    
C27   C31   A    
C57   H2    S    
C104  H20   S    
C8    H36   S    
C71   C73   A    
C1    O4    A    
C24   C27   A    
C31   C72   S    
C48   O14   A    
C54   C61   A    
C84   O23   A    
C10   C20   S    
Br5   C12   S    
C101  C102  A    
C40   C46   A    
C10   C11   A    
C39   O10   A    
C12   C15   A    
C51   C52   A    
H60   O20   S    
C29   C30   A    
C113  C117  A    
C18   C21   A    
C2    C110  A    
C51   H14   S    
C45   H58   S    
C113  C114  A    
C110  H50   S    
C60   O1    A    
Cr4   O6    S    
C11   H38   S    
C32   O30   A    
C42   C43   A    
C5    C15   S    
C63   C64   A    
C34   C108  S    
C69   H5    S    
Cr4   O28   S    
Cr6   O11   S    
C39   O5    A    
C48   O15   A    
C102  C103  A    
C92   O21   S    
C88   C99   A    
C62   C68   A    
C8    C9    A    
C86   C95   S    
C9    H35   S    
C4    C5    A    
C17   H40   S    
C8    C15   A    
C115  C118  A    
Cr3   O15   S    
H63   O24   S    
C60   C75   S    
C43   C45   A    
C49   H12   S    
C83   C90   A    
Cr5   O30   S    
C6    H41   S    
C77   C88   A    
C16   C17   A    
C106  H21   S    
C87   H16   S    
C36   O7    A    
Br4   C113  S    
C19   H33   S    
C56   H45   S    
Cr5   O7    S    
Cr6   O10   S    
C22   C39   S    
C105  C112  A    
C109  H25   S    
C76   C78   A    
C47   C49   A    
C28   C29   A    
C89   H17   S    
C54   C56   A    
C69   C70   A    
C37   O8    A    
C28   C31   A    
C37   O9    A    
C79   C80   A    
C98   C100  A    
C30   C99   S    
C70   H6    S    
C86   C87   A    
C43   H53   S    
C73   C74   A    
C3    C4    A    
C67   H4    S    
C47   H59   S    
C33   C46   S    
C58   C68   S    
C55   C66   A    
C93   C97   A    
C14   C120  A    
C62   C63   A    
C63   H66   S    
C59   C61   A    
C40   H31   S    
C14   H42   S    
C107  C117  S    
C57   C58   A    
Cr5   O8    S    
C14   C33   A    
C42   C52   S    
C99   C110  A    
Cr2   O12   S    
C78   C79   A    
C7    C119  A    
C32   O29   A    
C6    C7    A    
C2    C13   A    
C103  H28   S    
C91   C92   A    
Cr4   O29   S    
C87   C89   A    
C45   C46   A    
C89   C90   A    
C105  C106  A    
C73   H65   S    
C19   C20   A    
C36   O6    A    
C85   H11   S    
C116  C117  A    
C32   C54   S    
Cr1   O18   S    
C96   O26   A    
Cr2   O13   S    
C25   C44   A    
C83   C85   A    
C101  H24   S    
C114  C118  A    
C69   C74   A    
C78   H8    S    
C116  O22   S    
C64   C74   S    
Cr1   O27   S    
C50   H34   S    
Cr4   O11   S    
C47   C52   A    
C26   H23   S    
C22   C66   A    
C115  C116  A    
Cr2   O19   S    
Cr2   O27   S    
C49   C53   A    
C115  H29   S    
C16   C20   A    
C41   C42   A    
C55   H55   S    
C24   H52   S    
C2    H51   S    
C81   C82   A    
Br1   C71   S    
C35   C76   S    
C94   H10   S    
C4    H37   S    
C3    C119  A    
C71   C75   A    
C67   C68   A    
C41   O24   S    
Cr3   O23   S    
Cr3   O27   S    
C109  C111  A    
C48   C53   S    
C23   H44   S    
C34   O31   A    
C84   O12   A    
C1    O13   A    
C79   H15   S    
C84   C118  S    
C100  C101  A    
C24   C30   A    
Cr5   O31   S    
C26   C33   A    
C98   C104  A    
C3    H30   S    
C66   H46   S    
C23   C25   A    
Cr6   O2    S    
C111  H26   S    
C21   C96   S    
C105  H22   S    
C94   C95   A    
C38   C108  A    
C7    H32   S    
H64   O25   S    
C76   C82   A    
C120  H1    S    
C72   O19   A    
C85   C86   A    
C11   C12   A    
C36   C119  S    
C96   O17   A    
C114  H27   S    
C91   H18   S    
C91   C95   A    
C13   C77   A    
C83   H13   S    
C111  C112  A    
Br2   C81   S    
C28   H57   S    
C38   O20   S    
C1    C97   S    
C35   O28   A    
C56   C57   A    
Cr6   O3    S    
C64   C65   A    
C29   H47   S    
C5    C6    A    
C18   C19   A    
C25   O25   S    
C58   C59   A    
Cr4   O5    S    
C40   C41   A    
Cr2   O14   S    
C60   O16   A    
C70   C75   A    
C108  C120  A    
C35   O3    A    
C13   C44   S    
C93   C94   A    
C17   C21   A    
C50   C53   A    
C77   H49   S    
C22   C23   A    
C65   H3    S    
C9    C10   A    
Cr5   O11   S    
C65   C67   A    
H61   O21   S    
C61   H56   S    
C92   C97   A    
C102  C112  S    
C16   H39   S    
C72   O18   A    
Cr3   O16   S    
