data_mof_unit_63627.cif
_audit_creation_date              2012-12-10T19:30:23-0500
_audit_creation_method            fapswitch 2.2
_symmetry_space_group_name_H-M    P1
_symmetry_Int_Tables_number       1
_space_group_crystal_system       triclinic
_cell_length_a                    17.7543
_cell_length_b                    16.517119
_cell_length_c                    19.339003
_cell_angle_alpha                 90.316637
_cell_angle_beta                  91.167191
_cell_angle_gamma                 90.004058
_cell_volume                      5669.89704546

loop_
_atom_site_label
_atom_site_type_symbol
_atom_type_description
_atom_site_fract_x
_atom_site_fract_y
_atom_site_fract_z
_atom_type_partial_charge
C1    C     C_R   0.355481 0.500073 0.499873 0.952679
C2    C     C_R   0.644695 0.500083 0.500042 0.939169
C3    C     C_R   0.727929 0.500861 0.500018 -0.194410
C4    C     C_R   0.272580 0.500833 0.500132 -0.186617
C5    C     C_R   0.885827 0.502934 0.499513 -0.060879
C6    C     C_R   0.114940 0.502672 0.501317 -0.061311
C7    C     C_1   0.966613 0.504317 0.500240 0.215766
C8    C     C_1   0.034165 0.504222 0.500864 0.214948
C9    C     C_R   0.551284 0.828881 0.542866 0.209173
C10   C     C_R   0.453173 0.170853 0.453305 0.204252
C11   C     C_R   0.449022 0.828279 0.456725 0.211559
C12   C     C_R   0.546712 0.171677 0.547310 0.203556
C13   C     C_R   0.549992 0.742493 0.541793 0.524025
C14   C     C_R   0.453874 0.257264 0.454780 0.504491
C15   C     C_R   0.450575 0.741863 0.457549 0.518482
C16   C     C_R   0.545484 0.258108 0.546028 0.507744
C17   C     C_R   0.500041 0.872990 0.499924 -0.147813
C18   C     C_R   0.500109 0.126847 0.500212 -0.142569
C19   C     C_1   0.500044 0.962772 0.500041 0.011653
C20   C     C_1   0.500131 0.037063 0.500175 0.011014
C21   C     C_R   0.499781 0.499881 0.367372 0.900767
C22   C     C_R   0.500108 0.500153 0.632655 0.904681
C23   C     C_R   0.551843 0.548772 0.256684 0.072362
C24   C     C_R   0.450448 0.448776 0.743619 0.081978
C25   C     C_R   0.549226 0.551239 0.746345 0.079736
C26   C     C_R   0.447719 0.452661 0.253586 0.074189
C27   C     C_R   0.553197 0.548786 0.184132 0.366734
C28   C     C_R   0.448803 0.449390 0.816160 0.367445
C29   C     C_R   0.550527 0.550300 0.818881 0.361628
C30   C     C_R   0.446484 0.453945 0.181051 0.358674
C31   C     C_R   0.500035 0.501400 0.145844 -0.184956
C32   C     C_R   0.499493 0.499923 0.854295 -0.190122
C33   C     C_R   0.500027 0.500006 0.291374 -0.168843
C34   C     C_R   0.499796 0.500275 0.708701 -0.161886
C35   C     C_R   0.499286 0.500223 0.930237 0.373284
C36   C     C_R   0.500352 0.501168 0.069966 0.370570
C37   C     C_R   0.845663 0.565039 0.466335 0.271843
C38   C     C_R   0.151722 0.446993 0.458756 0.273494
C39   C     C_R   0.155380 0.559008 0.541818 0.276616
C40   C     C_R   0.848796 0.441117 0.534584 0.272048
C41   C     C_R   0.765884 0.562860 0.464734 0.243722
C42   C     C_R   0.231436 0.444551 0.459451 0.236355
C43   C     C_R   0.235152 0.556687 0.542788 0.237512
C44   C     C_R   0.769079 0.438692 0.533376 0.237368
Cu1   Cu    Cu3+1 0.500000 0.580420 0.500000 1.096737
Cu2   Cu    Cu3+1 0.500000 0.419580 0.500000 1.080901
N1    N     N_R   0.512293 0.431301 0.034660 -0.192865
N2    N     N_R   0.487288 0.570082 0.965571 -0.192054
N3    N     N_R   0.511874 0.430852 0.965865 -0.193233
N4    N     N_R   0.487768 0.570545 0.034369 -0.194799
N5    N     N_R   0.500000 0.701220 0.500000 -0.254494
N6    N     N_R   0.500000 0.298780 0.500000 -0.261614
O1    O     O_R   0.391260 0.567930 0.500000 -0.519399
O2    O     O_R   0.608740 0.432070 0.500000 -0.530477
O3    O     O_R   0.608740 0.567930 0.500000 -0.504055
O4    O     O_R   0.391260 0.432070 0.500000 -0.525410
O5    O     O_R   0.499990 0.567930 0.400140 -0.536330
O6    O     O_R   0.500010 0.432070 0.599860 -0.534865
O7    O     O_R   0.500010 0.567930 0.599860 -0.540469
O8    O     O_R   0.499990 0.432070 0.400140 -0.542264
N7    N     N_3   0.605622 0.596154 0.295771 -0.524554
H1    H     H_    0.659736 0.577569 0.282413 0.255474
H2    H     H_    0.599114 0.656829 0.281732 0.272260
N8    N     N_3   0.399154 0.398066 0.704782 -0.546831
H3    H     H_    0.344150 0.413752 0.717782 0.255042
H4    H     H_    0.408553 0.337988 0.719366 0.270965
N9    N     N_3   0.601302 0.601419 0.710459 -0.510051
H5    H     H_    0.592802 0.661438 0.725910 0.275639
H6    H     H_    0.656032 0.584624 0.725320 0.256636
N10   N     N_3   0.392807 0.406022 0.289326 -0.483475
H7    H     H_    0.397204 0.345790 0.272993 0.273626
H8    H     H_    0.339226 0.427090 0.274992 0.263918
O9    O     O_3   0.608134 0.594952 0.153320 -0.703411
H9    H     H_    0.613900 0.578264 0.104568 0.347012
O10   O     O_3   0.395966 0.400674 0.847182 -0.700699
H10   H     H_    0.387619 0.419281 0.895080 0.346612
O11   O     O_3   0.603447 0.598595 0.852694 -0.700682
H11   H     H_    0.612376 0.578883 0.900330 0.347237
O12   O     O_3   0.391221 0.408865 0.147086 -0.703802
H12   H     H_    0.384693 0.427562 0.098875 0.347606
O13   O     O_3   0.885907 0.627544 0.437458 -0.700648
H13   H     H_    0.854870 0.677336 0.438266 0.351468
O14   O     O_3   0.108227 0.397807 0.415836 -0.699411
H14   H     H_    0.137094 0.384567 0.373996 0.346826
O15   O     O_3   0.115415 0.616287 0.578346 -0.700544
H15   H     H_    0.146659 0.665652 0.583848 0.351358
O16   O     O_3   0.892069 0.385642 0.571032 -0.699226
H16   H     H_    0.863003 0.365752 0.610652 0.349366
O17   O     O_3   0.723755 0.618017 0.426873 -0.696987
H17   H     H_    0.753578 0.636631 0.387273 0.338714
O18   O     O_3   0.270435 0.388653 0.420793 -0.685091
H18   H     H_    0.240166 0.338416 0.416849 0.347232
O19   O     O_3   0.277919 0.605293 0.586787 -0.706767
H19   H     H_    0.248414 0.617797 0.628410 0.342232
O20   O     O_3   0.730232 0.376838 0.564443 -0.675461
H20   H     H_    0.760318 0.326501 0.561345 0.348390
O21   O     O_3   0.603152 0.866920 0.586560 -0.713223
H21   H     H_    0.599887 0.926326 0.582081 0.348378
O22   O     O_3   0.406027 0.132695 0.405361 -0.716317
H22   H     H_    0.411819 0.073328 0.407657 0.348867
O23   O     O_3   0.397082 0.865753 0.413123 -0.710960
H23   H     H_    0.399955 0.925197 0.418068 0.348152
O24   O     O_3   0.594125 0.134311 0.595115 -0.714044
H24   H     H_    0.589352 0.074848 0.592051 0.348602
O25   O     O_3   0.599085 0.697632 0.582406 -0.663169
H25   H     H_    0.634027 0.733589 0.608596 0.363019
O26   O     O_3   0.408208 0.301870 0.410914 -0.634726
H26   H     H_    0.375513 0.265721 0.382538 0.365828
O27   O     O_3   0.402718 0.696353 0.415669 -0.669857
H27   H     H_    0.370103 0.731961 0.387061 0.366066
O28   O     O_3   0.589523 0.303562 0.591258 -0.634079
H28   H     H_    0.618721 0.268004 0.622846 0.372069

loop_
_geom_bond_atom_site_label_1
_geom_bond_atom_site_label_2
_ccdc_geom_bond_type
C41   O17   S    
O16   H16   S    
O19   H19   S    
C5    C37   A    
C38   O14   S    
O20   H20   S    
O9    H9    S    
C15   O27   S    
C19   C20   T    
C25   N9    S    
O21   H21   S    
C7    C8    T    
N1    N3    A    
O11   H11   S    
Cu1   O5    S    
O23   H23   S    
C40   O16   S    
C1    O4    A    
C38   C42   A    
C29   C32   A    
C2    O3    A    
C30   C31   A    
C21   C33   S    
Cu1   N5    S    
Cu2   N6    S    
C36   N1    A    
C42   O18   S    
N7    H2    S    
C1    O1    A    
C9    C13   A    
C43   O19   S    
C13   N5    A    
C11   C15   A    
C14   N6    A    
O22   H22   S    
C23   C33   A    
C35   N3    A    
O26   H26   S    
C6    C38   A    
N10   H7    S    
C15   N5    A    
C25   C34   A    
N2    N4    A    
Cu1   O1    S    
C24   N8    S    
Cu2   O6    S    
C37   O13   S    
N7    H1    S    
C35   N2    A    
O13   H13   S    
C25   C29   A    
C22   C34   S    
C3    C44   A    
C27   C31   A    
N9    H5    S    
C32   C35   S    
C12   C16   A    
C28   C32   A    
C12   O24   S    
C13   O25   S    
C2    O2    A    
C22   O7    A    
C5    C7    S    
C39   C43   A    
O15   H15   S    
C24   C34   A    
N9    H6    S    
N8    H4    S    
O10   H10   S    
C21   O5    A    
C26   C33   A    
O14   H14   S    
C23   N7    S    
Cu2   O2    S    
C11   O23   S    
C21   O8    A    
C30   O12   S    
C9    C17   A    
C14   O26   S    
C26   C30   A    
C23   C27   A    
C10   C14   A    
C26   N10   S    
C39   O15   S    
C12   C18   A    
O18   H18   S    
C36   N4    A    
C16   N6    A    
Cu1   O7    S    
C9    O21   S    
O28   H28   S    
Cu2   O8    S    
C6    C39   A    
C24   C28   A    
C11   C17   A    
C22   O6    A    
C6    C8    S    
C4    C43   A    
O25   H25   S    
C1    C4    S    
N8    H3    S    
C2    C3    S    
C44   O20   S    
O27   H27   S    
C4    C42   A    
C10   C18   A    
C17   C19   S    
C18   C20   S    
C37   C41   A    
C10   O22   S    
C3    C41   A    
O12   H12   S    
Cu1   Cu2   S    
C40   C44   A    
C29   O11   S    
Cu1   O3    S    
C5    C40   A    
Cu2   O4    S    
O24   H24   S    
C31   C36   S    
N10   H8    S    
O17   H17   S    
C27   O9    S    
C28   O10   S    
C16   O28   S    
