data_mof_unit_9247.cif
_audit_creation_date              2012-12-10T16:56:30-0500
_audit_creation_method            fapswitch 2.2
_symmetry_space_group_name_H-M    P1
_symmetry_Int_Tables_number       1
_space_group_crystal_system       triclinic
_cell_length_a                    7.744392
_cell_length_b                    8.495146
_cell_length_c                    15.715312
_cell_angle_alpha                 90.691847
_cell_angle_beta                  85.84218
_cell_angle_gamma                 93.724073
_cell_volume                      1028.97957605

loop_
_atom_site_label
_atom_site_type_symbol
_atom_type_description
_atom_site_fract_x
_atom_site_fract_y
_atom_site_fract_z
_atom_type_partial_charge
C1    C     C_R   0.545883 0.793721 0.510204 0.947880
C2    C     C_3   0.342271 0.449972 0.030947 0.260927
C3    C     C_1   0.506676 0.499464 0.750713 -0.175012
C4    C     C_1   0.493373 0.500656 0.249264 -0.187699
C5    C     C_3   0.382529 0.596926 0.974595 -0.217316
C6    C     C_3   0.617651 0.403246 0.025336 -0.217108
C7    C     C_3   0.504639 0.499453 0.916878 0.152088
C8    C     C_3   0.495530 0.500716 0.083062 0.152912
C9    C     C_1   0.507477 0.499232 0.825957 -0.056477
C10   C     C_1   0.492631 0.500912 0.174003 -0.052669
C11   C     C_3   0.838018 0.607042 0.932355 -0.941042
C12   C     C_R   0.455547 0.206773 0.514456 0.949453
C13   C     C_3   0.162113 0.393124 0.067500 -0.938308
C14   C     C_3   0.755696 0.015174 0.552902 -0.868754
C15   C     C_3   0.251089 0.987959 0.576761 -0.879834
C16   C     C_R   0.502221 0.500055 0.662035 0.874516
C17   C     C_R   0.497799 0.500043 0.337979 0.922315
C18   C     C_2   0.571595 0.955595 0.536417 -0.037417
C19   C     C_2   0.432821 0.046423 0.543173 -0.029520
C20   C     C_3   0.537896 0.648370 0.028031 -0.215329
C21   C     C_3   0.462282 0.351803 0.971900 -0.216196
C22   C     C_3   0.657904 0.550200 0.968979 0.261938
H1    H     H_    0.569831 0.769056 0.052619 0.144912
H2    H     H_    0.104528 0.487712 0.107427 0.248816
H3    H     H_    0.821085 0.923436 0.586054 0.226581
H4    H     H_    0.831669 0.043294 0.491698 0.253903
H5    H     H_    0.757191 0.119412 0.596270 0.258742
H6    H     H_    0.188201 0.081766 0.615248 0.238264
H7    H     H_    0.170211 0.955551 0.522894 0.256104
H8    H     H_    0.254076 0.886787 0.620645 0.252132
H9    H     H_    0.013522 0.381200 0.436623 0.196003
H10   H     H_    0.986492 0.618786 0.563403 0.190274
H11   H     H_    0.430353 0.231128 0.947294 0.144591
H12   H     H_    0.714523 0.325378 0.047780 0.148628
H13   H     H_    0.285670 0.674791 0.952135 0.148164
H14   H     H_    0.922140 0.637688 0.985156 0.245031
H15   H     H_    0.895547 0.512440 0.892417 0.247913
H16   H     H_    0.829129 0.712944 0.892633 0.245011
H17   H     H_    0.078079 0.362510 0.014658 0.244245
H18   H     H_    0.170937 0.287197 0.107209 0.245695
N1    N     N_2   0.950320 0.457950 0.477300 -0.169882
N2    N     N_2   0.049680 0.542050 0.522700 -0.171522
O1    O     O_R   0.389250 0.738570 0.505570 -0.618061
O2    O     O_R   0.610750 0.261430 0.494430 -0.620767
O3    O     O_R   0.678390 0.711630 0.491020 -0.619512
O4    O     O_R   0.321610 0.288370 0.508980 -0.622155
O5    O     O_R   0.355460 0.513480 0.630490 -0.622179
O6    O     O_R   0.644540 0.486520 0.369510 -0.605093
O7    O     O_R   0.644600 0.486540 0.615950 -0.632223
O8    O     O_R   0.355400 0.513460 0.384050 -0.613695
Zn1   Zn    Zn3+2 0.306940 0.517990 0.509710 0.934635
Zn2   Zn    Zn3+2 0.693060 0.482010 0.490290 0.936099

loop_
_geom_bond_atom_site_label_1
_geom_bond_atom_site_label_2
_ccdc_geom_bond_type
C17   O8    A    
C11   H16   S    
C6    C8    S    
C17   O6    A    
C3    C9    T    
C14   H5    S    
C7    C22   S    
N1    N2    D    
C14   C18   S    
C11   C22   S    
C20   H1    S    
N2    Zn1   S    
O7    Zn2   S    
O1    Zn1   S    
O2    Zn2   S    
C2    C21   S    
O8    Zn1   S    
C1    C18   S    
C12   O2    A    
C5    C20   S    
C14   H4    S    
C15   C19   S    
C1    O3    A    
C15   H6    S    
C8    C20   S    
C4    C17   S    
C5    H13   S    
C12   C19   S    
C8    C10   S    
C11   H14   S    
C20   C22   S    
C15   H7    S    
C5    C7    S    
C14   H3    S    
C13   H17   S    
C2    C5    S    
C21   H11   S    
C4    C10   T    
C6    C22   S    
C7    C9    S    
O6    Zn2   S    
C16   O7    A    
C16   O5    A    
C15   H8    S    
C12   O4    A    
C18   C19   D    
C11   H15   S    
C2    C13   S    
H10   N2    S    
C13   H18   S    
O5    Zn1   S    
H9    N1    S    
O3    Zn2   S    
C7    C21   S    
C6    C21   S    
O4    Zn1   S    
C1    O1    A    
C2    C8    S    
C3    C16   S    
C6    H12   S    
C13   H2    S    
N1    Zn2   S    
