data_mof_unit_35747.cif
_audit_creation_date              2012-10-26T19:59:13-0400
_audit_creation_method            fapswitch 2.2
_symmetry_space_group_name_H-M    P1
_symmetry_Int_Tables_number       1
_space_group_crystal_system       triclinic
_cell_length_a                    7.436502
_cell_length_b                    8.6946
_cell_length_c                    15.831574
_cell_angle_alpha                 94.284739
_cell_angle_beta                  75.09251
_cell_angle_gamma                 103.131969
_cell_volume                      963.164273092

loop_
_atom_site_label
_atom_site_type_symbol
_atom_type_description
_atom_site_fract_x
_atom_site_fract_y
_atom_site_fract_z
_atom_type_partial_charge
C1    C     C_R   0.545063 0.800143 0.502606 0.550547
C2    C     C_R   0.615866 0.511027 0.333721 0.544633
C3    C     C_R   0.313947 0.466576 0.760988 -0.007249
C4    C     C_R   0.685932 0.524414 0.238353 -0.006684
C5    C     C_R   0.077502 0.342799 0.885822 -0.131581
C6    C     C_R   0.931604 0.621744 0.109941 -0.130870
C7    C     C_R   0.129057 0.383615 0.798093 -0.142878
C8    C     C_R   0.876046 0.592056 0.199205 -0.141795
C9    C     C_R   0.443514 0.514610 0.813122 -0.133371
C10   C     C_R   0.554733 0.479003 0.186745 -0.134742
C11   C     C_R   0.397767 0.470439 0.901055 0.027148
C12   C     C_R   0.454926 0.199856 0.497408 0.550558
C13   C     C_R   0.607392 0.505220 0.096258 0.027466
C14   C     C_R   0.210489 0.383777 0.937110 0.044551
C15   C     C_R   0.798402 0.581890 0.058740 0.046057
C16   C     C_R   0.532926 0.507269 0.953447 0.028068
C17   C     C_R   0.474638 0.462566 0.042879 0.027032
C18   C     C_R   0.286515 0.374940 0.075588 -0.142836
C19   C     C_R   0.725198 0.584426 0.919103 -0.141976
C20   C     C_R   0.157958 0.336548 0.023574 -0.131907
C21   C     C_R   0.854610 0.620023 0.970778 -0.132102
C22   C     C_2   0.570455 0.968017 0.503872 -0.156700
C23   C     C_2   0.429519 0.031984 0.496161 -0.156668
C24   C     C_R   0.384059 0.488025 0.666200 0.544250
Cu1   Cu    Cu3+1 0.322120 0.483240 0.490330 0.948429
Cu2   Cu    Cu3+1 0.677880 0.516760 0.509670 0.949326
H1    H     H_    0.015592 0.269078 0.051498 0.118334
H2    H     H_    0.783219 0.617045 0.851758 0.106023
H3    H     H_    0.706314 0.039329 0.511153 0.133768
H4    H     H_    0.293659 0.960673 0.488882 0.133755
H5    H     H_    0.003993 0.615150 0.568828 0.238226
H6    H     H_    0.996009 0.384854 0.431170 0.238036
H7    H     H_    0.000493 0.678446 0.941434 0.120085
H8    H     H_    0.409970 0.428725 0.219805 0.121042
H9    H     H_    0.580753 0.584464 0.782304 0.117602
H10   H     H_    0.979668 0.627592 0.237983 0.133282
H11   H     H_    0.026976 0.345448 0.758719 0.133706
H12   H     H_    0.934299 0.276608 0.913312 0.120017
H13   H     H_    0.078366 0.678370 0.081069 0.120178
H14   H     H_    0.233771 0.330157 0.140916 0.104700
N1    N     N_2   0.945180 0.542040 0.524240 -0.258073
N2    N     N_2   0.054820 0.457960 0.475760 -0.258317
O1    O     O_R   0.384450 0.714270 0.493720 -0.502760
O2    O     O_R   0.615550 0.285730 0.506280 -0.502779
O3    O     O_R   0.684880 0.742590 0.510050 -0.497263
O4    O     O_R   0.315120 0.257410 0.489950 -0.497379
O5    O     O_R   0.265540 0.477900 0.617090 -0.506035
O6    O     O_R   0.734460 0.522100 0.382910 -0.505685
O7    O     O_R   0.565970 0.506210 0.633420 -0.502783
O8    O     O_R   0.434030 0.493790 0.366580 -0.504387

loop_
_geom_bond_atom_site_label_1
_geom_bond_atom_site_label_2
_ccdc_geom_bond_type
Cu1   N2    S    
C2    C4    S    
C3    C9    A    
C22   H3    S    
Cu2   O6    S    
C5    C7    A    
N1    N2    D    
Cu1   O5    S    
C18   C20   A    
C13   C17   A    
C4    C8    A    
C2    O6    A    
Cu1   O1    S    
C2    O8    A    
C17   C18   A    
C7    H11   S    
Cu2   O2    S    
C1    C22   S    
C10   H8    S    
Cu1   Cu2   S    
C5    H12   S    
C19   H2    S    
C9    C11   A    
C12   C23   S    
C1    O3    A    
C5    C14   A    
C16   C19   A    
C6    C8    A    
C20   H1    S    
C3    C7    A    
C13   C15   A    
C11   C14   A    
C11   C16   A    
C21   H7    S    
C4    C10   A    
C23   H4    S    
C14   C20   A    
C15   C21   A    
C12   O4    A    
C8    H10   S    
Cu2   O7    S    
C24   O7    A    
C9    H9    S    
H6    N2    S    
C6    H13   S    
C12   O2    A    
C18   H14   S    
H5    N1    S    
Cu2   O3    S    
C19   C21   A    
C6    C15   A    
C22   C23   D    
C24   O5    A    
Cu1   O4    S    
C1    O1    A    
Cu1   O8    S    
Cu2   N1    S    
C3    C24   S    
C16   C17   A    
C10   C13   A    
