data_mof_unit_20170.cif
_audit_creation_date              2012-12-10T19:52:16-0500
_audit_creation_method            fapswitch 2.2
_symmetry_space_group_name_H-M    P1
_symmetry_Int_Tables_number       1
_space_group_crystal_system       triclinic
_cell_length_a                    15.095149
_cell_length_b                    14.200728
_cell_length_c                    10.858809
_cell_angle_alpha                 91.206396
_cell_angle_beta                  92.754351
_cell_angle_gamma                 89.716312
_cell_volume                      2324.49458258

loop_
_atom_site_label
_atom_site_type_symbol
_atom_type_description
_atom_site_fract_x
_atom_site_fract_y
_atom_site_fract_z
_atom_type_partial_charge
C1    C     C_R   0.327156 0.500430 0.501272 1.022216
C2    C     C_3   0.562133 0.590974 0.942102 0.652998
C3    C     C_R   0.089670 0.581270 0.528861 -0.170900
C4    C     C_R   0.090859 0.435036 0.412684 -0.207472
C5    C     C_R   0.181446 0.579166 0.545605 0.387537
C6    C     C_R   0.182206 0.428946 0.426678 0.452796
C7    C     C_R   0.229834 0.501980 0.493723 -0.315521
C8    C     C_R   0.045084 0.509242 0.465094 -0.033991
C9    C     C_R   0.908554 0.422789 0.491843 -0.177572
C10   C     C_R   0.899151 0.582860 0.420645 -0.151014
C11   C     C_R   0.817571 0.415842 0.485071 0.154708
C12   C     C_R   0.807289 0.578046 0.416756 0.170076
C13   C     C_R   0.765785 0.497684 0.463042 -0.140724
C14   C     C_R   0.949350 0.506364 0.462253 0.074152
C15   C     C_R   0.448648 0.107929 0.396252 -0.217001
C16   C     C_R   0.419024 0.889844 0.442818 -0.217445
C17   C     C_R   0.499331 0.499054 0.257859 0.999095
C18   C     C_R   0.456062 0.207183 0.402807 0.142279
C19   C     C_R   0.425625 0.790568 0.450068 0.037535
C20   C     C_R   0.540214 0.199059 0.590710 0.301418
C21   C     C_R   0.571553 0.803129 0.537732 0.384562
C22   C     C_R   0.531892 0.101008 0.589071 -0.254009
C23   C     C_R   0.567560 0.901000 0.528642 -0.265094
C24   C     C_R   0.487512 0.053007 0.490513 0.103451
C25   C     C_R   0.490555 0.946820 0.485055 0.094184
C26   C     C_R   0.671111 0.499230 0.485883 0.972978
C27   C     C_R   0.502278 0.501702 0.743290 0.958887
C28   C     C_3   0.404069 0.509135 0.063843 0.269490
C29   C     C_3   0.537383 0.403081 0.069987 0.263456
C30   C     C_3   0.407249 0.512452 0.921805 -0.457907
C31   C     C_3   0.542408 0.410978 0.929768 -0.485586
C32   C     C_3   0.560194 0.580914 0.083795 -0.401709
C33   C     C_3   0.500792 0.498523 0.122499 -0.249464
C34   C     C_3   0.504193 0.506211 0.881035 -0.214690
H1    H     H_    0.415123 0.074659 0.316532 0.163106
H2    H     H_    0.358096 0.921463 0.406493 0.180645
H3    H     H_    0.427985 0.247763 0.327975 0.170983
H4    H     H_    0.370557 0.747903 0.415556 0.205326
H5    H     H_    0.562914 0.062109 0.664337 0.181177
H6    H     H_    0.625648 0.941690 0.557530 0.174183
H7    H     H_    0.368029 0.443529 0.082700 0.114113
H8    H     H_    0.487316 0.347803 0.086131 0.097102
H9    H     H_    0.368626 0.452065 0.880216 0.165736
H10   H     H_    0.503886 0.350995 0.887369 0.207432
H11   H     H_    0.373836 0.575038 0.884586 0.313133
H12   H     H_    0.611298 0.403778 0.901740 0.269664
H13   H     H_    0.538243 0.647408 0.127613 0.266745
H14   H     H_    0.627312 0.571981 0.126047 0.247842
H15   H     H_    0.051844 0.638349 0.568800 0.205268
H16   H     H_    0.053816 0.380668 0.361674 0.207554
H17   H     H_    0.947957 0.361170 0.515463 0.181031
H18   H     H_    0.931469 0.644280 0.386201 0.185025
N1    N     N_R   0.499980 0.252470 0.500000 -0.120011
N2    N     N_R   0.499980 0.747530 0.500000 -0.137405
O1    O     O_R   0.369070 0.579480 0.500010 -0.584142
O2    O     O_R   0.369070 0.420520 0.500010 -0.565836
O3    O     O_R   0.499990 0.579480 0.314790 -0.596547
O4    O     O_R   0.499990 0.420520 0.314790 -0.597576
O5    O     O_R   0.630940 0.579480 0.499990 -0.588466
O6    O     O_R   0.630940 0.420520 0.499990 -0.587247
O7    O     O_R   0.500020 0.579480 0.685200 -0.533647
O8    O     O_R   0.500020 0.420520 0.685200 -0.639594
Zn1   Zn    Zn3+2 0.500010 0.606140 0.500000 1.089915
Zn2   Zn    Zn3+2 0.500010 0.393860 0.500000 1.070818
S1    S     S_3+6 0.333909 0.600348 0.127778 0.082551
O9    O     O_2   0.261873 0.626110 0.033830 -0.205654
O10   O     O_2   0.290883 0.562293 0.237864 -0.295772
O11   O     O_3   0.390162 0.697962 0.172679 -0.523912
H19   H     H_    0.344204 0.747100 0.183325 0.381729
S2    S     S_3+6 0.639083 0.355169 0.141068 0.069036
O12   O     O_2   0.615313 0.286925 0.237923 -0.264427
O13   O     O_2   0.690470 0.302074 0.046545 -0.230463
O14   O     O_3   0.704225 0.439067 0.207454 -0.568290
H20   H     H_    0.764835 0.411915 0.210069 0.403714
I1    I     I_    0.772896 0.274193 0.475448 -0.148693
I2    I     I_    0.740421 0.682238 0.308360 -0.183911
I3    I     I_    0.628314 0.252134 0.730251 -0.230473
I4    I     I_    0.693892 0.757459 0.622482 -0.035745
S3    S     S_3+6 0.522035 0.711393 0.909428 0.073513
O15   O     O_2   0.574831 0.779484 0.991316 -0.242974
O16   O     O_2   0.534454 0.738004 0.779327 -0.287313
O17   O     O_3   0.414822 0.728889 0.936796 -0.511384
H21   H     H_    0.404322 0.797026 0.924450 0.394860
S4    S     S_3+6 0.678234 0.584430 0.899432 0.083411
O18   O     O_2   0.722153 0.678516 0.920436 -0.153272
O19   O     O_2   0.730077 0.514340 0.976031 -0.278500
O20   O     O_3   0.686292 0.552745 0.750750 -0.553630
H22   H     H_    0.702774 0.485152 0.750751 0.353982
S5    S     S_3+6 0.226655 0.676902 0.632177 0.054108
O21   O     O_2   0.233178 0.757884 0.546253 -0.317077
O22   O     O_2   0.164534 0.704860 0.730874 -0.215237
O23   O     O_3   0.326255 0.655833 0.700900 -0.542788
H23   H     H_    0.358662 0.716097 0.697718 0.407597
S6    S     S_3+6 0.230725 0.328262 0.356396 0.044234
O24   O     O_2   0.268679 0.265054 0.455026 -0.286446
O25   O     O_2   0.162519 0.273755 0.278914 -0.283579
O26   O     O_3   0.311061 0.362248 0.265668 -0.575011
H24   H     H_    0.311334 0.314535 0.197808 0.357772

loop_
_geom_bond_atom_site_label_1
_geom_bond_atom_site_label_2
_ccdc_geom_bond_type
C15   C18   A    
O20   H22   S    
C29   H8    S    
O14   H20   S    
C30   H11   S    
C2    S4    S    
C9    H17   S    
S4    O20   S    
C4    C8    A    
C10   H18   S    
O26   H24   S    
C3    H15   S    
C20   I3    S    
C19   H4    S    
C18   H3    S    
S4    O19   D    
C21   N2    A    
N1    Zn2   S    
N2    Zn1   S    
C23   H6    S    
C29   C33   S    
C28   H7    S    
C2    C32   S    
O7    Zn1   S    
O8    Zn2   S    
C2    S3    S    
C27   O7    A    
C18   N1    A    
O11   H19   S    
C6    S6    S    
C31   H12   S    
O1    Zn1   S    
C21   I4    S    
O2    Zn2   S    
S2    O12   D    
S5    O22   D    
C26   O5    A    
C17   O4    A    
C2    C34   S    
C32   H14   S    
C17   C33   S    
C15   H1    S    
O3    Zn1   S    
C27   C34   S    
O4    Zn2   S    
C31   H10   S    
C30   C34   S    
C24   C25   S    
C4    C6    A    
C3    C8    A    
C10   C14   A    
S3    O16   D    
S6    O26   S    
S1    O10   D    
C4    H16   S    
C9    C14   A    
C27   O8    A    
S1    O11   S    
S2    O14   S    
C31   C34   S    
S4    O18   D    
S5    O23   S    
S6    O25   D    
C9    C11   A    
C10   C12   A    
C19   N2    A    
C15   C24   A    
C20   C22   A    
C28   C33   S    
S1    O9    D    
C12   I2    S    
C32   H13   S    
C22   C24   A    
C30   H9    S    
C5    C7    A    
C29   S2    S    
C16   C25   A    
C8    C14   S    
C1    C7    S    
C1    O2    A    
C20   N1    A    
C3    C5    A    
S3    O17   S    
C6    C7    A    
O5    Zn1   S    
O6    Zn2   S    
C32   C33   S    
C21   C23   A    
C28   S1    S    
C1    O1    A    
C29   C31   S    
C11   I1    S    
C16   H2    S    
C11   C13   A    
C16   C19   A    
C22   H5    S    
C28   C30   S    
O23   H23   S    
C23   C25   A    
S6    O24   D    
C13   C26   S    
S3    O15   D    
C12   C13   A    
O17   H21   S    
S2    O13   D    
S5    O21   D    
C26   O6    A    
C5    S5    S    
C17   O3    A    
