data_mof_unit_36535.cif
_audit_creation_date              2012-10-26T19:40:06-0400
_audit_creation_method            fapswitch 2.2
_symmetry_space_group_name_H-M    P1
_symmetry_Int_Tables_number       1
_space_group_crystal_system       triclinic
_cell_length_a                    14.945088
_cell_length_b                    8.687332
_cell_length_c                    7.619487
_cell_angle_alpha                 103.667028
_cell_angle_beta                  95.544022
_cell_angle_gamma                 95.229663
_cell_volume                      950.086317464

loop_
_atom_site_label
_atom_site_type_symbol
_atom_type_description
_atom_site_fract_x
_atom_site_fract_y
_atom_site_fract_z
_atom_type_partial_charge
C1    C     C_R   0.497262 0.199912 0.452693 0.523619
C2    C     C_R   0.175683 0.346157 0.451353 0.252430
C3    C     C_R   0.767183 0.507367 0.501373 0.035791
C4    C     C_R   0.232816 0.492635 0.498626 0.035920
C5    C     C_R   0.802132 0.361795 0.454149 -0.131319
C6    C     C_R   0.197869 0.638206 0.545859 -0.131411
C7    C     C_R   0.894775 0.357786 0.454030 0.009176
C8    C     C_R   0.105224 0.642215 0.545973 0.009180
C9    C     C_R   0.953134 0.502074 0.500319 0.019426
C10   C     C_R   0.046867 0.497927 0.499679 0.019420
C11   C     C_R   0.917953 0.650423 0.547228 0.067683
C12   C     C_R   0.502739 0.800088 0.547307 0.523567
C13   C     C_R   0.082045 0.349578 0.452763 0.067670
C14   C     C_R   0.929808 0.211467 0.408628 -0.132056
C15   C     C_R   0.070193 0.788533 0.591374 -0.132100
C16   C     C_R   0.022608 0.207223 0.408027 -0.096812
C17   C     C_R   0.977393 0.792778 0.591966 -0.096801
C18   C     C_2   0.495774 0.030893 0.427524 -0.112817
C19   C     C_2   0.504226 0.969107 0.572476 -0.112820
C20   C     C_R   0.329489 0.497912 0.499612 0.520598
C21   C     C_R   0.670513 0.502088 0.500388 0.520531
C22   C     C_R   0.824317 0.653845 0.548631 0.252124
Cu1   Cu    Cu3+1 0.510010 0.517380 0.684380 1.194732
Cu2   Cu    Cu3+1 0.489990 0.482620 0.315620 1.194910
H1    H     H_    0.756701 0.251260 0.418573 0.129626
H2    H     H_    0.274856 0.212932 0.409949 0.356946
H3    H     H_    0.267590 0.204309 0.024071 0.358091
H4    H     H_    0.732667 0.794243 0.974508 0.358208
H5    H     H_    0.243300 0.748739 0.581442 0.129485
H6    H     H_    0.885362 0.100076 0.373575 0.145796
H7    H     H_    0.114639 0.899924 0.626430 0.145645
H8    H     H_    0.047427 0.091930 0.372291 0.174131
H9    H     H_    0.952573 0.908071 0.627699 0.174147
H10   H     H_    0.487662 0.957138 0.288919 0.169534
H11   H     H_    0.512339 0.042862 0.711080 0.169553
H12   H     H_    0.725143 0.787070 0.590011 0.356893
N1    N     N_2   0.474890 0.456420 0.038520 0.039461
N2    N     N_2   0.525110 0.543580 0.961480 0.039434
O1    O     O_R   0.506510 0.286130 0.619770 -0.487191
O2    O     O_3   0.208206 0.199338 0.404595 -0.703797
O3    O     O_2   0.302509 0.481331 0.942207 -0.285092
O4    O     O_2   0.365654 0.255368 0.754513 -0.296392
O5    O     O_3   0.332484 0.238059 0.069455 -0.499855
O6    O     O_2   0.634367 0.744639 0.245472 -0.295837
O7    O     O_2   0.697482 0.518632 0.057780 -0.285501
O8    O     O_3   0.667530 0.761906 0.930501 -0.499821
O9    O     O_R   0.493490 0.713870 0.380230 -0.487287
O10   O     O_R   0.489600 0.256770 0.308360 -0.479265
O11   O     O_R   0.510400 0.743230 0.691640 -0.479254
O12   O     O_R   0.378710 0.514640 0.655720 -0.448501
O13   O     O_R   0.621290 0.485360 0.344280 -0.448412
O14   O     O_R   0.361800 0.485290 0.344300 -0.465052
O15   O     O_R   0.638200 0.514710 0.655700 -0.465423
O16   O     O_3   0.791792 0.800664 0.595363 -0.703923
S1    S     S_3+6 0.368048 0.359818 0.942045 0.141470
S2    S     S_3+6 0.631958 0.640171 0.057943 0.141543

loop_
_geom_bond_atom_site_label_1
_geom_bond_atom_site_label_2
_ccdc_geom_bond_type
Cu2   O14   S    
C2    C4    A    
Cu1   Cu2   S    
C1    O10   A    
Cu1   O15   S    
N1    N2    D    
C4    C20   S    
C2    O2    S    
O4    S1    D    
C16   H8    S    
Cu1   N2    S    
C9    C11   A    
C9    C10   A    
O6    S2    D    
C11   C22   A    
C20   O12   A    
H2    O2    S    
Cu2   O13   S    
C12   O11   A    
N2    S2    S    
C22   O16   S    
C19   H11   S    
C21   O15   A    
C18   H10   S    
H4    O8    S    
C1    C18   S    
C17   H9    S    
C14   H6    S    
C12   O9    A    
Cu1   O1    S    
C12   C19   S    
O5    S1    S    
Cu2   N1    S    
C8    C15   A    
C7    C9    A    
C8    C10   A    
C14   C16   A    
C3    C21   S    
C4    C6    A    
Cu1   O11   S    
C1    O1    A    
N1    S1    S    
H3    O5    S    
C21   O13   A    
C6    H5    S    
H12   O16   S    
C20   O14   A    
C18   C19   D    
C13   C16   A    
O8    S2    S    
C5    C7    A    
C2    C13   A    
O3    S1    D    
Cu1   O12   S    
C6    C8    A    
C3    C22   A    
C15   C17   A    
Cu2   O9    S    
C15   H7    S    
C10   C13   A    
C7    C14   A    
C11   C17   A    
O7    S2    D    
C3    C5    A    
C5    H1    S    
Cu2   O10   S    
