data_mof_unit_12960.cif
_audit_creation_date              2012-12-10T16:52:39-0500
_audit_creation_method            fapswitch 2.2
_symmetry_space_group_name_H-M    P1
_symmetry_Int_Tables_number       1
_space_group_crystal_system       triclinic
_cell_length_a                    7.833215
_cell_length_b                    8.618241
_cell_length_c                    13.741073
_cell_angle_alpha                 93.629364
_cell_angle_beta                  92.582031
_cell_angle_gamma                 94.068731
_cell_volume                      922.301716679

loop_
_atom_site_label
_atom_site_type_symbol
_atom_type_description
_atom_site_fract_x
_atom_site_fract_y
_atom_site_fract_z
_atom_type_partial_charge
C1    C     C_R   0.044250 0.794211 0.496406 0.871398
C2    C     C_R   0.936684 0.482338 0.317765 0.859044
C3    C     C_R   0.095765 0.544388 0.787429 -0.184217
C4    C     C_R   0.904235 0.455612 0.212571 -0.184217
C5    C     C_R   0.058160 0.672671 0.945984 -0.187965
C6    C     C_R   0.941840 0.327328 0.054016 -0.187965
C7    C     C_R   0.004717 0.645814 0.847857 0.440171
C8    C     C_R   0.995283 0.354186 0.152143 0.440171
C9    C     C_R   0.236684 0.475901 0.825942 -0.310253
C10   C     C_R   0.763316 0.524099 0.174058 -0.310253
C11   C     C_R   0.306542 0.521587 0.919133 0.096282
C12   C     C_R   0.955750 0.205789 0.503594 0.871398
C13   C     C_R   0.693458 0.478413 0.080867 0.096282
C14   C     C_R   0.210432 0.615347 0.981220 0.063104
C15   C     C_R   0.789568 0.384653 0.018780 0.063104
C16   C     C_R   0.469984 0.478326 0.951272 0.092683
C17   C     C_R   0.530016 0.521674 0.048728 0.092683
C18   C     C_R   0.422484 0.602536 0.111661 -0.162408
C19   C     C_R   0.577516 0.397464 0.888339 -0.162408
C20   C     C_R   0.267606 0.651549 0.077552 -0.178955
C21   C     C_R   0.732394 0.348451 0.922448 -0.178955
C22   C     C_2   0.059722 0.955166 0.480927 0.186053
C23   C     C_2   0.940277 0.044834 0.519073 0.186053
C24   C     C_R   0.063316 0.517661 0.682235 0.859044
H1    H     H_    0.191737 0.717541 0.127130 0.151148
H2    H     H_    0.512360 0.625873 0.572452 0.211171
H3    H     H_    0.114620 0.251851 0.253539 0.359249
H4    H     H_    0.885380 0.748148 0.746461 0.359249
H5    H     H_    0.245900 0.926118 0.392013 0.345360
H6    H     H_    0.754101 0.073882 0.607987 0.345360
H7    H     H_    0.808263 0.282459 0.872870 0.151148
H8    H     H_    0.707473 0.610564 0.220162 0.170249
H9    H     H_    0.292527 0.389436 0.779838 0.170249
H10   H     H_    0.986028 0.746322 0.993274 0.167475
H11   H     H_    0.013972 0.253678 0.006726 0.167475
H12   H     H_    0.452817 0.629534 0.188303 0.148429
H13   H     H_    0.547183 0.370466 0.811697 0.148428
H14   H     H_    0.487640 0.374127 0.427548 0.211171
N1    N     N_2   0.440860 0.456490 0.474790 -0.163091
N2    N     N_2   0.559140 0.543510 0.525210 -0.163091
O1    O     O_R   0.891570 0.738930 0.506190 -0.557305
O2    O     O_3   0.867750 0.723321 0.814709 -0.752773
O3    O     O_3   0.180583 0.012293 0.418524 -0.779489
O4    O     O_3   0.819417 0.987707 0.581476 -0.779490
O5    O     O_R   0.108430 0.261070 0.493810 -0.557305
O6    O     O_R   0.174650 0.711050 0.490030 -0.640030
O7    O     O_R   0.825350 0.288950 0.509970 -0.640030
O8    O     O_R   0.909850 0.521900 0.644940 -0.607287
O9    O     O_R   0.090150 0.478100 0.355060 -0.607287
O10   O     O_R   0.192930 0.494020 0.628780 -0.615498
O11   O     O_R   0.807070 0.505980 0.371220 -0.615498
O12   O     O_3   0.132249 0.276679 0.185291 -0.752773
Zn1   Zn    Zn3+2 0.810990 0.518620 0.510790 0.977456
Zn2   Zn    Zn3+2 0.189010 0.481380 0.489210 0.977456

loop_
_geom_bond_atom_site_label_1
_geom_bond_atom_site_label_2
_ccdc_geom_bond_type
C2    C4    S    
C3    C9    A    
C2    O9    A    
C10   H8    S    
C21   H7    S    
C11   C16   A    
C8    O12   S    
C18   C20   A    
C22   O3    S    
C13   C17   A    
C4    C8    A    
H6    O4    S    
C5    H10   S    
O6    Zn2   S    
C17   C18   A    
O1    Zn1   S    
C1    C22   S    
H5    O3    S    
C9    H9    S    
C9    C11   A    
C12   C23   S    
H2    N2    S    
C3    C24   S    
O10   Zn2   S    
C18   H12   S    
C12   O7    A    
O7    Zn1   S    
H4    O2    S    
C19   C21   A    
O5    Zn2   S    
C3    C7    A    
C13   C15   A    
C24   O10   A    
O8    Zn1   S    
C11   C14   A    
C1    O6    A    
N1    Zn2   S    
C2    O11   A    
C4    C10   A    
O9    Zn2   S    
C24   O8    A    
C14   C20   A    
C15   C21   A    
H14   N1    S    
H3    O12   S    
N2    Zn1   S    
C20   H1    S    
C7    O2    S    
C1    O1    A    
N1    N2    D    
C5    C7    A    
C22   C23   D    
C16   C17   A    
C6    C8    A    
C19   H13   S    
C6    C15   A    
C5    C14   A    
C6    H11   S    
C23   O4    S    
C12   O5    A    
O11   Zn1   S    
C10   C13   A    
C16   C19   A    
