data_mof_unit_52673.cif
_audit_creation_date              2012-12-10T19:03:41-0500
_audit_creation_method            fapswitch 2.2
_symmetry_space_group_name_H-M    P1
_symmetry_Int_Tables_number       1
_space_group_crystal_system       triclinic
_cell_length_a                    15.870922
_cell_length_b                    10.887386
_cell_length_c                    9.553422
_cell_angle_alpha                 89.409517
_cell_angle_beta                  89.974654
_cell_angle_gamma                 90.354415
_cell_volume                      1650.64359769

loop_
_atom_site_label
_atom_site_type_symbol
_atom_type_description
_atom_site_fract_x
_atom_site_fract_y
_atom_site_fract_z
_atom_type_partial_charge
C1    C     C_R   0.501838 0.263018 0.500534 0.819427
C2    C     C_3   0.950516 0.411849 0.613531 -0.370841
C3    C     C_3   0.917087 0.502434 0.500702 0.308109
C4    C     C_3   0.950817 0.632807 0.533827 -0.441033
C5    C     C_3   0.048950 0.634485 0.532221 -0.126606
C6    C     C_1   0.824945 0.501584 0.500184 -0.100851
C7    C     C_1   0.175051 0.501165 0.500526 -0.076905
C8    C     C_1   0.250599 0.500301 0.500130 -0.128942
C9    C     C_R   0.496618 0.060290 0.619330 0.111382
C10   C     C_R   0.505721 0.131000 0.499248 -0.137405
C11   C     C_R   0.516621 0.069307 0.372011 -0.211832
C12   C     C_R   0.340241 0.499817 0.500068 0.841737
C13   C     C_R   0.511846 0.940493 0.365442 0.003096
C14   C     C_R   0.501100 0.870799 0.492673 -0.183595
C15   C     C_R   0.494730 0.936542 0.616247 0.119396
C16   C     C_3   0.481320 0.924795 0.770869 -0.206946
C17   C     C_3   0.482159 0.066634 0.773154 -0.462081
C18   C     C_R   0.547587 0.583125 0.071685 0.146093
C19   C     C_R   0.447164 0.423885 0.076094 0.570846
C20   C     C_R   0.447546 0.425035 0.925771 -0.162057
C21   C     C_R   0.545253 0.586083 0.924944 0.208412
C22   C     C_3   0.637288 0.611809 0.912814 -0.484695
C23   C     C_R   0.499706 0.737541 0.498307 0.795070
C24   C     C_3   0.641621 0.602330 0.071703 -0.246106
C25   C     C_R   0.659755 0.500227 0.499944 0.822596
C26   C     C_3   0.048067 0.410071 0.612227 -0.392900
C27   C     C_3   0.048868 0.463629 0.356400 -0.392357
C28   C     C_3   0.951235 0.463603 0.355866 -0.376641
C29   C     C_1   0.749392 0.500895 0.499999 -0.186221
C30   C     C_3   0.082755 0.502867 0.501671 0.237000
Cu1   Cu    Cu3+1 0.500000 0.499980 0.640670 0.959424
Cu2   Cu    Cu3+1 0.500000 0.500020 0.359330 1.002990
H1    H     H_    0.925834 0.317685 0.593781 0.175590
H2    H     H_    0.072605 0.431624 0.718194 0.156143
H3    H     H_    0.927967 0.439413 0.718929 0.163403
H4    H     H_    0.926974 0.699639 0.454466 0.166326
H5    H     H_    0.525960 0.121473 0.275979 0.198822
H6    H     H_    0.535912 0.882336 0.825424 0.150723
H7    H     H_    0.420591 0.109465 0.798055 0.207678
H8    H     H_    0.537279 0.105916 0.829201 0.208263
H9    H     H_    0.069914 0.315805 0.587341 0.184110
H10   H     H_    0.406031 0.365437 0.867850 0.149994
H11   H     H_    0.672250 0.538790 0.857388 0.231909
H12   H     H_    0.649840 0.706274 0.872426 0.177542
H13   H     H_    0.660686 0.689824 0.122006 0.151625
H14   H     H_    0.072719 0.527524 0.273522 0.167665
H15   H     H_    0.071901 0.370189 0.330484 0.178303
H16   H     H_    0.927502 0.370194 0.329717 0.175374
H17   H     H_    0.928226 0.527835 0.273124 0.158469
H18   H     H_    0.069806 0.696544 0.445137 0.164247
H19   H     H_    0.925672 0.662294 0.637001 0.159168
N1    N     N_R   0.500530 0.500930 0.147930 -0.215291
N2    N     N_R   0.500530 0.500890 0.852020 -0.197509
O1    O     O_R   0.500000 0.319640 0.618810 -0.582409
O2    O     O_R   0.500010 0.319680 0.381230 -0.553510
O3    O     O_R   0.379430 0.499990 0.618840 -0.581812
O4    O     O_R   0.379440 0.500030 0.381260 -0.536230
O5    O     O_R   0.499990 0.680320 0.618770 -0.580314
O6    O     O_R   0.500000 0.680360 0.381190 -0.614437
O7    O     O_R   0.620560 0.499970 0.618740 -0.578880
O8    O     O_R   0.620570 0.500010 0.381160 -0.574101
C31   C     C_2   0.514386 0.886482 0.223335 0.332212
H20   H     H_    0.471896 0.812804 0.194379 0.093517
O9    O     O_2   0.562108 0.928103 0.134179 -0.578421
C32   C     C_2   0.397809 0.867663 0.810010 0.446924
H21   H     H_    0.395103 0.800273 0.894371 0.047959
O10   O     O_2   0.333045 0.896559 0.749297 -0.507708
O11   O     O_3   0.389107 0.354359 0.152293 -0.557309
C33   C     C_3   0.382852 0.231449 0.106041 0.042748
H22   H     H_    0.386849 0.170552 0.199510 0.181005
H23   H     H_    0.434600 0.202640 0.034909 0.125298
C34   C     C_3   0.296963 0.208480 0.039475 -0.821353
H24   H     H_    0.287237 0.269386 0.947307 0.236651
H25   H     H_    0.292450 0.111459 0.005366 0.231565
H26   H     H_    0.246326 0.225922 0.116919 0.256657
C35   C     C_2   0.693231 0.493334 0.118388 0.465672
H27   H     H_    0.752317 0.508721 0.172688 0.041629
O12   O     O_2   0.670923 0.388316 0.092779 -0.538658
C36   C     C_2   0.083216 0.686183 0.667191 0.371453
H28   H     H_    0.066491 0.644233 0.766974 0.066843
O13   O     O_2   0.129504 0.776160 0.665260 -0.505112

loop_
_geom_bond_atom_site_label_1
_geom_bond_atom_site_label_2
_ccdc_geom_bond_type
C2    H3    S    
Cu1   O7    S    
C23   O5    A    
C4    H4    S    
C18   C21   A    
C19   C20   A    
C3    C6    S    
C18   N1    A    
C7    C8    T    
C23   O6    A    
C18   C24   S    
C24   H13   S    
Cu1   O5    S    
C3    C28   S    
C35   O12   D    
Cu2   O8    S    
C15   C16   S    
C11   H5    S    
C17   H7    S    
C33   H23   S    
Cu2   N1    S    
C31   O9    D    
O11   C33   S    
C19   N1    A    
C26   H2    S    
C22   H12   S    
C13   C31   S    
Cu1   Cu2   S    
C16   C17   S    
C32   O10   D    
C25   O7    A    
Cu1   O3    S    
C5    C36   S    
C9    C10   A    
Cu2   O2    S    
C7    C30   S    
C13   C14   A    
C27   C30   S    
Cu2   O4    S    
C34   H26   S    
C25   C29   S    
C4    H19   S    
C35   H27   S    
C34   H25   S    
C36   O13   D    
C24   C35   S    
C17   H8    S    
C14   C23   S    
C33   C34   S    
C1    O1    A    
C31   H20   S    
C28   H17   S    
C22   H11   S    
C8    C12   S    
C19   O11   S    
C2    C26   S    
C25   O8    A    
Cu1   N2    S    
C12   O3    A    
C12   O4    A    
C20   N2    A    
C27   H14   S    
C9    C17   S    
C26   C30   S    
C22   C24   S    
C5    H18   S    
C3    C4    S    
C2    H1    S    
C5    C30   S    
C27   H15   S    
C28   H16   S    
C1    C10   S    
C34   H24   S    
C20   H10   S    
C2    C3    S    
C1    O2    A    
C21   N2    A    
C11   C13   A    
Cu1   O1    S    
C9    C15   A    
C33   H22   S    
C10   C11   A    
C36   H28   S    
C4    C5    S    
C6    C29   T    
C32   H21   S    
C27   C28   S    
C14   C15   A    
C16   C32   S    
Cu2   O6    S    
C21   C22   S    
C26   H9    S    
C16   H6    S    
