data_mof_unit_58806.cif
_audit_creation_date              2013-03-05T16:30:34-0500
_audit_creation_method            fapswitch 2.2
_symmetry_space_group_name_H-M    P1
_symmetry_Int_Tables_number       1
_space_group_crystal_system       triclinic
_cell_length_a                    8.72225
_cell_length_b                    10.914872
_cell_length_c                    9.570457
_cell_angle_alpha                 91.246853
_cell_angle_beta                  97.798841
_cell_angle_gamma                 90.801091
_cell_volume                      902.355921033

loop_
_atom_site_label
_atom_site_type_symbol
_atom_site_description
_atom_site_fract_x
_atom_site_fract_y
_atom_site_fract_z
_atom_type_partial_charge
O1    O     O_R   0.500000 0.319640 0.618810 -0.566553
O2    O     O_R   0.500020 0.319680 0.381230 -0.595412
C1    C     C_R   0.497856 0.263042 0.498351 0.804478
O3    O     O_R   0.274830 0.499980 0.591380 -0.595687
O4    O     O_R   0.274850 0.500020 0.353800 -0.568971
C2    C     C_R   0.204008 0.496288 0.463968 0.878363
Cu1   Cu    Cu3+1 0.499990 0.499980 0.640670 1.010065
Cu2   Cu    Cu3+1 0.500010 0.500020 0.359330 1.007118
O5    O     O_R   0.499980 0.680320 0.618770 -0.591014
O6    O     O_R   0.500000 0.680360 0.381190 -0.581053
O7    O     O_R   0.725150 0.499980 0.646200 -0.537813
O8    O     O_R   0.725170 0.500020 0.408620 -0.566775
C3    C     C_R   0.499510 0.737663 0.500969 0.840457
C4    C     C_R   0.796056 0.498949 0.536104 0.924551
C5    C     C_2   0.038239 0.487171 0.444975 -0.297940
H1    H     H_    0.978443 0.468708 0.339562 0.215732
C6    C     C_2   0.962080 0.499792 0.555992 -0.315688
H2    H     H_    0.022276 0.513509 0.662242 0.215557
C7    C     C_R   0.501388 0.067101 0.619028 0.096050
C8    C     C_R   0.493925 0.130969 0.495215 -0.098432
C9    C     C_R   0.483351 0.061966 0.368067 -0.176908
H3    H     H_    0.475207 0.106658 0.267448 0.178647
C10   C     C_R   0.483224 0.933204 0.370406 -0.126676
H4    H     H_    0.473018 0.883299 0.270804 0.167865
C11   C     C_R   0.496085 0.871000 0.499844 -0.063997
C12   C     C_R   0.504010 0.943556 0.622179 0.075700
C13   C     C_3   0.521606 0.945173 0.779653 -0.498035
C14   C     C_3   0.514851 0.085262 0.774379 0.113090
H5    H     H_    0.421109 0.902352 0.821184 0.189002
H6    H     H_    0.637836 0.915108 0.825561 0.260347
H7    H     H_    0.408794 0.124329 0.809031 0.132282
C15   C     C_R   0.621723 0.550492 0.090413 0.159157
N1    N     N_R   0.500980 0.500930 0.148050 -0.217068
C16   C     C_R   0.387354 0.440319 0.058827 -0.017984
H8    H     H_    0.294684 0.393523 0.101630 0.155052
C17   C     C_R   0.386992 0.440733 0.910174 -0.022696
H9    H     H_    0.293898 0.394441 0.842116 0.147594
N2    N     N_R   0.500990 0.500890 0.852140 -0.214683
C18   C     C_R   0.623551 0.547652 0.942606 0.217618
C19   C     C_3   0.678696 0.677161 0.943647 0.016075
C20   C     C_3   0.670490 0.682656 0.101667 0.044569
H10   H     H_    0.591348 0.731878 0.880694 0.087984
H11   H     H_    0.577446 0.743310 0.129143 0.094512
N3    N     N_R   0.834780 0.691368 0.904757 0.189998
O9    O     O_R   0.894245 0.800680 0.898022 -0.316515
O10   O     O_R   0.919110 0.596556 0.885739 -0.335659
N4    N     N_R   0.818218 0.704958 0.192059 0.187445
O11   O     O_R   0.828169 0.790366 0.289912 -0.339821
O12   O     O_R   0.939251 0.639865 0.178237 -0.318397
Br1   Br    Br    0.708324 0.166108 0.853822 -0.445527

loop_
_geom_bond_atom_site_label_1
_geom_bond_atom_site_label_2
_geom_bond_distance
_ccdc_geom_bond_type
O4    Cu2   1.957423 S    
C15   C20   1.495709 S    
C5    C6    1.332976 D    
C13   H5    1.111740 S    
N4    O11   1.300485 A    
Cu2   O8    1.956530 S    
C10   H4    1.079959 S    
C15   N1    1.364096 A    
C19   H10   1.097237 S    
N1    C16   1.369832 A    
C20   N4    1.465426 S    
C1    C8    1.441053 S    
N4    O12   1.300583 A    
C9    H3    1.083120 S    
N3    O9    1.300704 A    
C13   H6    1.105980 S    
Cu1   O7    1.957423 S    
C7    C14   1.484163 S    
C20   H11   1.109685 S    
C4    C6    1.434600 S    
C3    C11   1.456323 S    
C12   C13   1.493723 S    
N2    C18   1.366466 A    
O3    Cu1   1.956531 S    
C17   N2    1.369593 A    
C19   C20   1.523617 S    
C11   C12   1.392426 A    
Cu1   N2    2.022507 S    
O8    C4    1.291165 A    
C6    H2    1.085530 S    
C16   C17   1.422357 A    
Cu2   N1    2.023450 S    
C10   C11   1.417448 A    
C9    C10   1.406080 A    
O4    C2    1.293488 A    
Cu2   O6    1.974944 S    
O7    C4    1.292040 A    
Cu1   Cu2   2.692586 S    
C5    H1    1.084359 S    
C18   C19   1.486175 S    
C19   N3    1.466328 S    
C8    C9    1.408625 A    
O3    C2    1.289518 A    
C16   H8    1.081415 S    
C15   C18   1.416507 A    
C13   C14   1.532671 S    
Cu1   O5    1.984046 S    
C7    C12   1.349920 A    
O5    C3    1.300899 A    
C17   H9    1.081456 S    
O2    C1    1.294029 A    
C2    C5    1.434355 S    
O1    Cu1   1.974944 S    
C14   Br1   1.945617 S    
C14   H7    1.111607 S    
O2    Cu2   1.984045 S    
C7    C8    1.382240 A    
N3    O10   1.301740 A    
O1    C1    1.293781 A    
O6    C3    1.294418 A    
