data_mof_unit_31382.cif
_audit_creation_date              2012-12-10T18:21:15-0500
_audit_creation_method            fapswitch 2.2
_symmetry_space_group_name_H-M    P1
_symmetry_Int_Tables_number       1
_space_group_crystal_system       triclinic
_cell_length_a                    15.01677
_cell_length_b                    13.999692
_cell_length_c                    10.674045
_cell_angle_alpha                 90.051101
_cell_angle_beta                  89.163802
_cell_angle_gamma                 91.088669
_cell_volume                      2243.36170597

loop_
_atom_site_label
_atom_site_type_symbol
_atom_type_description
_atom_site_fract_x
_atom_site_fract_y
_atom_site_fract_z
_atom_type_partial_charge
C1    C     C_R   0.326685 0.498886 0.502401 0.908815
C2    C     C_3   0.586574 0.526315 0.926538 -0.525448
C3    C     C_R   0.817059 0.565503 0.414783 0.051964
C4    C     C_R   0.768541 0.503429 0.494788 -0.137605
C5    C     C_R   0.810201 0.441586 0.575107 -0.250763
C6    C     C_R   0.902111 0.439302 0.579404 0.079499
C7    C     C_R   0.953027 0.501305 0.501150 -0.060665
C8    C     C_R   0.910716 0.565879 0.418262 0.127815
C9    C     C_R   0.943028 0.376057 0.661484 0.084723
C10   C     C_R   0.035777 0.372102 0.665402 0.052551
C11   C     C_R   0.088966 0.432770 0.585798 0.058394
C12   C     C_R   0.496262 0.499541 0.257919 0.898693
C13   C     C_R   0.046174 0.498492 0.505436 -0.003041
C14   C     C_R   0.096628 0.561736 0.428423 0.122094
C15   C     C_R   0.055759 0.625636 0.348926 -0.290628
C16   C     C_R   0.963673 0.628495 0.342393 0.113718
C17   C     C_R   0.182979 0.430713 0.582451 0.033734
C18   C     C_R   0.230920 0.496153 0.505639 -0.100004
C19   C     C_R   0.188181 0.561011 0.430830 -0.269699
C20   C     C_R   0.549284 0.799037 0.411835 -0.072369
C21   C     C_R   0.549412 0.202861 0.411956 -0.045028
C22   C     C_R   0.450701 0.797143 0.588131 -0.061089
C23   C     C_R   0.450491 0.200953 0.587818 -0.078942
C24   C     C_R   0.449469 0.897817 0.590234 0.013444
C25   C     C_R   0.449360 0.100266 0.590070 0.018457
C26   C     C_R   0.673128 0.501043 0.496404 0.880640
C27   C     C_R   0.499974 0.949378 0.499964 0.085015
C28   C     C_R   0.499955 0.050626 0.499926 0.085355
C29   C     C_R   0.550466 0.899741 0.409690 0.019111
C30   C     C_R   0.550495 0.102193 0.409698 0.011404
C31   C     C_R   0.399193 0.947917 0.679929 -0.208230
C32   C     C_R   0.399111 0.048294 0.679819 -0.212819
C33   C     C_R   0.600657 0.052106 0.319886 -0.209883
C34   C     C_R   0.600636 0.951736 0.319875 -0.209404
C35   C     C_R   0.496552 0.499721 0.742286 0.904097
C36   C     C_3   0.419694 0.568523 0.074923 -0.094551
C37   C     C_3   0.477736 0.392797 0.072034 -0.065658
C38   C     C_3   0.426784 0.576022 0.929452 -0.086247
C39   C     C_3   0.469461 0.394840 0.928157 -0.080858
C40   C     C_3   0.584140 0.533766 0.070372 -0.542012
C41   C     C_3   0.491905 0.497801 0.122039 0.115066
C42   C     C_3   0.492246 0.498561 0.878454 0.111805
H1    H     H_    0.095631 0.673922 0.290574 0.141843
H2    H     H_    0.412299 0.756090 0.656585 0.141209
H3    H     H_    0.411863 0.240499 0.655849 0.136458
H4    H     H_    0.639891 0.090529 0.249693 0.139182
H5    H     H_    0.639866 0.914802 0.249685 0.141091
H6    H     H_    0.459960 0.646579 0.909816 0.152435
H7    H     H_    0.522526 0.347041 0.891187 0.143515
H8    H     H_    0.596898 0.609348 0.098614 0.193974
H9    H     H_    0.638906 0.490840 0.109432 0.176429
H10   H     H_    0.610184 0.595829 0.886274 0.198030
H11   H     H_    0.635744 0.471844 0.896952 0.183692
H12   H     H_    0.769569 0.395484 0.635370 0.184280
N1    N     N_R   0.500070 0.750030 0.500050 -0.103027
N2    N     N_R   0.500070 0.249970 0.500050 -0.100779
O1    O     O_R   0.367860 0.580280 0.500020 -0.614133
O2    O     O_R   0.367860 0.419720 0.500020 -0.625245
O3    O     O_R   0.500000 0.580270 0.314790 -0.644316
O4    O     O_R   0.500000 0.419730 0.314790 -0.609964
O5    O     O_R   0.632160 0.580270 0.499960 -0.627766
O6    O     O_R   0.632160 0.419730 0.499960 -0.622848
O7    O     O_R   0.500030 0.580270 0.685200 -0.625977
O8    O     O_R   0.500030 0.419730 0.685200 -0.627098
Zn1   Zn    Zn3+2 0.500020 0.607200 0.499990 0.940120
Zn2   Zn    Zn3+2 0.500020 0.392800 0.499990 0.947807
H13   H     H_    0.438283 0.640810 0.111671 0.144320
H14   H     H_    0.540894 0.354993 0.091428 0.138818
N3    N     N_3   0.072300 0.306186 0.752962 -0.479324
H15   H     H_    0.107291 0.253360 0.704965 0.208881
H16   H     H_    0.112138 0.342992 0.817153 0.205848
N4    N     N_3   0.229855 0.364006 0.657614 -0.497465
H17   H     H_    0.277920 0.400857 0.709069 0.202082
H18   H     H_    0.259927 0.313580 0.599429 0.212414
H19   H     H_    0.226898 0.610012 0.371823 0.160361
N5    N     N_3   0.925409 0.696210 0.259123 -0.436139
H20   H     H_    0.947646 0.764639 0.284678 0.180902
H21   H     H_    0.948933 0.682437 0.168317 0.182479
H22   H     H_    0.587453 0.759476 0.343148 0.123084
H23   H     H_    0.587834 0.243912 0.343537 0.130134
H24   H     H_    0.359947 0.909498 0.750116 0.138163
H25   H     H_    0.359814 0.085260 0.749918 0.135253
N6    N     N_3   0.330228 0.546114 0.125870 -0.472005
H26   H     H_    0.295337 0.498525 0.069180 0.183032
H27   H     H_    0.293519 0.608860 0.128335 0.172457
N7    N     N_3   0.408253 0.336068 0.138695 -0.430819
H28   H     H_    0.345581 0.365925 0.136011 0.198077
H29   H     H_    0.404946 0.267012 0.101484 0.175186
N8    N     N_3   0.341946 0.580242 0.862734 -0.472382
H30   H     H_    0.303714 0.635054 0.900829 0.179304
H31   H     H_    0.304966 0.517039 0.868422 0.186722
N9    N     N_3   0.384800 0.356235 0.880522 -0.473616
H32   H     H_    0.386227 0.281597 0.882837 0.169073
H33   H     H_    0.330639 0.376383 0.935494 0.177395
N10   N     N_3   0.771633 0.624863 0.327438 -0.434609
H34   H     H_    0.726968 0.582957 0.275839 0.168176
H35   H     H_    0.737147 0.677395 0.376628 0.208795
N11   N     N_3   0.889552 0.314799 0.741672 -0.476962
H36   H     H_    0.905031 0.243797 0.721940 0.202467
H37   H     H_    0.905729 0.329356 0.834799 0.199532

loop_
_geom_bond_atom_site_label_1
_geom_bond_atom_site_label_2
_ccdc_geom_bond_type
O7    Zn1   S    
C9    N11   S    
C23   H3    S    
C27   C29   A    
N10   H34   S    
C24   C27   A    
C6    C9    A    
C36   H13   S    
C23   N2    A    
C25   C28   A    
C38   N8    S    
C1    C18   S    
C26   O5    A    
N5    H21   S    
C38   C42   S    
C5    C6    A    
C40   H8    S    
C36   N6    S    
C15   C16   A    
C37   H14   S    
C18   C19   A    
N3    H16   S    
C35   C42   S    
C12   O3    A    
O2    Zn2   S    
C22   H2    S    
C31   C32   A    
C2    C40   S    
C35   O8    A    
N8    H31   S    
C9    C10   A    
C38   H6    S    
C20   H22   S    
C25   C32   A    
O4    Zn2   S    
C8    C16   A    
C13   C14   A    
C33   H4    S    
C36   C41   S    
C20   N1    A    
N1    Zn1   S    
C33   C34   A    
C39   C42   S    
C20   C29   A    
O6    Zn2   S    
C37   N7    S    
C7    C8    A    
N5    H20   S    
N4    H18   S    
C3    C8    A    
N7    H28   S    
C4    C5    A    
C29   C34   A    
O8    Zn2   S    
C12   C41   S    
C1    O1    A    
C5    H12   S    
N6    H26   S    
N9    H33   S    
C17   C18   A    
C22   N1    A    
C2    H10   S    
C40   C41   S    
N6    H27   S    
N11   H37   S    
C22   C24   A    
C3    C4    A    
C39   N9    S    
C11   C17   A    
C30   C33   A    
C39   H7    S    
C16   N5    S    
C14   C19   A    
O1    Zn1   S    
N4    H17   S    
C2    H11   S    
C21   N2    A    
C4    C26   S    
N10   H35   S    
C6    C7    A    
C40   H9    S    
C32   H25   S    
C21   C30   A    
C31   H24   S    
C19   H19   S    
C26   O6    A    
C24   C31   A    
C15   H1    S    
C28   C30   A    
C37   C39   S    
C1    O2    A    
O3    Zn1   S    
C11   C13   A    
C2    C42   S    
N2    Zn2   S    
C21   H23   S    
C36   C38   S    
N9    H32   S    
N7    H29   S    
C23   C25   A    
C37   C41   S    
N3    H15   S    
C10   C11   A    
C12   O4    A    
C10   N3    S    
O5    Zn1   S    
C7    C13   A    
C17   N4    S    
C3    N10   S    
N11   H36   S    
C27   C28   A    
C14   C15   A    
C35   O7    A    
C34   H5    S    
N8    H30   S    
