data_mof_unit_45225.cif
_audit_creation_date              2012-12-11T15:21:32-0500
_audit_creation_method            fapswitch 2.2
_symmetry_space_group_name_H-M    P1
_symmetry_Int_Tables_number       1
_space_group_crystal_system       triclinic
_cell_length_a                    19.150138
_cell_length_b                    7.147636
_cell_length_c                    17.661477
_cell_angle_alpha                 89.999309
_cell_angle_beta                  108.9874
_cell_angle_gamma                 89.99964
_cell_volume                      2285.93719726

loop_
_atom_site_label
_atom_site_type_symbol
_atom_type_description
_atom_site_fract_x
_atom_site_fract_y
_atom_site_fract_z
_atom_type_partial_charge
O1    O     O_R   0.562310 0.505770 0.439670 -0.537683
O2    O     O_R   0.437690 0.005770 0.560330 -0.537675
O3    O     O_R   0.411650 0.169150 0.405330 -0.536488
O4    O     O_R   0.588350 0.669150 0.594670 -0.536487
C1    C     C_R   0.384617 0.345908 0.382661 0.626423
C2    C     C_R   0.615380 0.845906 0.617343 0.626418
O5    O     O_R   0.560140 0.175610 0.430010 -0.537780
O6    O     O_R   0.439860 0.675610 0.569990 -0.537768
O7    O     O_R   0.587240 0.012100 0.585200 -0.539860
O8    O     O_R   0.412760 0.512100 0.414800 -0.539861
C3    C     C_R   0.580818 0.344624 0.414640 0.698629
C4    C     C_R   0.419182 0.844622 0.585360 0.698620
O9    O     O_3   0.508720 0.341420 0.550890 -0.370652
O10   O     O_3   0.491280 0.841420 0.449110 -0.370661
V1    V     V_3+5 0.498380 0.063930 0.490560 1.386753
V2    V     V_3+5 0.501620 0.563930 0.509440 1.386767
C5    C     C_R   0.181374 0.060821 0.868762 -0.183422
C6    C     C_R   0.818639 0.560869 0.131250 -0.183451
C7    C     C_R   0.130446 0.916622 0.865369 -0.089866
C8    C     C_R   0.869545 0.416610 0.134621 -0.089854
C9    C     C_R   0.128151 0.760742 0.816114 -0.190672
C10   C     C_R   0.871811 0.260670 0.183843 -0.190647
C11   C     C_R   0.175329 0.749022 0.769905 0.129923
C12   C     C_R   0.824623 0.248941 0.230039 0.129963
C13   C     C_R   0.226595 0.893905 0.773772 0.033149
C14   C     C_R   0.773384 0.393879 0.226202 0.033160
C15   C     C_R   0.230422 0.050436 0.824175 0.047050
C16   C     C_R   0.769583 0.550475 0.175829 0.047020
C17   C     C_R   0.172870 0.592989 0.720777 -0.165188
C18   C     C_R   0.827061 0.092873 0.279143 -0.165147
C19   C     C_R   0.221119 0.579111 0.676222 -0.183794
C20   C     C_R   0.778807 0.078998 0.323692 -0.183815
C21   C     C_R   0.272181 0.721982 0.679223 0.114093
C22   C     C_R   0.727768 0.221911 0.320716 0.114093
C23   C     C_R   0.274742 0.880499 0.727884 0.060702
C24   C     C_R   0.725242 0.380483 0.272096 0.060720
C25   C     C_R   0.325622 0.025062 0.730904 0.050036
C26   C     C_R   0.674398 0.525125 0.269119 0.050016
C27   C     C_R   0.329766 0.178523 0.781608 -0.194576
C28   C     C_R   0.670259 0.678638 0.218423 -0.194587
C29   C     C_R   0.283852 0.190668 0.829105 0.161143
C30   C     C_R   0.716170 0.690764 0.170917 0.161153
C31   C     C_R   0.320525 0.709249 0.634210 -0.219318
C32   C     C_R   0.679415 0.209175 0.365719 -0.219351
C33   C     C_R   0.370300 0.855034 0.635514 -0.080494
C34   C     C_R   0.629698 0.355042 0.364482 -0.080504
C35   C     C_R   0.372309 0.012684 0.683995 -0.194842
C36   C     C_R   0.627734 0.512770 0.316054 -0.194875
H1    H     H_    0.182991 0.179136 0.907416 0.157345
H2    H     H_    0.817048 0.679248 0.092626 0.157352
H3    H     H_    0.089177 0.648797 0.813320 0.123746
H4    H     H_    0.910777 0.148698 0.186630 0.123753
H5    H     H_    0.134217 0.480197 0.717643 0.123378
H6    H     H_    0.865710 0.980062 0.282273 0.123374
H7    H     H_    0.218534 0.456270 0.639441 0.122440
H8    H     H_    0.781382 0.956151 0.360463 0.122452
H9    H     H_    0.318248 0.587694 0.596736 0.119188
H10   H     H_    0.681643 0.087550 0.403132 0.119236
H11   H     H_    0.411059 0.124772 0.686113 0.130343
H12   H     H_    0.589035 0.624942 0.313993 0.130367
H13   H     H_    0.369764 0.288361 0.785424 0.160325
H14   H     H_    0.630262 0.788513 0.214613 0.160314
C37   C     C_3   0.751964 0.812760 0.838237 -0.301467
C38   C     C_3   0.248065 0.313038 0.161746 -0.301409
H15   H     H_    0.772209 0.673588 0.864539 0.145328
H16   H     H_    0.227888 0.173811 0.135469 0.145352
H17   H     H_    0.740121 0.896328 0.885819 0.154108
H18   H     H_    0.259832 0.396684 0.114140 0.154048
C39   C     C_3   0.679368 0.785354 0.766574 -0.321294
C40   C     C_3   0.320699 0.285852 0.233383 -0.321267
H19   H     H_    0.632892 0.855507 0.780026 0.140899
H20   H     H_    0.367097 0.356526 0.219954 0.140948
H21   H     H_    0.665902 0.633676 0.758640 0.145459
H22   H     H_    0.334340 0.134230 0.241230 0.145379
H23   H     H_    0.847715 0.653149 0.767019 0.143893
H24   H     H_    0.152287 0.152938 0.232869 0.143888
H25   H     H_    0.740453 0.614201 0.662372 0.138715
H26   H     H_    0.259654 0.113688 0.337350 0.138803
C41   C     C_3   0.825497 0.793047 0.743512 -0.315250
C42   C     C_3   0.174524 0.292772 0.256446 -0.315283
C43   C     C_3   0.781548 0.104232 0.775695 -0.335264
C44   C     C_3   0.218370 0.604207 0.224399 -0.335247
C45   C     C_3   0.812557 0.912509 0.811568 0.107607
C46   C     C_3   0.187434 0.412503 0.188443 0.107551
H27   H     H_    0.822864 0.178916 0.754709 0.136378
H28   H     H_    0.176998 0.678757 0.245341 0.136327
H29   H     H_    0.770576 0.193064 0.822362 0.145365
H30   H     H_    0.229378 0.693163 0.177788 0.145388
C47   C     C_3   0.687271 0.866802 0.688459 0.106710
C48   C     C_3   0.312724 0.366803 0.311549 0.106723
C49   C     C_3   0.752662 0.766181 0.672156 -0.325386
C50   C     C_3   0.247381 0.265704 0.327760 -0.325267
C51   C     C_3   0.709293 0.078271 0.704791 -0.284202
C52   C     C_3   0.290582 0.578246 0.295365 -0.284211
H31   H     H_    0.664293 0.156176 0.718087 0.147378
H32   H     H_    0.335569 0.656553 0.282205 0.147418
H33   H     H_    0.716555 0.142602 0.650425 0.135506
H34   H     H_    0.283209 0.642154 0.349761 0.135397
H35   H     H_    0.867556 0.861960 0.721854 0.120100
H36   H     H_    0.132487 0.361580 0.278172 0.120153
H37   H     H_    0.759948 0.822589 0.616493 0.122689
H38   H     H_    0.240091 0.321593 0.383510 0.122595
O11   O     O_R   0.087220 0.271820 0.085230 -0.542373
O12   O     O_R   0.912780 0.771820 0.914770 -0.542373
O13   O     O_R   0.939860 0.595540 0.069990 -0.541462
O14   O     O_R   0.060140 0.095540 0.930010 -0.541451
C53   C     C_R   0.919037 0.426595 0.085178 0.700179
C54   C     C_R   0.080962 0.926597 0.914820 0.700196
O15   O     O_R   0.088340 0.601930 0.094680 -0.538649
O16   O     O_R   0.911660 0.101930 0.905320 -0.538651
O17   O     O_R   0.062310 0.765410 0.939660 -0.532198
O18   O     O_R   0.937690 0.265410 0.060340 -0.532208
C55   C     C_R   0.115929 0.431874 0.117787 0.650337
C56   C     C_R   0.884066 0.931879 0.882219 0.650345
O19   O     O_3   0.991270 0.429630 0.949130 -0.373360
O20   O     O_3   0.008730 0.929630 0.050870 -0.373372
V3    V     V_3+5 0.001620 0.707150 0.009440 1.395592
V4    V     V_3+5 0.998380 0.207150 0.990560 1.395604
I1    I     I_    0.302805 0.419688 0.910298 -0.445404
I2    I     I_    0.697231 0.919799 0.089718 -0.445439

loop_
_geom_bond_atom_site_label_1
_geom_bond_atom_site_label_2
_ccdc_geom_bond_type
O18   V4    S    
C37   H15   S    
O4    V2    S    
C46   C55   S    
C44   C52   S    
C48   C52   S    
C53   O18   A    
O1    C3    A    
C42   C46   S    
O2    C4    A    
O16   V4    S    
C2    O7    A    
O15   V3    S    
C27   C29   A    
O5    C3    A    
C18   H6    S    
C17   H5    S    
C11   C17   A    
C41   H35   S    
C23   C25   A    
C12   C14   A    
C38   H18   S    
C52   H34   S    
C43   C51   S    
O20   V3    S    
C6    C8    A    
O6    V2    S    
C39   H19   S    
C38   C46   S    
C5    C7    A    
C37   C39   S    
C32   H10   S    
C41   C45   S    
C40   H22   S    
C19   C21   A    
C39   H21   S    
C38   C40   S    
C25   C35   A    
O16   C56   A    
C41   C49   S    
C1    C48   S    
C50   H38   S    
C8    C53   S    
C7    C54   S    
C28   C30   A    
C28   H14   S    
C51   H31   S    
C42   H36   S    
C45   C56   S    
O13   V3    S    
C40   C48   S    
C49   H37   S    
C39   C47   S    
C43   C45   S    
C32   C34   A    
C43   H27   S    
C36   H12   S    
C34   C36   A    
C33   C35   A    
C27   H13   S    
C37   H17   S    
C5    C15   A    
C6    C16   A    
O4    C2    A    
C5    H1    S    
O5    V1    S    
H26   C50   S    
C44   H28   S    
C37   C45   S    
C38   H16   S    
C42   C50   S    
C18   C20   A    
O13   C53   A    
C15   C29   A    
C48   C50   S    
O6    C4    A    
O19   V4    S    
C22   C32   A    
O1    V2    S    
C29   I1    S    
C52   H32   S    
O2    V1    S    
C31   C33   A    
C43   H29   S    
C13   C23   A    
O12   C56   A    
C14   C24   A    
C8    C10   A    
C44   C46   S    
C9    C11   A    
C10   C12   A    
O11   V4    S    
C47   C49   S    
C51   H33   S    
C9    H3    S    
O3    V1    S    
C6    H2    S    
C10   H4    S    
O12   V3    S    
H25   C49   S    
O11   C55   A    
C26   C36   A    
H24   C42   S    
C4    C33   S    
O3    C1    A    
O15   C55   A    
C13   C15   A    
C2    C47   S    
C14   C16   A    
C54   O17   A    
O17   V3    S    
C24   C26   A    
O7    V1    S    
C1    O8    A    
C17   C19   A    
O8    V2    S    
C26   C28   A    
C30   I2    S    
O14   C54   A    
C44   H30   S    
C16   C30   A    
C21   C23   A    
C22   C24   A    
C11   C13   A    
C47   C51   S    
C12   C18   A    
C31   H9    S    
C35   H11   S    
C25   C27   A    
O9    V2    S    
O10   V1    S    
C3    C34   S    
C40   H20   S    
C19   H7    S    
C21   C31   A    
H23   C41   S    
C20   H8    S    
O14   V4    S    
C20   C22   A    
C7    C9    A    
