data_mof_unit_36732.cif
_audit_creation_date              2012-12-11T15:57:04-0500
_audit_creation_method            fapswitch 2.2
_symmetry_space_group_name_H-M    P1
_symmetry_Int_Tables_number       1
_space_group_crystal_system       triclinic
_cell_length_a                    17.358714
_cell_length_b                    24.472436
_cell_length_c                    14.993705
_cell_angle_alpha                 90.05833
_cell_angle_beta                  126.145914
_cell_angle_gamma                 89.633819
_cell_volume                      5143.32831624

loop_
_atom_site_label
_atom_site_type_symbol
_atom_type_description
_atom_site_fract_x
_atom_site_fract_y
_atom_site_fract_z
_atom_type_partial_charge
C1    C     C_R   0.307337 0.123025 0.908140 0.720487
C2    C     C_R   0.556867 0.153225 0.911424 0.634920
C3    C     C_R   0.813650 0.361701 0.002027 -0.073268
C4    C     C_R   0.560848 0.998527 0.366401 0.178180
C5    C     C_R   0.069857 0.498962 0.370532 0.174549
C6    C     C_R   0.198941 0.000365 0.628641 -0.294766
C7    C     C_R   0.699205 0.500341 0.628350 -0.297718
C8    C     C_R   0.527028 0.045566 0.760949 -0.058523
C9    C     C_R   0.529932 0.954527 0.764794 -0.050227
C10   C     C_R   0.023946 0.545853 0.757309 -0.051578
C11   C     C_R   0.027574 0.454674 0.761188 -0.067217
C12   C     C_R   0.769667 0.953935 0.246285 0.690583
C13   C     C_R   0.053477 0.346120 0.910947 0.595613
C14   C     C_R   0.769998 0.045004 0.246658 0.716110
C15   C     C_R   0.269835 0.454154 0.246214 0.693627
C16   C     C_R   0.269814 0.545230 0.246778 0.715151
C17   C     C_3   0.199387 0.800724 0.253217 0.075775
C18   C     C_3   0.180090 0.200803 0.247206 -0.039415
C19   C     C_3   0.725398 0.291239 0.271784 0.078718
C20   C     C_3   0.683188 0.701385 0.250126 -0.032308
C21   C     C_3   0.867388 0.191633 0.204835 -0.007601
C22   C     C_3   0.874597 0.744028 0.290557 -0.034598
C23   C     C_3   0.364381 0.701739 0.221356 0.005585
C24   C     C_R   0.055270 0.653479 0.911125 0.632230
C25   C     C_3   0.373026 0.242627 0.290766 -0.036307
C26   C     C_3   0.762247 0.100066 0.597677 0.104729
C27   C     C_3   0.748173 0.921829 0.536785 0.097899
C28   C     C_3   0.247427 0.613245 0.591047 0.094248
C29   C     C_3   0.270047 0.430792 0.557469 0.143225
C30   C     C_3   0.320734 0.058620 0.332238 -0.260176
C31   C     C_3   0.358617 0.945211 0.278659 -0.059520
C32   C     C_3   0.837829 0.565320 0.336179 -0.262269
C33   C     C_3   0.832711 0.439174 0.324838 -0.019741
C34   C     C_R   0.561169 0.999852 0.738952 0.125384
C35   C     C_R   0.058386 0.500347 0.735079 0.124085
C36   C     C_R   0.825484 0.999071 0.268900 -0.255849
C37   C     C_R   0.325462 0.499471 0.268823 -0.252173
C38   C     C_R   0.616525 0.184653 0.004440 -0.331217
C39   C     C_R   0.608647 0.812749 0.003420 -0.304553
C40   C     C_R   0.112895 0.685608 0.003732 -0.314030
C41   C     C_R   0.308997 0.875174 0.908702 0.712432
C42   C     C_R   0.108759 0.312820 0.003119 -0.304486
C43   C     C_3   0.031871 0.959010 0.505865 -0.332622
C44   C     C_3   0.035679 0.048464 0.486583 -0.253679
C45   C     C_3   0.532815 0.457480 0.502716 -0.327557
C46   C     C_3   0.534735 0.547558 0.490225 -0.252333
C47   C     C_3   0.962103 0.006889 0.468138 0.676423
C48   C     C_3   0.462096 0.504503 0.468721 0.667680
C49   C     C_3   0.928226 0.998485 0.348846 -0.291703
C50   C     C_3   0.428168 0.499154 0.348864 -0.291822
C51   C     C_3   0.999509 0.951302 0.386636 0.818608
C52   C     C_R   0.807389 0.623076 0.908325 0.718864
C53   C     C_3   0.002935 0.039082 0.367374 0.737228
C54   C     C_3   0.500301 0.452893 0.382848 0.816121
C55   C     C_3   0.501944 0.541319 0.370362 0.751219
C56   C     C_3   0.075953 0.991678 0.404900 -0.364022
C57   C     C_3   0.575856 0.494903 0.404055 -0.374605
C58   C     C_R   0.404269 0.874547 0.093426 -0.228316
C59   C     C_R   0.401306 0.123382 0.092507 -0.227966
C60   C     C_R   0.902721 0.376820 0.093422 -0.194962
C61   C     C_R   0.901463 0.623239 0.092759 -0.210776
C62   C     C_3   0.106091 0.000378 0.523125 -0.043763
C63   C     C_R   0.808415 0.376066 0.908908 0.703439
C64   C     C_3   0.606115 0.500408 0.522985 -0.043101
C65   C     C_3   0.278014 0.812219 0.119927 -0.636659
C66   C     C_3   0.248488 0.174628 0.104549 -0.692423
C67   C     C_3   0.791047 0.306661 0.125028 -0.613719
C68   C     C_3   0.749946 0.675097 0.105929 -0.691383
C69   C     C_3   0.737066 0.258344 0.130329 1.094162
C70   C     C_3   0.713325 0.730597 0.122547 1.115774
C71   C     C_3   0.225388 0.763295 0.126223 1.102450
C72   C     C_3   0.212178 0.230196 0.121491 1.116301
C73   C     C_3   0.777210 0.265485 0.961095 -0.504603
C74   C     C_R   0.643046 0.152517 0.093341 0.783421
C75   C     C_3   0.794321 0.733361 0.001203 -0.498528
C76   C     C_3   0.283158 0.763953 0.972538 -0.493741
C77   C     C_3   0.294877 0.233301 0.002132 -0.497963
C78   C     C_3   0.146853 0.827648 0.919091 0.618063
C79   C     C_3   0.143957 0.177643 0.898534 0.643718
C80   C     C_3   0.649053 0.329895 0.931547 0.628682
C81   C     C_3   0.643925 0.677232 0.899835 0.645453
C82   C     C_3   0.256055 0.817448 0.003437 0.148913
C83   C     C_3   0.249939 0.178529 0.001514 0.148781
C84   C     C_3   0.757914 0.317354 0.004800 0.137014
C85   C     C_R   0.640350 0.846296 0.092756 0.834635
C86   C     C_3   0.750215 0.678570 0.002047 0.148244
C87   C     C_3   0.667104 0.234020 0.008721 0.099923
C88   C     C_3   0.658265 0.761796 0.007544 0.151156
C89   C     C_3   0.163727 0.734961 0.007720 0.099713
C90   C     C_3   0.158179 0.261825 0.007046 0.150346
C91   C     C_3   0.719520 0.217887 0.956658 -0.512632
C92   C     C_3   0.731565 0.780999 0.986912 -0.498843
C93   C     C_3   0.224524 0.716719 0.967433 -0.530085
C94   C     C_3   0.232262 0.281036 0.987721 -0.496722
C95   C     C_3   0.594733 0.280305 0.933102 -0.474166
C96   C     C_R   0.141361 0.653005 0.092992 0.769678
C97   C     C_3   0.587469 0.720992 0.913816 -0.566163
C98   C     C_3   0.091810 0.779103 0.922592 -0.473642
C99   C     C_3   0.087420 0.221359 0.912426 -0.566072
C100  C     C_3   0.645458 0.040167 0.660959 0.374097
C101  C     C_3   0.597581 0.941146 0.629609 0.473888
C102  C     C_3   0.138675 0.545811 0.655942 0.368236
C103  C     C_3   0.110891 0.444301 0.637840 0.466593
C104  C     C_R   0.547218 0.044611 0.304647 0.028650
C105  C     C_R   0.547870 0.953810 0.303102 -0.190903
C106  C     C_R   0.053492 0.544697 0.307044 0.052336
C107  C     C_R   0.140468 0.346300 0.092622 0.832740
C108  C     C_R   0.050277 0.454129 0.304642 -0.090466
C109  C     C_3   0.629271 0.047475 0.547602 0.955102
C110  C     C_3   0.616351 0.943054 0.541044 0.931331
C111  C     C_3   0.124278 0.552348 0.543677 0.950750
C112  C     C_3   0.132357 0.447730 0.551452 0.920279
C113  C     C_3   0.470673 0.015464 0.542093 -0.485398
C114  C     C_3   0.969492 0.509389 0.536809 -0.573185
C115  C     C_3   0.570483 0.999148 0.646634 -0.335508
C116  C     C_3   0.070846 0.500047 0.645014 -0.302848
C117  C     C_3   0.567778 0.997690 0.470310 -0.503398
C118  C     C_R   0.553302 0.845990 0.911160 0.592119
C119  C     C_3   0.074419 0.498984 0.473039 -0.474852
C120  C     C_3   0.461655 0.003347 0.435412 1.062476
C121  C     C_3   0.966652 0.497908 0.432808 1.081921
C122  C     C_R   0.244762 0.954987 0.691803 0.769500
C123  C     C_R   0.244463 0.045467 0.691779 0.770035
C124  C     C_R   0.744921 0.454986 0.691688 0.770022
C125  C     C_R   0.744575 0.545439 0.691660 0.768826
C126  C     C_R   0.309578 0.135520 0.000307 -0.051764
C127  C     C_R   0.314016 0.860696 0.001756 -0.079915
C128  C     C_R   0.809769 0.635537 0.000655 -0.050880
F1    F     F_    0.237607 0.136460 0.802295 -0.671162
F2    F     F_    0.104270 0.126507 0.884261 -0.663004
F3    F     F_    0.630032 0.376197 0.969076 -0.669732
F4    F     F_    0.604891 0.626023 0.886957 -0.660019
F5    F     F_    0.640202 0.090617 0.699111 -0.662655
F6    F     F_    0.524517 0.904338 0.596243 -0.592036
F7    F     F_    0.123746 0.595932 0.686316 -0.667658
F8    F     F_    0.045562 0.402753 0.607489 -0.604623
F9    F     F_    0.578361 0.095967 0.499461 -0.679800
F10   F     F_    0.575988 0.895751 0.479184 -0.658899
F11   F     F_    0.064483 0.597259 0.488084 -0.693109
F12   F     F_    0.239105 0.861639 0.803106 -0.683601
F13   F     F_    0.103351 0.398123 0.495716 -0.651936
F14   F     F_    0.238093 0.904625 0.650115 -0.593678
F15   F     F_    0.238685 0.095587 0.649663 -0.614415
F16   F     F_    0.738497 0.404605 0.650168 -0.599617
F17   F     F_    0.738548 0.595645 0.649709 -0.612457
F18   F     F_    0.800604 0.901577 0.273540 -0.612469
F19   F     F_    0.802628 0.096494 0.279201 -0.636524
F20   F     F_    0.301173 0.401836 0.273189 -0.613368
F21   F     F_    0.301906 0.596795 0.279344 -0.642229
F22   F     F_    0.664321 0.171172 0.190523 -0.628710
F23   F     F_    0.737554 0.636557 0.802532 -0.671768
F24   F     F_    0.665332 0.828853 0.192387 -0.625345
F25   F     F_    0.160367 0.671446 0.189296 -0.626684
F26   F     F_    0.165700 0.328796 0.192319 -0.623457
F27   F     F_    0.493990 0.829588 0.804721 -0.657773
F28   F     F_    0.499371 0.171551 0.805791 -0.678124
F29   F     F_    0.994061 0.329846 0.804450 -0.662670
F30   F     F_    0.997100 0.671171 0.805148 -0.677139
F31   F     F_    0.902922 0.014502 0.500664 -0.655887
F32   F     F_    0.402864 0.509424 0.501727 -0.664766
F33   F     F_    0.736719 0.363872 0.803158 -0.686114
F34   F     F_    0.980684 0.901579 0.333896 -0.618863
F35   F     F_    0.986381 0.079486 0.293608 -0.687942
F36   F     F_    0.481751 0.404507 0.326010 -0.618655
F37   F     F_    0.484260 0.583928 0.300053 -0.679458
F38   F     F_    0.120209 0.876082 0.942353 -0.669905
H1    H     H_    0.043513 0.926070 0.563615 0.220109
H2    H     H_    0.817937 0.660797 0.180323 0.163397
H3    H     H_    0.288457 0.023716 0.346451 0.154698
H4    H     H_    0.271740 0.069856 0.243635 0.174937
H5    H     H_    0.369629 0.976109 0.233184 0.143927
H6    H     H_    0.281649 0.944319 0.243192 0.136742
H7    H     H_    0.378016 0.904908 0.264311 0.149773
H8    H     H_    0.864353 0.604770 0.380678 0.196237
H9    H     H_    0.802899 0.541998 0.366348 0.116737
H10   H     H_    0.782046 0.574506 0.247850 0.177465
H11   H     H_    0.800206 0.461339 0.245489 0.160079
H12   H     H_    0.800551 0.451372 0.367464 0.092325
H13   H     H_    0.254926 0.850988 0.136355 0.211724
H14   H     H_    0.815290 0.395685 0.304082 0.132253
H15   H     H_    0.198202 0.141670 0.089343 0.230334
H16   H     H_    0.778861 0.344708 0.155556 0.211363
H17   H     H_    0.700369 0.641960 0.091970 0.231102
H18   H     H_    0.854551 0.255230 0.013084 0.213353
H19   H     H_    0.866987 0.738208 0.079306 0.225171
H20   H     H_    0.360680 0.755083 0.031440 0.213691
H21   H     H_    0.367260 0.237863 0.080794 0.226030
H22   H     H_    0.764379 0.180748 0.993058 0.183981
H23   H     H_    0.049826 0.088620 0.527893 0.232863
H24   H     H_    0.777375 0.814375 0.044426 0.231556
H25   H     H_    0.270305 0.680654 0.011464 0.183363
H26   H     H_    0.278101 0.314216 0.045874 0.233524
H27   H     H_    0.126673 0.830995 0.833957 0.120883
H28   H     H_    0.137968 0.188134 0.822700 0.140481
H29   H     H_    0.622980 0.337776 0.844933 0.108229
H30   H     H_    0.637106 0.687362 0.823359 0.139440
H31   H     H_    0.437611 0.866527 0.179215 0.156473
H32   H     H_    0.432516 0.131779 0.177981 0.162618
H33   H     H_    0.932637 0.372080 0.179442 0.166814
H34   H     H_    0.545146 0.422965 0.557856 0.221943
H35   H     H_    0.932827 0.631083 0.178497 0.162608
H36   H     H_    0.043004 0.793578 0.942874 0.249693
H37   H     H_    0.041373 0.201713 0.931935 0.242588
H38   H     H_    0.550499 0.292926 0.961014 0.248375
H39   H     H_    0.542049 0.701394 0.934293 0.242544
H40   H     H_    0.543708 0.265884 0.846899 0.217012
H41   H     H_    0.538333 0.740946 0.832674 0.250453
H42   H     H_    0.045236 0.762154 0.837987 0.222947
H43   H     H_    0.038894 0.241542 0.831445 0.251015
H44   H     H_    0.756790 0.272005 0.876321 0.249359
H45   H     H_    0.548309 0.586646 0.534756 0.231183
H46   H     H_    0.802158 0.734624 0.932650 0.214758
H47   H     H_    0.269169 0.767805 0.890196 0.237954
H48   H     H_    0.303546 0.234763 0.934235 0.213966
H49   H     H_    0.666174 0.207050 0.868167 0.264633
H50   H     H_    0.693622 0.797539 0.901448 0.219411
H51   H     H_    0.176366 0.703161 0.879805 0.258322
H52   H     H_    0.194997 0.297836 0.902540 0.220760
H53   H     H_    0.718292 0.023572 0.723545 0.076690
H54   H     H_    0.662178 0.925799 0.709290 0.052846
H55   H     H_    0.213777 0.533770 0.721834 0.076085
H56   H     H_    0.125057 0.985617 0.381130 0.186925
H57   H     H_    0.176964 0.433386 0.720343 0.054553
H58   H     H_    0.459468 0.059854 0.547159 0.226104
H59   H     H_    0.412902 0.993918 0.539415 0.222812
H60   H     H_    0.949787 0.552348 0.538815 0.224884
H61   H     H_    0.916627 0.483285 0.535462 0.219902
H62   H     H_    0.561059 0.086522 0.331895 0.169667
H63   H     H_    0.562997 0.911498 0.326196 0.194932
H64   H     H_    0.068826 0.586678 0.333838 0.160870
H65   H     H_    0.063515 0.411712 0.327550 0.195105
H66   H     H_    0.531737 0.087672 0.744087 0.238605
H67   H     H_    0.624910 0.491079 0.379722 0.181650
H68   H     H_    0.545024 0.912238 0.761284 0.215179
H69   H     H_    0.026739 0.588063 0.739932 0.246006
H70   H     H_    0.041127 0.412387 0.755535 0.226936
H71   H     H_    0.268909 0.821722 0.292334 0.111864
H72   H     H_    0.208665 0.764711 0.303785 0.206228
H73   H     H_    0.150053 0.829676 0.253390 0.140685
H74   H     H_    0.221459 0.232986 0.310148 0.200407
H75   H     H_    0.223080 0.163268 0.266329 0.064926
H76   H     H_    0.120065 0.189796 0.250773 0.168579
H77   H     H_    0.801555 0.302265 0.314332 0.109356
H78   H     H_    0.354672 0.808302 0.187320 0.170762
H79   H     H_    0.721367 0.255296 0.313869 0.211373
H80   H     H_    0.689242 0.325988 0.280930 0.123400
H81   H     H_    0.724651 0.733818 0.312398 0.198123
H82   H     H_    0.726363 0.663849 0.269580 0.057876
H83   H     H_    0.623742 0.690457 0.254811 0.170899
H84   H     H_    0.893876 0.215041 0.165575 0.066975
H85   H     H_    0.837238 0.152070 0.162617 0.175677
H86   H     H_    0.931063 0.181750 0.289253 0.230104
H87   H     H_    0.918053 0.732501 0.261253 0.116691
H88   H     H_    0.866877 0.709115 0.331600 0.081245
H89   H     H_    0.315944 0.159768 0.179078 0.170293
H90   H     H_    0.915174 0.775778 0.354629 0.225593
H91   H     H_    0.394618 0.725557 0.186875 0.067180
H92   H     H_    0.341441 0.660915 0.182859 0.187468
H93   H     H_    0.424057 0.694426 0.309263 0.219780
H94   H     H_    0.417004 0.231064 0.262175 0.118545
H95   H     H_    0.364238 0.207587 0.330670 0.092385
H96   H     H_    0.413664 0.274043 0.355588 0.221941
H97   H     H_    0.768961 0.114544 0.672222 0.146522
H98   H     H_    0.723325 0.130648 0.529853 0.156925
H99   H     H_    0.835427 0.096293 0.620056 0.176144
H100  H     H_    0.868589 0.298617 0.182249 0.173576
H101  H     H_    0.733106 0.951134 0.471959 0.147546
H102  H     H_    0.718934 0.880729 0.502160 0.152193
H103  H     H_    0.826852 0.916944 0.592967 0.170081
H104  H     H_    0.250447 0.627396 0.663459 0.149673
H105  H     H_    0.203539 0.641643 0.520020 0.155391
H106  H     H_    0.321199 0.614344 0.614753 0.166079
H107  H     H_    0.238742 0.449447 0.475435 0.125599
H108  H     H_    0.261466 0.385687 0.551414 0.150316
H109  H     H_    0.347776 0.438826 0.608287 0.178776
H110  H     H_    0.325479 0.093894 0.381676 0.170055
N1    N     N_R   0.392450 0.103580 0.942190 -0.113308
N2    N     N_R   0.525490 0.971610 0.207550 -0.063198
N3    N     N_R   0.025490 0.528390 0.207550 -0.073608
N4    N     N_R   0.025490 0.471610 0.207550 -0.070295
N5    N     N_R   0.317450 0.971190 0.792000 -0.180647
N6    N     N_R   0.317450 0.028810 0.792000 -0.179691
N7    N     N_R   0.817450 0.471190 0.792000 -0.178341
N8    N     N_R   0.817450 0.528810 0.792000 -0.178657
N9    N     N_R   0.473900 0.028390 0.792280 -0.077567
N10   N     N_R   0.473900 0.971610 0.792280 -0.064144
N11   N     N_R   0.973900 0.528390 0.792280 -0.078426
N12   N     N_R   0.392450 0.896420 0.942190 -0.107840
N13   N     N_R   0.973900 0.471610 0.792280 -0.066608
N14   N     N_R   0.682310 0.971180 0.208170 -0.162374
N15   N     N_R   0.682310 0.028820 0.208170 -0.154929
N16   N     N_R   0.182310 0.471180 0.208170 -0.166525
N17   N     N_R   0.182310 0.528820 0.208170 -0.158837
N18   N     N_R   0.606470 0.103570 0.057210 -0.180445
N19   N     N_R   0.606470 0.896430 0.057210 -0.183315
N20   N     N_R   0.106470 0.603570 0.057210 -0.178514
N21   N     N_R   0.106470 0.396430 0.057210 -0.183246
N22   N     N_R   0.549740 0.896000 0.943240 -0.170689
N23   N     N_R   0.892450 0.603580 0.942190 -0.113416
N24   N     N_R   0.549740 0.104000 0.943240 -0.166177
N25   N     N_R   0.049740 0.396000 0.943240 -0.168972
N26   N     N_R   0.049740 0.604000 0.943240 -0.166030
N27   N     N_R   0.892450 0.396420 0.942190 -0.108258
N28   N     N_R   0.450490 0.896000 0.057360 -0.079486
N29   N     N_R   0.450490 0.104000 0.057360 -0.083120
N30   N     N_R   0.950490 0.396000 0.057360 -0.086186
N31   N     N_R   0.950490 0.604000 0.057360 -0.084184
N32   N     N_R   0.525490 0.028390 0.207550 -0.073188
Ni1   Ni    Ni4+2 0.433780 0.065390 0.868430 0.300338
Ni2   Ni    Ni4+2 0.433780 0.934610 0.868430 0.315070
Ni3   Ni    Ni4+2 0.933780 0.565390 0.868430 0.302174
Ni4   Ni    Ni4+2 0.933780 0.434610 0.868430 0.311041
Ni5   Ni    Ni4+2 0.565800 0.934190 0.131570 0.247011
Ni6   Ni    Ni4+2 0.565800 0.065810 0.131570 0.260662
Ni7   Ni    Ni4+2 0.065800 0.434190 0.131570 0.251340
Ni8   Ni    Ni4+2 0.065800 0.565810 0.131570 0.261785
O1    O     O_3   0.157756 0.784637 0.142777 -0.648825
O2    O     O_3   0.717561 0.942673 0.599012 -0.700446
O3    O     O_3   0.213590 0.559203 0.560845 -0.657377
O4    O     O_3   0.232932 0.454534 0.610791 -0.708363
O5    O     O_3   0.412233 0.047487 0.358299 -0.628747
O6    O     O_3   0.412428 0.952497 0.394182 -0.581833
O7    O     O_3   0.913277 0.537190 0.344417 -0.620777
O8    O     O_3   0.932939 0.443821 0.393459 -0.580084
O9    O     O_3   0.141795 0.220373 0.140257 -0.649849
O10   O     O_3   0.676730 0.280138 0.157680 -0.639813
O11   O     O_3   0.643777 0.720540 0.142558 -0.649183
O12   O     O_3   0.801638 0.219593 0.215134 -0.618327
O13   O     O_3   0.786281 0.767104 0.203898 -0.600838
O14   O     O_3   0.290008 0.727807 0.218199 -0.620085
O15   O     O_3   0.285405 0.266254 0.203825 -0.601043
O16   O     O_3   0.718101 0.048485 0.562165 -0.662752

loop_
_geom_bond_atom_site_label_1
_geom_bond_atom_site_label_2
_ccdc_geom_bond_type
C91   H22   S    
C87   C91   S    
N16   Ni7   S    
N2    Ni5   S    
C111  F11   S    
C59   C126  A    
C10   H69   S    
C79   H28   S    
C5    C119  S    
C32   O7    S    
C52   N23   A    
C79   C99   S    
C1    F1    S    
C31   H6    S    
C23   O14   S    
N19   Ni5   S    
C15   N16   A    
C91   H49   S    
C103  H57   S    
C114  H61   S    
C25   H94   S    
C44   C53   S    
C66   C72   S    
C100  H53   S    
C49   C51   S    
C46   C55   S    
N11   N13   A    
C16   F21   S    
C81   C86   S    
C19   H77   S    
N13   Ni4   S    
C48   C50   S    
C100  C109  S    
C33   H14   S    
C98   H42   S    
C102  C111  S    
C100  C115  S    
C70   O13   S    
C13   C42   A    
C77   H48   S    
C104  H62   S    
N3    Ni8   S    
C65   H78   S    
C46   C48   S    
C75   H46   S    
C30   O5    S    
C28   H104  S    
C86   C128  S    
C74   N18   A    
N5    Ni2   S    
N21   Ni7   S    
N7    Ni4   S    
C53   F35   S    
C101  C110  S    
C79   F2    S    
N29   Ni6   S    
C106  H64   S    
C25   H96   S    
C103  C112  S    
C45   H34   S    
C78   H27   S    
C30   H3    S    
C1    N1    A    
C67   H16   S    
C113  C120  S    
C78   C82   S    
C75   C86   S    
C113  H59   S    
C27   H102  S    
C125  N8    A    
C17   H73   S    
C18   H75   S    
C55   C57   S    
C9    C34   A    
C101  C115  S    
C56   C62   S    
C39   C85   A    
C83   C126  S    
C63   F33   S    
C2    F28   S    
C26   O16   S    
C111  O3    S    
C39   C118  A    
C11   C35   A    
C103  C116  S    
C95   H38   S    
N22   Ni2   S    
N1    Ni1   S    
C37   C50   S    
N23   N31   A    
C65   C82   S    
N9    Ni1   S    
C52   F23   S    
C49   C53   S    
C4    C104  A    
C122  N5    A    
C85   F24   S    
N17   Ni8   S    
C99   H37   S    
C43   C47   S    
C113  C115  S    
C56   H56   S    
C120  O5    S    
C28   H106  S    
C41   C127  A    
C47   F31   S    
N20   N26   A    
C48   F32   S    
C14   C36   A    
C15   F20   S    
C12   N14   A    
C77   C94   S    
C51   F34   S    
C93   H51   S    
C102  F7    S    
C15   C37   A    
C41   F12   S    
C87   C95   S    
N26   Ni3   S    
N14   Ni5   S    
C10   C35   A    
C40   C89   S    
C95   H40   S    
C105  N2    A    
C6    C123  A    
C76   H47   S    
C13   F29   S    
N8    Ni3   S    
C18   H74   S    
C61   N31   A    
C119  C121  S    
C29   H107  S    
C32   H9    S    
C120  O6    S    
C118  N22   A    
C33   H11   S    
C1    C126  A    
C23   H92   S    
C76   C82   S    
C21   H84   S    
C19   O10   S    
C26   H97   S    
C34   C115  S    
C14   F19   S    
C42   C90   S    
C112  F13   S    
C31   O6    S    
C103  F8    S    
C72   C90   S    
C2    C38   A    
C8    C34   A    
C80   C95   S    
C68   H2    S    
C27   H103  S    
C4    C117  S    
N6    Ni1   S    
C90   C99   S    
C59   N29   A    
C99   H43   S    
C53   C56   S    
C17   O1    S    
C88   C97   S    
C114  C116  S    
C43   H1    S    
C112  O4    S    
C45   C64   S    
C89   C98   S    
C54   F36   S    
C125  F17   S    
C71   O1    S    
C31   H5    S    
C89   C93   S    
C43   C62   S    
C14   N15   A    
N21   N25   A    
C106  N3    A    
C58   N28   A    
C19   H80   S    
C54   C57   S    
C29   H109  S    
C58   H31   S    
C30   H110  S    
N20   Ni8   S    
C80   C84   S    
C21   H86   S    
N1    N29   A    
C52   C128  A    
C109  C117  S    
N28   Ni5   S    
N10   Ni2   S    
C50   C54   S    
N30   Ni7   S    
C38   C74   A    
C59   H32   S    
C46   H45   S    
C85   N19   A    
N14   N15   A    
C30   H4    S    
C22   H87   S    
C66   C83   S    
C114  C121  S    
N24   Ni1   S    
C121  O7    S    
C20   H81   S    
C27   H101  S    
N25   Ni4   S    
N3    N4    A    
C42   C107  A    
C69   C87   S    
C16   C37   A    
C24   N26   A    
C3    C60   A    
C18   H76   S    
C80   F3    S    
C39   C88   S    
C40   C96   A    
C110  C117  S    
C92   H24   S    
C90   C94   S    
N27   N30   A    
C5    C106  A    
C93   H25   S    
C69   O10   S    
C78   F38   S    
C28   O3    S    
C107  N21   A    
C117  C120  S    
C67   H100  S    
C65   H13   S    
C22   O13   S    
C32   H8    S    
C105  H63   S    
N9    N10   A    
C44   H23   S    
C114  H60   S    
C25   H95   S    
C96   F25   S    
C110  F10   S    
C35   C116  S    
C7    C125  A    
N32   Ni6   S    
C8    N9    A    
C66   H15   S    
C55   F37   S    
N2    N32   A    
C45   C48   S    
C11   H70   S    
C80   H29   S    
C9    H68   S    
C110  O2    S    
C2    N24   A    
C123  N6    A    
C112  C119  S    
C20   O11   S    
C3    C63   A    
C38   C87   S    
C6    C62   S    
C18   O9    S    
C72   O9    S    
C29   O4    S    
C79   C83   S    
C101  H54   S    
C43   C51   S    
C20   H83   S    
C67   C84   S    
C92   H50   S    
C61   C128  A    
C21   O12   S    
C60   N30   A    
C11   N13   A    
C3    C84   S    
C97   H39   S    
C36   C49   S    
C102  H55   S    
N27   Ni4   S    
C5    C108  A    
C69   O12   S    
C68   H17   S    
C63   N27   A    
C27   O2    S    
C68   C86   S    
C7    C124  A    
C70   C88   S    
C47   C49   S    
C101  F6    S    
C32   H10   S    
C104  N32   A    
C9    N10   A    
N15   Ni6   S    
C111  C119  S    
N16   N17   A    
C72   O15   S    
C76   C93   S    
C24   F30   S    
C26   H98   S    
C77   C83   S    
C94   H52   S    
C109  F9    S    
C51   C56   S    
C12   F18   S    
C121  O8    S    
C60   H33   S    
C61   H35   S    
N18   Ni6   S    
C88   C92   S    
C78   C98   S    
C12   C36   A    
C41   N12   A    
C73   C84   S    
C22   H90   S    
C44   C47   S    
C26   H99   S    
C23   H93   S    
C58   C127  A    
C28   H105  S    
C13   N25   A    
N12   N28   A    
C75   H19   S    
N12   Ni2   S    
C122  F14   S    
N19   N22   A    
C7    C64   S    
C73   H44   S    
C73   C91   S    
C73   H18   S    
C81   F4    S    
C44   C62   S    
N5    N6    A    
C65   C71   S    
C33   O8    S    
C46   C64   S    
C67   C69   S    
C96   N20   A    
C113  H58   S    
N18   N24   A    
C71   O14   S    
C71   C89   S    
C118  F27   S    
C97   H41   S    
C75   C92   S    
N23   Ni3   S    
C45   C54   S    
C77   H21   S    
C6    C122  A    
N7    N8    A    
C76   H20   S    
C100  F5    S    
C19   H79   S    
C57   C64   S    
C31   H7    S    
C124  N7    A    
C29   H108  S    
C33   H12   S    
C10   N11   A    
C98   H36   S    
C74   F22   S    
C21   H85   S    
C57   H67   S    
C70   O11   S    
C4    C105  A    
C50   C55   S    
C16   N17   A    
C81   H30   S    
C8    H66   S    
C17   H72   S    
C81   C97   S    
N4    Ni7   S    
C24   C40   A    
C94   H26   S    
C82   C127  S    
C22   H88   S    
C107  F26   S    
C102  C116  S    
C20   H82   S    
C66   H89   S    
C23   H91   S    
C68   C70   S    
C123  F15   S    
C124  F16   S    
N31   Ni8   S    
N11   Ni3   S    
C108  N4    A    
C109  O16   S    
C25   O15   S    
C108  H65   S    
C17   H71   S    
