data_mof_unit_59530.cif
_audit_creation_date              2012-10-26T21:04:51-0400
_audit_creation_method            fapswitch 2.2
_symmetry_space_group_name_H-M    P1
_symmetry_Int_Tables_number       1
_space_group_crystal_system       triclinic
_cell_length_a                    11.707157
_cell_length_b                    12.421963
_cell_length_c                    13.161163
_cell_angle_alpha                 117.197527
_cell_angle_beta                  75.996528
_cell_angle_gamma                 101.896198
_cell_volume                      1641.61188519

loop_
_atom_site_label
_atom_site_type_symbol
_atom_type_description
_atom_site_fract_x
_atom_site_fract_y
_atom_site_fract_z
_atom_type_partial_charge
C1    C     C_R   0.499579 0.856216 0.287664 0.553158
C2    C     C_R   0.339361 0.481468 0.172926 -0.099717
C3    C     C_R   0.367937 0.605809 0.206413 -0.062593
C4    C     C_R   0.715707 0.001359 0.501009 0.576272
C5    C     C_R   0.512126 0.355043 0.874687 0.081731
C6    C     C_R   0.400339 0.190247 0.920100 -0.129783
C7    C     C_R   0.481762 0.776913 0.165327 -0.030927
C8    C     C_R   0.726638 0.381992 0.393929 -0.138748
C9    C     C_R   0.325211 0.744532 0.629183 0.206213
C10   C     C_R   0.285794 0.643354 0.652840 -0.146323
C11   C     C_R   0.354297 0.549606 0.610101 -0.157355
C12   C     C_R   0.470204 0.230142 0.838483 0.002642
C13   C     C_R   0.464986 0.554132 0.541682 -0.015185
C14   C     C_R   0.505388 0.659124 0.516813 0.132721
C15   C     C_R   0.536291 0.455969 0.495043 -0.013397
C16   C     C_R   0.487571 0.145641 0.714228 0.540812
C17   C     C_R   0.655308 0.476134 0.447416 -0.016477
C18   C     C_R   0.699963 0.586238 0.441707 -0.146636
C19   C     C_R   0.621472 0.661333 0.450238 0.091168
C20   C     C_R   0.495271 0.338379 0.492887 0.034015
C21   C     C_R   0.680161 0.266105 0.384638 0.208431
C22   C     C_R   0.284065 0.999837 0.500698 0.547382
C23   C     C_R   0.510557 0.822214 0.079300 0.044183
C24   C     C_1   0.837725 0.002564 0.501295 0.048406
C25   C     C_1   0.940061 0.001801 0.501411 -0.000505
C26   C     C_1   0.059593 0.000148 0.501418 -0.018325
C27   C     C_1   0.161987 0.999255 0.501232 0.010031
C28   C     C_R   0.361069 0.273736 0.032138 -0.131925
C29   C     C_2   0.240234 0.835172 0.678777 0.616447
C30   C     C_2   0.645229 0.673719 0.340988 0.623097
C31   C     C_2   0.509837 0.951666 0.105437 0.627788
C32   C     C_2   0.759423 0.169310 0.317557 0.617462
C33   C     C_R   0.527717 0.739974 0.962350 -0.141333
C34   C     C_R   0.514421 0.615489 0.929587 -0.119926
C35   C     C_R   0.476073 0.568343 0.012894 0.056214
C36   C     C_R   0.443579 0.650838 0.129893 0.024952
C37   C     C_R   0.458871 0.441197 0.982186 0.088840
C38   C     C_R   0.386441 0.398718 0.062786 0.031067
Cu1   Cu    Cu3+1 0.526510 0.098270 0.475420 1.021746
Cu2   Cu    Cu3+1 0.473490 0.901730 0.524580 1.019934
H1    H     H_    0.374632 0.094651 0.897475 0.199355
H2    H     H_    0.548332 0.771963 0.895211 0.158770
H3    H     H_    0.326695 0.666115 0.291501 0.148562
H4    H     H_    0.078355 0.871145 0.682893 0.338311
H5    H     H_    0.753559 0.744494 0.236674 0.333797
H6    H     H_    0.684522 0.335613 0.797560 0.243064
H7    H     H_    0.608421 0.384949 0.735132 0.251454
H8    H     H_    0.579035 0.090407 0.061415 0.345841
H9    H     H_    0.787242 0.005020 0.185032 0.336225
H10   H     H_    0.791010 0.596037 0.399290 0.141937
H11   H     H_    0.817223 0.396895 0.353373 0.128240
H12   H     H_    0.407656 0.318436 0.534308 0.126972
H13   H     H_    0.319615 0.475939 0.634791 0.111007
H14   H     H_    0.200361 0.637300 0.706253 0.134371
H15   H     H_    0.281489 0.449989 0.234121 0.124597
H16   H     H_    0.306762 0.240525 0.093521 0.144748
H17   H     H_    0.522934 0.557565 0.837911 0.140096
N1    N     N_R   0.566700 0.246290 0.438210 -0.246498
N2    N     N_R   0.434010 0.754320 0.561170 -0.273027
N3    N     N_3   0.620853 0.392062 0.813892 -0.627012
O1    O     O_R   0.533340 0.972510 0.318140 -0.422256
O2    O     O_R   0.130894 0.802697 0.641268 -0.704271
O3    O     O_2   0.588923 0.603774 0.264378 -0.517736
O4    O     O_R   0.744164 0.748516 0.316931 -0.705604
O5    O     O_2   0.435075 0.011869 0.182110 -0.492638
O6    O     O_R   0.589772 0.002444 0.036860 -0.679599
O7    O     O_2   0.859195 0.185574 0.339184 -0.534115
O8    O     O_R   0.724386 0.063400 0.224812 -0.647015
O9    O     O_R   0.488570 0.806530 0.359650 -0.495709
O10   O     O_R   0.685190 0.083000 0.479260 -0.489502
O11   O     O_R   0.640410 0.917020 0.520770 -0.491264
O12   O     O_R   0.511430 0.193470 0.640350 -0.530612
O13   O     O_R   0.466660 0.027490 0.681860 -0.468707
O14   O     O_R   0.359590 0.082980 0.479230 -0.494303
O15   O     O_R   0.314810 0.917000 0.520740 -0.488487
O16   O     O_2   0.260993 0.934574 0.757285 -0.534551

loop_
_geom_bond_atom_site_label_1
_geom_bond_atom_site_label_2
_ccdc_geom_bond_type
C31   O6    S    
H9    O8    S    
C5    C37   A    
C7    C36   A    
C35   C36   A    
C16   O12   A    
C4    O10   A    
C28   H16   S    
C29   O16   D    
C14   N2    A    
C3    H3    S    
C26   C27   T    
C33   H2    S    
Cu2   O11   S    
C18   C19   A    
C30   O4    S    
C2    H15   S    
C6    C12   A    
C4    C24   S    
Cu2   O13   S    
C17   C18   A    
C34   C35   A    
Cu1   O14   S    
H7    N3    S    
C6    C28   A    
C12   C16   S    
C23   C33   A    
C6    H1    S    
C34   H17   S    
Cu1   O12   S    
C9    C10   A    
C11   H13   S    
C9    C29   S    
C32   O8    S    
H6    N3    S    
Cu2   N2    S    
C13   C14   A    
C22   O15   A    
C33   C34   A    
C15   C20   A    
Cu1   O1    S    
C21   C32   S    
Cu2   O9    S    
C16   O13   A    
C24   C25   T    
C5    C12   A    
Cu1   Cu2   S    
C31   O5    D    
H4    O2    S    
C25   C26   S    
Cu1   N1    S    
C1    O9    A    
C9    N2    A    
C23   C31   S    
C37   C38   A    
C2    C38   A    
C28   C38   A    
C8    C21   A    
C8    H11   S    
C32   O7    D    
C22   C27   S    
C13   C15   A    
C22   O14   A    
C20   N1    A    
C18   H10   S    
C15   C17   A    
C29   O2    S    
C5    N3    S    
C35   C37   A    
C1    C7    S    
C14   C19   A    
C1    O1    A    
H5    O4    S    
C8    C17   A    
Cu2   O15   S    
C2    C3    A    
C21   N1    A    
C20   H12   S    
C11   C13   A    
C3    C36   A    
C7    C23   A    
Cu1   O10   S    
C10   H14   S    
C10   C11   A    
H8    O6    S    
C30   O3    D    
C19   C30   S    
C4    O11   A    
