data_mof_unit_22974.cif
_audit_creation_date              2012-12-10T20:34:47-0500
_audit_creation_method            fapswitch 2.2
_symmetry_space_group_name_H-M    P1
_symmetry_Int_Tables_number       1
_space_group_crystal_system       triclinic
_cell_length_a                    10.638392
_cell_length_b                    10.661266
_cell_length_c                    9.858547
_cell_angle_alpha                 89.994963
_cell_angle_beta                  90.147009
_cell_angle_gamma                 90.125294
_cell_volume                      1118.13749224

loop_
_atom_site_label
_atom_site_type_symbol
_atom_type_description
_atom_site_fract_x
_atom_site_fract_y
_atom_site_fract_z
_atom_type_partial_charge
C1    C     C_R   0.504893 0.259967 0.500060 0.865657
C2    C     C_3   0.878581 0.497997 0.499325 0.146467
C3    C     C_3   0.929011 0.616814 0.571385 -0.415563
C4    C     C_3   0.928093 0.495326 0.351211 -0.390481
C5    C     C_R   0.530802 0.064045 0.623124 0.137079
C6    C     C_R   0.526975 0.128792 0.500527 -0.104173
C7    C     C_R   0.548465 0.064985 0.378374 -0.235099
C8    C     C_R   0.548128 0.935320 0.378322 -0.235862
C9    C     C_R   0.526052 0.871437 0.500381 -0.108123
C10   C     C_R   0.529894 0.936101 0.622992 0.124068
C11   C     C_3   0.444425 0.929179 0.742950 -0.478275
C12   C     C_R   0.257670 0.498822 0.499713 0.830257
C13   C     C_3   0.445888 0.071363 0.743437 -0.493830
C14   C     C_R   0.437637 0.408438 0.071011 0.221542
C15   C     C_R   0.570681 0.583508 0.072204 -0.140804
C16   C     C_R   0.570625 0.583575 0.928153 -0.142411
C17   C     C_R   0.437860 0.408289 0.928365 0.223766
C18   C     C_3   0.300525 0.381435 0.921729 -0.522126
C19   C     C_3   0.300012 0.382532 0.075553 -0.526652
C20   C     C_R   0.504311 0.740107 0.499983 0.878669
C21   C     C_R   0.742314 0.499827 0.499879 0.834877
C22   C     C_3   0.070864 0.377638 0.578203 0.012072
C23   C     C_3   0.925424 0.379191 0.574204 -0.398289
C24   C     C_3   0.073089 0.615970 0.570029 -0.444831
C25   C     C_3   0.070648 0.494296 0.351121 -0.406553
C26   C     C_3   0.121134 0.495197 0.499214 0.123488
H1    H     H_    0.100671 0.387684 0.686087 0.156256
H2    H     H_    0.894469 0.579140 0.294274 0.177159
H3    H     H_    0.108182 0.700746 0.515878 0.170281
H4    H     H_    0.893932 0.702596 0.519264 0.163603
H5    H     H_    0.555952 0.114013 0.282458 0.169615
H6    H     H_    0.555609 0.886355 0.282397 0.166580
H7    H     H_    0.350763 0.888691 0.717749 0.202424
H8    H     H_    0.491547 0.887424 0.832989 0.200307
H9    H     H_    0.353325 0.113574 0.718741 0.209189
H10   H     H_    0.494009 0.111922 0.833605 0.201420
H11   H     H_    0.625801 0.652466 0.126770 0.138947
H12   H     H_    0.625643 0.652628 0.873894 0.141849
H13   H     H_    0.245887 0.459815 0.876480 0.212698
H14   H     H_    0.280406 0.287493 0.877993 0.194008
H15   H     H_    0.246136 0.462483 0.117898 0.214050
H16   H     H_    0.278587 0.289504 0.120978 0.196480
H17   H     H_    0.886935 0.294962 0.521671 0.164953
H18   H     H_    0.889064 0.377060 0.679997 0.164415
H19   H     H_    0.108576 0.621182 0.676253 0.172687
H20   H     H_    0.895471 0.620131 0.678222 0.177555
H21   H     H_    0.105127 0.578327 0.295105 0.179900
H22   H     H_    0.104149 0.410024 0.295777 0.168479
H23   H     H_    0.892825 0.410328 0.297338 0.175892
N1    N     N_R   0.499150 0.499140 0.142800 -0.105661
N2    N     N_R   0.499150 0.499180 0.857150 -0.105078
O1    O     O_R   0.500020 0.316790 0.614690 -0.613651
O2    O     O_R   0.500000 0.316760 0.385350 -0.623423
O3    O     O_R   0.314800 0.500000 0.614670 -0.629608
O4    O     O_R   0.314790 0.499960 0.385330 -0.621902
O5    O     O_R   0.500000 0.683240 0.614650 -0.617173
O6    O     O_R   0.499980 0.683210 0.385310 -0.623168
O7    O     O_R   0.685210 0.500040 0.614670 -0.627840
O8    O     O_R   0.685200 0.500000 0.385330 -0.630554
Zn1   Zn    Zn3+2 0.500010 0.500020 0.653130 0.931681
Zn2   Zn    Zn3+2 0.499990 0.499980 0.346870 0.929243
C27   C     C_3   0.124079 0.250811 0.526262 -0.402124
C28   C     C_3   0.092834 0.141891 0.621589 -0.916683
H24   H     H_    0.125905 0.162660 0.726109 0.251373
H25   H     H_    0.990119 0.123759 0.623827 0.263604
H26   H     H_    0.140398 0.055489 0.585560 0.252914
H27   H     H_    0.086561 0.228771 0.423741 0.213161
H28   H     H_    0.227994 0.256029 0.518516 0.201268

loop_
_geom_bond_atom_site_label_1
_geom_bond_atom_site_label_2
_ccdc_geom_bond_type
C3    H4    S    
C2    C4    S    
C18   H13   S    
C28   H25   S    
O6    Zn2   S    
C6    C7    A    
C22   C27   S    
O1    Zn1   S    
C9    C10   A    
C25   H21   S    
C3    H20   S    
C5    C13   S    
C25   H22   S    
C19   H16   S    
C27   H28   S    
C4    H23   S    
C20   O5    A    
C17   N2    A    
C2    C21   S    
C17   C18   S    
C20   O6    A    
C28   H26   S    
C19   H15   S    
C21   O7    A    
C21   O8    A    
O3    Zn1   S    
C11   C13   S    
C14   C17   A    
C3    C24   S    
C27   C28   S    
C27   H27   S    
C24   H19   S    
O4    Zn2   S    
C5    C10   A    
C4    H2    S    
C24   C26   S    
C4    C25   S    
C2    C3    S    
C22   H1    S    
C11   H8    S    
C5    C6    A    
C1    O1    A    
C12   O3    A    
O8    Zn2   S    
C12   O4    A    
C7    H5    S    
C10   C11   S    
C14   N1    A    
O7    Zn1   S    
C28   H24   S    
C8    H6    S    
O5    Zn1   S    
C11   H7    S    
C23   H17   S    
C13   H10   S    
C7    C8    A    
C22   C26   S    
C15   N1    A    
C16   H12   S    
C2    C23   S    
N1    Zn2   S    
C18   H14   S    
C22   C23   S    
C18   C19   S    
C16   N2    A    
C1    O2    A    
N2    Zn1   S    
C9    C20   S    
C25   C26   S    
C24   H3    S    
O2    Zn2   S    
C14   C19   S    
C13   H9    S    
C15   H11   S    
C23   H18   S    
C15   C16   A    
C12   C26   S    
C8    C9    A    
C1    C6    S    
