data_mof_unit_39358.cif
_audit_creation_date              2012-12-10T16:53:52-0500
_audit_creation_method            fapswitch 2.2
_symmetry_space_group_name_H-M    P1
_symmetry_Int_Tables_number       1
_space_group_crystal_system       triclinic
_cell_length_a                    7.810402
_cell_length_b                    8.579683
_cell_length_c                    10.651982
_cell_angle_alpha                 91.677122
_cell_angle_beta                  84.653691
_cell_angle_gamma                 93.719573
_cell_volume                      709.001518917

loop_
_atom_site_label
_atom_site_type_symbol
_atom_type_description
_atom_site_fract_x
_atom_site_fract_y
_atom_site_fract_z
_atom_type_partial_charge
C1    C     C_R   0.545631 0.794536 0.494547 0.968029
C2    C     C_3   0.335619 0.586289 0.943495 -0.043147
C3    C     C_3   0.330913 0.572399 0.086793 -0.530038
C4    C     C_3   0.499574 0.337634 0.922385 0.204174
C5    C     C_3   0.668361 0.600421 0.920119 0.421287
C6    C     C_3   0.501576 0.510455 0.879093 -0.064942
C7    C     C_3   0.591706 0.130977 0.789363 -0.204791
C8    C     C_3   0.625880 0.113678 0.135603 -0.313503
C9    C     C_3   0.952359 0.307348 0.292294 -0.087970
C10   C     C_3   0.318868 0.757832 0.909669 -0.818520
C11   C     C_3   0.861833 0.811162 0.866855 -0.385530
C12   C     C_3   0.499480 0.505056 0.121670 -0.055934
C13   C     C_3   0.507095 0.335285 0.067215 0.374919
C14   C     C_3   0.654892 0.611679 0.065178 -0.464150
C15   C     C_2   0.569437 0.957810 0.487199 -0.419934
C16   C     C_2   0.430137 0.041498 0.495824 -0.417354
C17   C     C_R   0.501365 0.506959 0.742064 0.936044
C18   C     C_R   0.454225 0.205385 0.498294 0.938356
C19   C     C_R   0.499918 0.502639 0.258006 0.898828
H1    H     H_    0.219085 0.518843 0.913146 0.172185
H2    H     H_    0.779942 0.529530 0.887676 0.144228
H3    H     H_    0.638074 0.734450 0.098472 0.178690
H4    H     H_    0.478824 0.149506 0.737126 0.128228
H5    H     H_    0.561905 0.030707 0.851609 0.187892
H6    H     H_    0.699768 0.102199 0.719372 0.195599
H7    H     H_    0.551706 0.042981 0.067996 0.165497
H8    H     H_    0.554492 0.110705 0.230709 0.152691
H9    H     H_    0.749750 0.058870 0.140578 0.171792
H10   H     H_    0.942472 0.412915 0.236076 0.159731
H11   H     H_    0.825771 0.245611 0.316093 0.196566
H12   H     H_    0.778396 0.577307 0.097170 0.174144
H13   H     H_    0.031777 0.226325 0.232450 0.107861
H14   H     H_    0.189577 0.793902 0.945269 0.201547
H15   H     H_    0.411976 0.836056 0.957089 0.261111
H16   H     H_    0.336831 0.776040 0.806543 0.253887
H17   H     H_    0.875298 0.925737 0.820498 0.209280
H18   H     H_    0.952627 0.734060 0.812610 0.165715
H19   H     H_    0.896538 0.831346 0.965055 0.166744
H20   H     H_    0.700992 0.008897 0.477328 0.183982
H21   H     H_    0.298571 0.990419 0.505068 0.192021
H22   H     H_    0.987811 0.625491 0.589299 0.140509
H23   H     H_    0.312916 0.687224 0.136434 0.215407
H24   H     H_    0.217589 0.493987 0.119850 0.172850
H25   H     H_    0.372581 0.278506 0.902413 0.015830
H26   H     H_    0.388136 0.268459 0.108881 0.005998
N1    N     N_2   0.950330 0.457950 0.465890 0.116918
N2    N     N_2   0.049670 0.542050 0.534110 -0.089037
O1    O     O_R   0.389250 0.738570 0.508370 -0.629976
O2    O     O_3   0.660492 0.269653 0.097237 -0.573360
O3    O     O_3   0.034595 0.344546 0.401207 -0.509403
O4    O     O_3   0.689862 0.750386 0.865810 -0.626047
O5    O     O_R   0.678390 0.711620 0.486510 -0.646023
O6    O     O_R   0.355430 0.513500 0.696140 -0.656192
O7    O     O_R   0.644580 0.486550 0.674270 -0.598158
O8    O     O_R   0.321610 0.288380 0.513490 -0.561107
O9    O     O_R   0.610750 0.261430 0.491630 -0.628714
O10   O     O_R   0.355420 0.513450 0.325730 -0.601340
O11   O     O_R   0.644570 0.486500 0.303860 -0.636100
O12   O     O_3   0.643531 0.264097 0.860096 -0.574929
Zn1   Zn    Zn3+2 0.306940 0.517990 0.514600 0.985009
Zn2   Zn    Zn3+2 0.693060 0.482010 0.485400 0.972654

loop_
_geom_bond_atom_site_label_1
_geom_bond_atom_site_label_2
_ccdc_geom_bond_type
C11   H19   S    
C3    H23   S    
C10   H16   S    
C1    C15   S    
O7    Zn2   S    
C18   O9    A    
C8    H7    S    
N1    O3    S    
C7    H6    S    
C9    H10   S    
C14   H12   S    
C3    H24   S    
C14   H3    S    
O11   Zn2   S    
C2    C3    S    
H22   N2    S    
C10   H15   S    
O8    Zn1   S    
C19   O10   A    
C13   H26   S    
C17   O7    A    
C15   H20   S    
C5    C14   S    
C2    C6    S    
C9    H11   S    
C16   H21   S    
C7    H4    S    
C18   O8    A    
C12   C19   S    
C7    O12   S    
C11   H17   S    
O6    Zn1   S    
C12   C14   S    
O1    Zn1   S    
C10   H14   S    
O5    Zn2   S    
C19   O11   A    
C5    C6    S    
C8    H9    S    
C1    O5    A    
C13   O2    S    
C4    C6    S    
C11   O4    S    
N1    Zn2   S    
C2    H1    S    
C15   C16   D    
C2    C10   S    
C17   O6    A    
C5    H2    S    
C12   C13   S    
C4    O12   S    
C16   C18   S    
C4    C13   S    
C11   H18   S    
C6    C17   S    
N1    N2    D    
C8    H8    S    
O10   Zn1   S    
C1    O1    A    
C3    C12   S    
C4    H25   S    
C9    H13   S    
N2    Zn1   S    
O9    Zn2   S    
C8    O2    S    
C5    O4    S    
C9    O3    S    
C7    H5    S    
