data_mof_unit_52798.cif
_audit_creation_date              2012-12-10T17:42:17-0500
_audit_creation_method            fapswitch 2.2
_symmetry_space_group_name_H-M    P1
_symmetry_Int_Tables_number       1
_space_group_crystal_system       triclinic
_cell_length_a                    15.110909
_cell_length_b                    13.832384
_cell_length_c                    10.797645
_cell_angle_alpha                 89.775591
_cell_angle_beta                  87.438678
_cell_angle_gamma                 90.285269
_cell_volume                      2254.62058959

loop_
_atom_site_label
_atom_site_type_symbol
_atom_type_description
_atom_site_fract_x
_atom_site_fract_y
_atom_site_fract_z
_atom_type_partial_charge
C1    C     C_R   0.328608 0.499500 0.499021 0.816991
C2    C     C_3   0.594609 0.521870 0.923815 0.222374
C3    C     C_R   0.814109 0.415627 0.478016 -0.223732
C4    C     C_R   0.767672 0.500615 0.504285 -0.079767
C5    C     C_R   0.813408 0.585334 0.533697 -0.240043
C6    C     C_R   0.906107 0.585432 0.539314 -0.008218
C7    C     C_R   0.952543 0.499391 0.508123 0.047090
C8    C     C_R   0.905928 0.414740 0.477618 0.130548
C9    C     C_R   0.954341 0.669450 0.571153 0.392253
C10   C     C_R   0.046744 0.667715 0.563824 -0.154741
C11   C     C_R   0.092501 0.583030 0.532070 0.007475
C12   C     C_R   0.499046 0.500032 0.260410 0.830136
C13   C     C_R   0.045662 0.497949 0.505613 0.014632
C14   C     C_R   0.091760 0.411868 0.474373 0.023876
C15   C     C_R   0.043487 0.329174 0.441795 -0.179749
C16   C     C_R   0.951595 0.330506 0.444654 -0.196188
C17   C     C_R   0.184701 0.582541 0.527083 -0.275622
C18   C     C_R   0.231381 0.497730 0.498317 -0.103375
C19   C     C_R   0.185123 0.411354 0.473356 0.370940
C20   C     C_R   0.437138 0.794346 0.569182 0.521539
C21   C     C_R   0.435994 0.204528 0.567243 0.535979
C22   C     C_R   0.561471 0.792789 0.426407 0.529583
C23   C     C_R   0.561549 0.208205 0.426571 0.526787
C24   C     C_R   0.560099 0.896578 0.417992 -0.130551
C25   C     C_R   0.560631 0.104342 0.418385 -0.122407
C26   C     C_R   0.671132 0.500273 0.500959 0.811763
C27   C     C_R   0.500197 0.948342 0.496574 -0.142921
C28   C     C_R   0.499893 0.051572 0.496121 -0.144228
C29   C     C_R   0.438811 0.896602 0.573789 -0.066113
C30   C     C_R   0.436817 0.102073 0.571039 -0.074504
C31   C     C_R   0.612370 0.949141 0.328384 0.324811
C32   C     C_R   0.615972 0.052300 0.332277 0.325548
C33   C     C_R   0.375287 0.049408 0.648488 0.329092
C34   C     C_R   0.380330 0.947580 0.655568 0.336573
C35   C     C_R   0.497640 0.499612 0.740460 0.709125
C36   C     C_3   0.425180 0.569027 0.079365 -0.362376
C37   C     C_3   0.478171 0.396134 0.076764 -0.333678
C38   C     C_3   0.429866 0.578864 0.935482 0.491631
C39   C     C_3   0.463755 0.396256 0.935986 0.475140
C40   C     C_3   0.589219 0.532670 0.067934 -0.391729
C41   C     C_3   0.497795 0.499679 0.123250 -0.110410
C42   C     C_3   0.497051 0.498947 0.879690 0.032767
Cu1   Cu    Cu3+1 0.499990 0.597420 0.500010 0.986874
Cu2   Cu    Cu3+1 0.499990 0.402580 0.500010 1.007589
H1    H     H_    0.431080 0.641137 0.123652 0.162581
H2    H     H_    0.533881 0.348197 0.100734 0.188024
H3    H     H_    0.082979 0.732830 0.585857 0.185332
H4    H     H_    0.220208 0.648385 0.547794 0.216811
H5    H     H_    0.075666 0.263079 0.411954 0.166476
H6    H     H_    0.916142 0.265682 0.419422 0.149977
H7    H     H_    0.359271 0.540182 0.112398 0.217943
H8    H     H_    0.418275 0.366040 0.127529 0.217198
H9    H     H_    0.600628 0.609184 0.095001 0.204750
H10   H     H_    0.642370 0.489998 0.110553 0.181643
H11   H     H_    0.778964 0.350254 0.455060 0.156886
H12   H     H_    0.775869 0.650635 0.550619 0.164196
N1    N     N_R   0.499930 0.743810 0.499950 -0.270404
N2    N     N_R   0.499930 0.256190 0.499950 -0.271878
O1    O     O_R   0.370250 0.582280 0.500040 -0.601694
O2    O     O_R   0.370250 0.417720 0.500040 -0.530579
O3    O     O_R   0.499970 0.582270 0.317700 -0.545790
O4    O     O_R   0.499970 0.417730 0.317700 -0.543621
O5    O     O_R   0.629730 0.582260 0.499980 -0.552337
O6    O     O_R   0.629730 0.417740 0.499980 -0.554906
O7    O     O_R   0.500000 0.582270 0.682320 -0.595169
O8    O     O_R   0.500000 0.417730 0.682320 -0.604744
O9    O     O_3   0.232247 0.328567 0.444645 -0.685151
H13   H     H_    0.203924 0.274109 0.491502 0.342468
O10   O     O_3   0.366917 0.747459 0.628317 -0.674232
H14   H     H_    0.389295 0.688248 0.664707 0.362270
O11   O     O_3   0.367287 0.250833 0.628912 -0.644681
H15   H     H_    0.390034 0.311529 0.660077 0.356304
O12   O     O_3   0.623689 0.739113 0.360726 -0.654435
H16   H     H_    0.681932 0.770735 0.370723 0.341774
O13   O     O_3   0.622520 0.262970 0.359039 -0.656393
H17   H     H_    0.681511 0.236842 0.376966 0.325142
O14   O     O_3   0.654231 0.899140 0.232091 -0.729120
H18   H     H_    0.656874 0.940363 0.156791 0.342894
O15   O     O_3   0.670415 0.102685 0.248385 -0.731955
H19   H     H_    0.724525 0.064091 0.230380 0.331239
O16   O     O_3   0.310926 0.098007 0.718330 -0.670673
H20   H     H_    0.257210 0.056692 0.727209 0.337745
O17   O     O_3   0.330827 0.897203 0.745551 -0.682517
H21   H     H_    0.322057 0.938523 0.819814 0.331061
O18   O     O_3   0.343250 0.563601 0.895181 -0.694288
H22   H     H_    0.343677 0.574034 0.804420 0.316684
O19   O     O_3   0.371876 0.384162 0.922639 -0.673359
H23   H     H_    0.360468 0.386534 0.833286 0.341997
N3    N     N_3   0.457563 0.677976 0.899314 -0.559290
H24   H     H_    0.505481 0.704576 0.957321 0.232799
H25   H     H_    0.403397 0.724289 0.912085 0.259688
N4    N     N_3   0.509002 0.312300 0.877495 -0.568958
H26   H     H_    0.569871 0.297689 0.915247 0.235015
H27   H     H_    0.470490 0.250204 0.894763 0.254471
N5    N     N_3   0.630677 0.612148 0.867745 -0.580707
H28   H     H_    0.689482 0.630676 0.909718 0.221235
H29   H     H_    0.648670 0.601259 0.774257 0.227798
N6    N     N_3   0.655782 0.442667 0.890385 -0.605821
H30   H     H_    0.661053 0.435211 0.794000 0.222446
H31   H     H_    0.719315 0.459947 0.918476 0.227537
O20   O     O_3   0.914653 0.754601 0.608993 -0.717754
H32   H     H_    0.859388 0.738874 0.657583 0.317310

loop_
_geom_bond_atom_site_label_1
_geom_bond_atom_site_label_2
_ccdc_geom_bond_type
C23   N2    A    
O19   H23   S    
O20   H32   S    
C27   C29   A    
O12   H16   S    
C5    H12   S    
Cu2   O8    S    
N5    H28   S    
C17   H4    S    
C39   O19   S    
C26   O5    A    
C6    C9    A    
O16   H20   S    
Cu1   O5    S    
C7    C8    A    
O14   H18   S    
Cu2   O6    S    
C25   C28   A    
C38   N3    S    
C1    C18   S    
C21   O11   S    
C2    N5    S    
C16   H6    S    
C38   C42   S    
C1    O1    A    
C5    C6    A    
C35   O7    A    
C15   C16   A    
C18   C19   A    
C35   C42   S    
C26   O6    A    
C3    H11   S    
O17   H21   S    
Cu2   N2    S    
C24   C27   A    
C19   O9    S    
N3    H25   S    
C9    C10   A    
Cu1   O1    S    
C25   C32   A    
C23   C25   A    
C8    C16   A    
C13   C14   A    
C36   C41   S    
C22   N1    A    
C31   O14   S    
C39   C42   S    
C20   C29   A    
C38   O18   S    
O9    H13   S    
C3    C8    A    
C1    O2    A    
C37   H8    S    
C35   O8    A    
Cu2   O4    S    
O18   H22   S    
C29   C34   A    
O13   H17   S    
C12   C41   S    
C12   O4    A    
C31   C32   A    
Cu1   O7    S    
N4    H27   S    
C17   C18   A    
C36   H1    S    
Cu2   O2    S    
C36   H7    S    
C40   C41   S    
N6    H30   S    
C40   H10   S    
Cu1   Cu2   S    
C22   C24   A    
C20   O10   S    
C34   O17   S    
C3    C4    A    
N3    H24   S    
C39   N4    S    
C10   H3    S    
Cu1   O3    S    
C11   C17   A    
C30   C33   A    
C14   C19   A    
C23   O13   S    
C4    C5    A    
C4    C26   S    
N5    H29   S    
C6    C7    A    
C21   C30   A    
N6    H31   S    
C36   C38   S    
C37   H2    S    
C24   C31   A    
C21   N2    A    
C37   C39   S    
C32   O15   S    
C12   O3    A    
C11   C13   A    
C2    C42   S    
C28   C30   A    
N4    H26   S    
C33   C34   A    
C15   H5    S    
C37   C41   S    
O10   H14   S    
C10   C11   A    
Cu1   N1    S    
O15   H19   S    
C2    C40   S    
C7    C13   A    
O11   H15   S    
C2    N6    S    
C9    O20   S    
C40   H9    S    
C27   C28   A    
C14   C15   A    
C22   O12   S    
C20   N1    A    
C33   O16   S    
