data_mof_unit_34091.cif
_audit_creation_date              2012-12-10T20:35:53-0500
_audit_creation_method            fapswitch 2.2
_symmetry_space_group_name_H-M    P1
_symmetry_Int_Tables_number       1
_space_group_crystal_system       triclinic
_cell_length_a                    15.740469
_cell_length_b                    10.647312
_cell_length_c                    9.877719
_cell_angle_alpha                 90.060418
_cell_angle_beta                  90.301004
_cell_angle_gamma                 91.040221
_cell_volume                      1655.14656462

loop_
_atom_site_label
_atom_site_type_symbol
_atom_type_description
_atom_site_fract_x
_atom_site_fract_y
_atom_site_fract_z
_atom_type_partial_charge
C1    C     C_R   0.503754 0.259999 0.500090 0.840403
C2    C     C_R   0.520377 0.129265 0.501160 -0.142838
C3    C     C_R   0.538669 0.065838 0.380530 -0.216370
C4    C     C_R   0.338424 0.500359 0.499760 0.879474
C5    C     C_R   0.538576 0.935831 0.380476 -0.221988
C6    C     C_R   0.520718 0.871590 0.501264 -0.087905
C7    C     C_R   0.521125 0.936363 0.623747 0.065809
C8    C     C_3   0.461630 0.925507 0.741068 -0.510840
C9    C     C_3   0.459885 0.067967 0.740276 0.384710
C10   C     C_R   0.447598 0.417736 0.070522 0.050561
C11   C     C_R   0.557080 0.570798 0.072769 -0.253564
C12   C     C_3   0.952459 0.482307 0.647737 -0.000488
C13   C     C_R   0.558792 0.568880 0.927995 0.539246
C14   C     C_R   0.445868 0.421969 0.927869 0.131188
C15   C     C_3   0.351061 0.424560 0.922259 -0.106470
C16   C     C_R   0.503978 0.740096 0.500100 0.883625
C17   C     C_3   0.351287 0.410403 0.076679 0.310395
C18   C     C_R   0.661578 0.500174 0.500342 0.907132
C19   C     C_3   0.050243 0.470283 0.642338 -0.517167
C20   C     C_3   0.046499 0.392607 0.387302 0.977179
C21   C     C_3   0.948352 0.378251 0.413885 -0.118810
C22   C     C_1   0.750196 0.498440 0.501333 -0.218847
C23   C     C_3   0.917052 0.493881 0.499588 0.205878
C24   C     C_3   0.083193 0.491787 0.495037 0.094913
C25   C     C_3   0.911523 0.377253 0.734784 -0.960225
C26   C     C_3   0.576679 0.133675 0.879950 -0.262395
C27   C     C_3   0.698845 0.614061 0.887240 -0.310700
C28   C     C_3   0.311113 0.313653 0.842775 -0.695157
C29   C     C_3   0.350481 0.233737 0.222490 -0.196051
C30   C     C_3   0.127646 0.412848 0.183363 -0.183730
C31   C     C_3   0.099693 0.211562 0.509063 -0.433094
C32   C     C_3   0.897091 0.353561 0.281798 -0.849208
C33   C     C_3   0.914150 0.741450 0.489135 -0.954288
C34   C     C_3   0.953642 0.619366 0.435765 -0.009433
C35   C     C_3   0.051716 0.624212 0.453874 -0.431935
C36   C     C_1   0.825363 0.496402 0.501396 -0.017464
C37   C     C_1   0.174522 0.495032 0.497071 -0.054470
C38   C     C_1   0.249740 0.497952 0.498866 -0.216800
C39   C     C_R   0.521314 0.064755 0.623659 0.011440
H1    H     H_    0.079045 0.542884 0.710725 0.182543
H2    H     H_    0.071289 0.380844 0.686561 0.194882
H3    H     H_    0.327356 0.517158 0.888029 0.125528
H4    H     H_    0.322351 0.491185 0.129514 0.076420
H5    H     H_    0.936060 0.292145 0.473349 0.162879
H6    H     H_    0.071049 0.694159 0.532771 0.192205
H7    H     H_    0.081938 0.657381 0.358389 0.199532
H8    H     H_    0.938603 0.381528 0.838838 0.254841
H9    H     H_    0.841964 0.390178 0.743650 0.249877
H10   H     H_    0.923166 0.282308 0.694017 0.242722
H11   H     H_    0.603239 0.204609 0.808573 0.176678
H12   H     H_    0.938412 0.570479 0.702879 0.183571
H13   H     H_    0.607829 0.041635 0.866792 0.163770
H14   H     H_    0.591291 0.167164 0.984031 0.165838
H15   H     H_    0.741170 0.658892 0.811132 0.192954
H16   H     H_    0.708695 0.510781 0.881144 0.154158
H17   H     H_    0.718497 0.650645 0.988212 0.145488
H18   H     H_    0.332990 0.222058 0.881732 0.283396
H19   H     H_    0.240863 0.316441 0.851377 0.208926
H20   H     H_    0.327752 0.318067 0.734421 0.223793
H21   H     H_    0.417193 0.209762 0.200198 0.185887
H22   H     H_    0.316124 0.143472 0.240375 0.165490
H23   H     H_    0.939642 0.617947 0.325339 0.198108
H24   H     H_    0.343656 0.289677 0.315674 0.176900
H25   H     H_    0.117708 0.317755 0.138991 0.214373
H26   H     H_    0.185931 0.415426 0.246657 0.193074
H27   H     H_    0.137642 0.479524 0.098488 0.145268
H28   H     H_    0.042346 0.204809 0.572853 0.157500
H29   H     H_    0.154631 0.255168 0.563038 0.179663
H30   H     H_    0.117899 0.113372 0.487923 0.208781
H31   H     H_    0.893898 0.438707 0.217516 0.254573
H32   H     H_    0.926871 0.277405 0.222632 0.265122
H33   H     H_    0.831201 0.321873 0.305336 0.230110
H34   H     H_    0.546522 0.115150 0.285460 0.167745
H35   H     H_    0.924995 0.754092 0.599300 0.243588
H36   H     H_    0.943273 0.823539 0.436382 0.253122
H37   H     H_    0.844845 0.742637 0.468068 0.254001
H38   H     H_    0.545785 0.886734 0.285211 0.171734
H39   H     H_    0.399533 0.880890 0.713141 0.157228
H40   H     H_    0.492773 0.884732 0.831805 0.234648
H41   H     H_    0.396986 0.103636 0.708415 0.069053
H42   H     H_    0.600269 0.631878 0.128670 0.166282
N1    N     N_R   0.499430 0.499140 0.142800 -0.149347
N2    N     N_R   0.499430 0.499180 0.857150 -0.162775
O1    O     O_R   0.500010 0.316790 0.614690 -0.607011
O2    O     O_3   0.614245 0.646151 0.856906 -0.579984
O3    O     O_3   0.312413 0.292922 0.111546 -0.617139
O4    O     O_3   0.054767 0.448869 0.255794 -0.670720
O5    O     O_3   0.085075 0.270910 0.383860 -0.630601
O6    O     O_R   0.500000 0.316760 0.385350 -0.637702
O7    O     O_R   0.377150 0.500020 0.614720 -0.620486
O8    O     O_R   0.377140 0.499990 0.385380 -0.629769
O9    O     O_R   0.500000 0.683240 0.614650 -0.575184
O10   O     O_R   0.499990 0.683210 0.385310 -0.627571
O11   O     O_R   0.622860 0.500010 0.614620 -0.580991
O12   O     O_R   0.622850 0.499980 0.385280 -0.615371
O13   O     O_3   0.487499 0.122785 0.865355 -0.589503
Zn1   Zn    Zn3+2 0.500010 0.500020 0.653130 0.982973
Zn2   Zn    Zn3+2 0.499990 0.499980 0.346870 0.927219

loop_
_geom_bond_atom_site_label_1
_geom_bond_atom_site_label_2
_ccdc_geom_bond_type
C29   H24   S    
C30   H25   S    
C9    C39   S    
O12   Zn2   S    
C7    C8    S    
C32   H33   S    
C28   H18   S    
C11   H42   S    
C1    O1    A    
C31   H28   S    
C12   C23   S    
C16   O10   A    
O1    Zn1   S    
C34   C35   S    
C26   H11   S    
C5    C6    A    
C27   H16   S    
C10   C17   S    
C20   O4    S    
C34   H23   S    
C1    C2    S    
C27   O2    S    
C2    C39   A    
C33   H36   S    
C20   C24   S    
C8    C9    S    
C8    H40   S    
C25   H8    S    
O7    Zn1   S    
C4    O8    A    
C8    H39   S    
C18   O12   A    
N1    Zn2   S    
C14   N2    A    
O9    Zn1   S    
C24   C37   S    
C32   H32   S    
C4    O7    A    
C11   N1    A    
C26   O13   S    
C31   H29   S    
C21   C32   S    
C29   H22   S    
C27   H15   S    
C24   C35   S    
C17   O3    S    
C10   C14   A    
C27   H17   S    
C32   H31   S    
O11   Zn1   S    
O6    Zn2   S    
C10   N1    A    
C9    H41   S    
C17   H4    S    
C37   C38   T    
C26   H13   S    
C21   H5    S    
C33   H37   S    
C25   H9    S    
C29   H21   S    
C23   C34   S    
C33   C34   S    
C9    O13   S    
C29   O3    S    
C30   H27   S    
C4    C38   S    
C16   O9    A    
C21   C23   S    
C18   O11   A    
C5    H38   S    
C35   H6    S    
C26   H14   S    
C12   H12   S    
C28   H20   S    
C15   C17   S    
C1    O6    A    
C31   O5    S    
C18   C22   S    
C15   H3    S    
C3    C5    A    
C6    C7    A    
C28   H19   S    
C22   C36   T    
C13   N2    A    
C12   C25   S    
C2    C3    A    
C11   C13   A    
C15   C28   S    
C20   O5    S    
C12   C19   S    
C19   C24   S    
O8    Zn2   S    
C3    H34   S    
C25   H10   S    
C30   H26   S    
C19   H1    S    
C6    C16   S    
C33   H35   S    
C31   H30   S    
C20   C21   S    
C23   C36   S    
N2    Zn1   S    
C13   O2    S    
C7    C39   A    
C14   C15   S    
C30   O4    S    
C35   H7    S    
O10   Zn2   S    
C19   H2    S    
