data_mof_unit_45825.cif
_audit_creation_date              2012-12-10T19:42:55-0500
_audit_creation_method            fapswitch 2.2
_symmetry_space_group_name_H-M    P1
_symmetry_Int_Tables_number       1
_space_group_crystal_system       triclinic
_cell_length_a                    10.962625
_cell_length_b                    13.109086
_cell_length_c                    11.65217
_cell_angle_alpha                 97.438573
_cell_angle_beta                  94.193616
_cell_angle_gamma                 92.748664
_cell_volume                      1653.2011999

loop_
_atom_site_label
_atom_site_type_symbol
_atom_type_description
_atom_site_fract_x
_atom_site_fract_y
_atom_site_fract_z
_atom_type_partial_charge
C1    C     C_R   0.508106 0.300470 0.482510 0.812086
C2    C     C_R   0.500911 0.700391 0.518322 0.815016
C3    C     C_R   0.872117 0.501160 0.503361 -0.074589
C4    C     C_R   0.128029 0.503253 0.495928 -0.075535
C5    C     C_R   0.949228 0.507193 0.607868 0.048717
C6    C     C_R   0.051383 0.501951 0.391633 0.048467
C7    C     C_R   0.492564 0.812424 0.522222 -0.103347
C8    C     C_R   0.536601 0.191518 0.482201 -0.133033
C9    C     C_R   0.624764 0.038315 0.393247 -0.177536
C10   C     C_R   0.409387 0.969694 0.605490 -0.171817
C11   C     C_R   0.609097 0.144079 0.396929 0.110293
C12   C     C_R   0.413502 0.863166 0.599202 0.105052
C13   C     C_R   0.499827 0.134453 0.571671 0.093716
C14   C     C_R   0.555731 0.868193 0.443958 0.099247
C15   C     C_R   0.487223 0.026917 0.544956 0.079885
C16   C     C_R   0.555380 0.977052 0.458841 0.048077
C17   C     C_R   0.412815 0.381881 0.023466 -0.345266
C18   C     C_R   0.591836 0.614557 0.977382 -0.347921
C19   C     C_R   0.412129 0.397681 0.144714 0.196067
C20   C     C_R   0.587741 0.602161 0.855995 0.187772
C21   C     C_R   0.541663 0.548749 0.155521 0.005332
C22   C     C_R   0.463586 0.447416 0.844006 -0.015863
C23   C     C_R   0.262020 0.501239 0.498966 0.801703
C24   C     C_R   0.738086 0.500647 0.500969 0.781692
C25   C     C_R   0.534371 0.540623 0.033446 0.069546
C26   C     C_R   0.469662 0.455835 0.966414 0.071952
C27   C     C_R   0.198103 0.596075 0.133893 -0.043865
C28   C     C_R   0.827127 0.460658 0.896699 -0.039831
C29   C     C_R   0.158779 0.595432 0.246345 -0.013288
C30   C     C_R   0.848255 0.444003 0.777783 -0.010566
C31   C     C_R   0.096845 0.506133 0.274688 0.041281
C32   C     C_R   0.907361 0.523379 0.727261 0.037490
C33   C     C_R   0.070186 0.421088 0.188408 -0.226535
C34   C     C_R   0.944778 0.616959 0.796511 -0.231646
C35   C     C_R   0.107028 0.421804 0.075559 0.182524
C36   C     C_R   0.924121 0.634106 0.914427 0.183540
C37   C     C_R   0.170679 0.510536 0.049114 -0.154946
C38   C     C_R   0.866404 0.554416 0.964327 -0.158832
C39   C     C_R   0.924858 0.498482 0.397167 -0.252061
C40   C     C_R   0.075327 0.506081 0.601648 -0.252985
Cu1   Cu    Cu3+1 0.509250 0.507730 0.615930 0.944421
Cu2   Cu    Cu3+1 0.490750 0.492270 0.384070 0.953478
H1    H     H_    0.202367 0.513171 0.963704 0.152715
H2    H     H_    0.849963 0.564550 0.055437 0.147644
H3    H     H_    0.410098 0.384469 0.791789 0.114839
H4    H     H_    0.601379 0.607545 0.206779 0.121409
H5    H     H_    0.367669 0.312893 0.974515 0.142007
H6    H     H_    0.641015 0.681071 0.027826 0.136846
H7    H     H_    0.021624 0.352949 0.209881 0.150072
H8    H     H_    0.991493 0.677224 0.757909 0.147332
H9    H     H_    0.867265 0.496566 0.317046 0.163541
H10   H     H_    0.133140 0.509467 0.681845 0.161344
H11   H     H_    0.691239 0.005047 0.338952 0.163262
H12   H     H_    0.347724 0.010293 0.660792 0.166066
N1    N     N_R   0.523180 0.519350 0.790130 -0.207909
N2    N     N_R   0.476820 0.480650 0.209870 -0.206058
O1    O     O_R   0.506570 0.354460 0.582000 -0.603369
O2    O     O_R   0.493430 0.645540 0.418000 -0.586815
O3    O     O_R   0.490940 0.341410 0.386200 -0.590382
O4    O     O_R   0.509060 0.658590 0.613800 -0.598700
O5    O     O_R   0.327460 0.506540 0.597900 -0.596719
O6    O     O_R   0.672540 0.493460 0.402100 -0.598914
O7    O     O_R   0.311830 0.493480 0.402100 -0.572006
O8    O     O_R   0.688170 0.506520 0.597900 -0.576155
C41   C     C_1   0.655755 0.678594 0.804539 0.311734
N3    N     N_1   0.710464 0.741039 0.764443 -0.318012
C42   C     C_1   0.339741 0.324644 0.197168 0.296048
N4    N     N_1   0.281075 0.265325 0.238249 -0.314509
C43   C     C_1   0.268683 0.683412 0.104004 0.223892
N5    N     N_1   0.325423 0.753239 0.080079 -0.302726
C44   C     C_1   0.767470 0.382013 0.952543 0.216400
N6    N     N_1   0.720306 0.319361 0.998261 -0.320097
C45   C     C_1   0.177864 0.687195 0.330719 0.227138
N7    N     N_1   0.192507 0.760855 0.397640 -0.301168
C46   C     C_1   0.818319 0.344026 0.710335 0.246073
N8    N     N_1   0.795062 0.264132 0.656286 -0.301968
C47   C     C_3   0.081907 0.324059 0.989797 -0.388714
C48   C     C_3   0.109966 0.332261 0.864389 -0.857693
H13   H     H_    0.070720 0.400839 0.834194 0.255107
H14   H     H_    0.209457 0.337888 0.855571 0.231998
H15   H     H_    0.070348 0.262661 0.806763 0.255474
H16   H     H_    0.135485 0.261951 0.021118 0.207696
H17   H     H_    0.983929 0.298689 0.988980 0.214358
C49   C     C_3   0.964779 0.738974 0.980837 -0.389547
C50   C     C_3   0.929543 0.758331 0.106008 -0.849345
H18   H     H_    0.828581 0.755130 0.108019 0.237950
H19   H     H_    0.968683 0.701316 0.158371 0.251236
H20   H     H_    0.966023 0.836282 0.146176 0.258111
H21   H     H_    0.065782 0.749892 0.980926 0.211371
H22   H     H_    0.924171 0.799179 0.933497 0.216777
C51   C     C_3   0.617646 0.812227 0.342524 -0.389553
C52   C     C_3   0.740145 0.771586 0.381851 -0.798629
H23   H     H_    0.806510 0.837176 0.415430 0.253250
H24   H     H_    0.730010 0.721935 0.451044 0.251933
H25   H     H_    0.777757 0.725467 0.307301 0.227144
H26   H     H_    0.553725 0.752170 0.294206 0.222522
H27   H     H_    0.632318 0.858407 0.271505 0.180931
C53   C     C_3   0.490650 0.182693 0.698543 -0.399124
C54   C     C_3   0.555686 0.124273 0.789445 -0.805443
H28   H     H_    0.647709 0.103365 0.763402 0.275944
H29   H     H_    0.567413 0.174206 0.874474 0.255564
H30   H     H_    0.502143 0.054217 0.804501 0.245208
H31   H     H_    0.540767 0.258134 0.718109 0.256014
H32   H     H_    0.393295 0.191407 0.716442 0.181829
C55   C     C_3   0.334120 0.802855 0.673394 -0.333674
C56   C     C_3   0.229899 0.859750 0.728783 -0.858075
H33   H     H_    0.266877 0.923182 0.796760 0.248277
H34   H     H_    0.170124 0.890361 0.661645 0.266189
H35   H     H_    0.173337 0.805310 0.771295 0.238836
H36   H     H_    0.290747 0.733036 0.618537 0.212293
H37   H     H_    0.393805 0.777641 0.744380 0.221362
C57   C     C_3   0.675053 0.208337 0.316850 -0.334790
C58   C     C_3   0.779130 0.158191 0.253830 -0.852707
H38   H     H_    0.848408 0.132951 0.317022 0.257996
H39   H     H_    0.742837 0.091869 0.189294 0.250531
H40   H     H_    0.825047 0.215307 0.206231 0.253194
H41   H     H_    0.607002 0.229628 0.249935 0.227393
H42   H     H_    0.716208 0.280231 0.369326 0.210059

loop_
_geom_bond_atom_site_label_1
_geom_bond_atom_site_label_2
_ccdc_geom_bond_type
C19   N2    A    
C39   H9    S    
C55   H36   S    
C8    C13   A    
C27   C29   A    
C1    C8    S    
Cu1   Cu2   S    
C2    C7    S    
Cu1   O5    S    
Cu2   O2    S    
C50   H18   S    
C17   C26   A    
C35   C37   A    
C9    C16   A    
C27   C37   A    
C58   H38   S    
C10   C15   A    
C1    O3    A    
C57   H41   S    
C33   C35   A    
C48   H14   S    
C29   C45   S    
C56   H33   S    
C47   H17   S    
C33   H7    S    
C53   H31   S    
C45   N7    T    
C13   C53   S    
Cu1   N1    S    
Cu2   N2    S    
C51   H26   S    
C7    C14   A    
C4    C40   A    
C31   C33   A    
C19   C42   S    
C30   C32   A    
Cu2   O6    S    
C18   C20   A    
C27   C43   S    
C47   C48   S    
C58   H40   S    
C23   O7    A    
C6    C31   S    
C55   H37   S    
C3    C39   A    
C24   O8    A    
C3    C24   S    
C18   C25   A    
C49   H22   S    
C20   N1    A    
C57   C58   S    
C50   H19   S    
C7    C12   A    
C34   H8    S    
C42   N4    T    
C20   C41   S    
C2    O4    A    
C49   C50   S    
C4    C6    A    
C51   C52   S    
C4    C23   S    
C48   H13   S    
C25   C26   A    
C40   H10   S    
C35   C47   S    
C52   H25   S    
C32   C34   A    
C37   H1    S    
C46   N8    T    
C38   H2    S    
C1    O1    A    
C54   H28   S    
C28   C38   A    
C54   H30   S    
C52   H24   S    
C51   H27   S    
C9    C11   A    
C10   C12   A    
C54   H29   S    
C53   C54   S    
C13   C15   A    
C14   C16   A    
C28   C44   S    
C9    H11   S    
C49   H21   S    
C21   H4    S    
C50   H20   S    
C21   C25   A    
C24   O6    A    
C11   C57   S    
C17   H5    S    
Cu1   O4    S    
C3    C5    A    
C18   H6    S    
Cu2   O3    S    
C21   N2    A    
C2    O2    A    
C22   N1    A    
C55   C56   S    
C5    C32   S    
C28   C30   A    
Cu1   O1    S    
C44   N6    T    
C29   C31   A    
C57   H42   S    
C30   C46   S    
C48   H15   S    
C12   C55   S    
C56   H34   S    
C47   H16   S    
C36   C49   S    
C8    C11   A    
C53   H32   S    
C36   C38   A    
C52   H23   S    
C17   C19   A    
C34   C36   A    
C43   N5    T    
C10   H12   S    
C14   C51   S    
C23   O5    A    
C22   H3    S    
C41   N3    T    
C22   C26   A    
C5    C40   A    
C6    C39   A    
Cu1   O8    S    
Cu2   O7    S    
C15   C16   A    
C58   H39   S    
C56   H35   S    
