data_mof_unit_31168.cif
_audit_creation_date              2012-12-10T17:15:46-0500
_audit_creation_method            fapswitch 2.2
_symmetry_space_group_name_H-M    P1
_symmetry_Int_Tables_number       1
_space_group_crystal_system       triclinic
_cell_length_a                    17.364977
_cell_length_b                    12.963878
_cell_length_c                    11.670173
_cell_angle_alpha                 100.377831
_cell_angle_beta                  90.051152
_cell_angle_gamma                 90.93115
_cell_volume                      2583.82170178

loop_
_atom_site_label
_atom_site_type_symbol
_atom_type_description
_atom_site_fract_x
_atom_site_fract_y
_atom_site_fract_z
_atom_type_partial_charge
C1    C     C_R   0.502287 0.299038 0.477659 0.796671
C2    C     C_R   0.497713 0.700962 0.522341 0.796673
C3    C     C_R   0.491836 0.814789 0.536399 -0.118491
C4    C     C_R   0.508164 0.185210 0.463601 -0.118491
C5    C     C_R   0.550592 0.015273 0.363867 -0.184326
C6    C     C_R   0.449408 0.984727 0.636133 -0.184325
C7    C     C_R   0.546834 0.124089 0.367888 0.124690
C8    C     C_R   0.453166 0.875911 0.632112 0.124689
C9    C     C_R   0.476290 0.138073 0.551766 -0.278399
C10   C     C_R   0.523710 0.861927 0.448234 -0.278399
C11   C     C_R   0.481401 0.030799 0.547247 0.120731
C12   C     C_R   0.518599 0.969201 0.452753 0.120731
C13   C     C_R   0.425113 0.405369 0.027773 -0.426553
C14   C     C_R   0.574887 0.594631 0.972227 -0.426553
C15   C     C_R   0.432923 0.411600 0.150466 0.659099
C16   C     C_R   0.567077 0.588400 0.849534 0.659100
C17   C     C_R   0.532542 0.540378 0.154171 -0.047847
C18   C     C_R   0.467458 0.459621 0.845829 -0.047848
C19   C     C_R   0.527208 0.534082 0.031862 0.026180
C20   C     C_R   0.472792 0.465918 0.968138 0.026179
C21   C     C_R   0.350812 0.502156 0.515273 0.819601
C22   C     C_R   0.649188 0.497843 0.484726 0.819601
C23   C     C_R   0.267026 0.507772 0.523624 -0.097555
C24   C     C_R   0.732974 0.492224 0.476375 -0.097557
C25   C     C_R   0.223371 0.510116 0.423101 -0.187293
C26   C     C_R   0.776628 0.489871 0.576897 -0.187293
C27   C     C_R   0.144007 0.517497 0.429788 -0.231061
C28   C     C_R   0.855992 0.482487 0.570209 -0.231060
C29   C     C_R   0.106631 0.520401 0.536790 0.091508
C30   C     C_R   0.893368 0.479587 0.463208 0.091503
C31   C     C_R   0.149944 0.518554 0.638300 0.466924
C32   C     C_R   0.850055 0.481441 0.361700 0.466928
C33   C     C_R   0.230201 0.513598 0.631427 -0.298019
C34   C     C_R   0.769799 0.486402 0.368574 -0.298016
C35   C     C_2   0.022444 0.524861 0.543398 -0.218934
C36   C     C_2   0.977556 0.475124 0.456599 -0.218937
Cu1   Cu    Cu3+1 0.505800 0.507690 0.615350 0.971044
Cu2   Cu    Cu3+1 0.494200 0.492310 0.384650 0.971044
H1    H     H_    0.250496 0.507470 0.339090 0.183787
H2    H     H_    0.749503 0.492514 0.660907 0.183784
H3    H     H_    0.381929 0.354759 0.978610 0.127421
H4    H     H_    0.618070 0.645241 0.021390 0.127422
H5    H     H_    0.736728 0.486227 0.289772 0.165560
H6    H     H_    0.263272 0.513779 0.710229 0.165559
H7    H     H_    0.002839 0.432152 0.377489 0.189621
H8    H     H_    0.997160 0.567833 0.622509 0.189624
H9    H     H_    0.887852 0.477774 0.648832 0.154557
H10   H     H_    0.112147 0.522204 0.351163 0.154555
H11   H     H_    0.553056 0.814571 0.375609 0.147620
H12   H     H_    0.446944 0.185429 0.624391 0.147619
H13   H     H_    0.578630 0.965223 0.292432 0.143721
H14   H     H_    0.421370 0.034777 0.707568 0.143721
H15   H     H_    0.425853 0.406573 0.795988 0.136350
H16   H     H_    0.574147 0.593427 0.204012 0.136350
N1    N     N_R   0.514530 0.519260 0.788680 -0.213245
N2    N     N_R   0.485470 0.480740 0.211320 -0.213244
O1    O     O_R   0.504120 0.354440 0.581590 -0.588252
O2    O     O_R   0.495880 0.645560 0.418410 -0.588252
O3    O     O_R   0.494320 0.341440 0.386760 -0.561339
O4    O     O_R   0.505680 0.658560 0.613240 -0.561339
O5    O     O_R   0.391870 0.507230 0.608700 -0.609047
O6    O     O_R   0.608130 0.492770 0.391300 -0.609047
O7    O     O_R   0.382070 0.494240 0.413880 -0.536108
O8    O     O_R   0.617930 0.505760 0.586120 -0.536108
O9    O     O_3   0.614725 0.644712 0.786274 -0.554126
C37   C     C_3   0.634606 0.745788 0.847835 0.015273
H17   H     H_    0.682655 0.740627 0.909441 0.144810
H18   H     H_    0.584434 0.785178 0.895618 0.129235
C38   C     C_3   0.662675 0.813290 0.761861 -0.758947
H19   H     H_    0.615905 0.822582 0.699984 0.248899
H20   H     H_    0.680526 0.892075 0.809489 0.197858
H21   H     H_    0.712656 0.776169 0.712258 0.245787
O10   O     O_3   0.385275 0.355288 0.213726 -0.554128
C39   C     C_3   0.365395 0.254211 0.152166 0.015273
H22   H     H_    0.415567 0.214822 0.104384 0.129236
H23   H     H_    0.317346 0.259372 0.090558 0.144809
C40   C     C_3   0.337325 0.186711 0.238140 -0.758948
H24   H     H_    0.287343 0.223831 0.287740 0.245787
H25   H     H_    0.319475 0.107925 0.190512 0.197858
H26   H     H_    0.384094 0.177420 0.300018 0.248900
O11   O     O_3   0.113972 0.525361 0.744941 -0.589680
C41   C     C_3   0.107241 0.423619 0.771551 0.048631
H27   H     H_    0.165069 0.391723 0.785040 0.138539
H28   H     H_    0.076128 0.369259 0.700998 0.144736
C42   C     C_3   0.061513 0.428726 0.883373 -0.780565
H29   H     H_    0.003100 0.459087 0.871902 0.245831
H30   H     H_    0.055864 0.349168 0.905527 0.202484
H31   H     H_    0.091441 0.481374 0.955992 0.249620
O12   O     O_3   0.886027 0.474639 0.255059 -0.589680
C43   C     C_3   0.892767 0.576385 0.228462 0.048636
H32   H     H_    0.923886 0.630735 0.299019 0.144734
H33   H     H_    0.834940 0.608293 0.214982 0.138533
C44   C     C_3   0.938492 0.571280 0.116637 -0.780542
H34   H     H_    0.908557 0.518642 0.044014 0.249617
H35   H     H_    0.944147 0.650842 0.094494 0.202481
H36   H     H_    0.996904 0.540907 0.128101 0.245826
C45   C     C_3   0.415235 0.824045 0.725824 -0.353007
C46   C     C_3   0.364025 0.893970 0.812934 -0.887472
H37   H     H_    0.398931 0.956719 0.867722 0.244607
H38   H     H_    0.317989 0.928877 0.766696 0.257253
H39   H     H_    0.336218 0.845915 0.871548 0.252858
H40   H     H_    0.378541 0.757214 0.682433 0.207120
H41   H     H_    0.460816 0.792945 0.776397 0.221637
C47   C     C_3   0.584765 0.175955 0.274176 -0.353007
C48   C     C_3   0.635976 0.106031 0.187066 -0.887471
H42   H     H_    0.682012 0.071124 0.233305 0.257253
H43   H     H_    0.601070 0.043281 0.132279 0.244606
H44   H     H_    0.663783 0.154085 0.128454 0.252859
H45   H     H_    0.539185 0.207055 0.223603 0.221637
H46   H     H_    0.621460 0.242786 0.317568 0.207120

loop_
_geom_bond_atom_site_label_1
_geom_bond_atom_site_label_2
_ccdc_geom_bond_type
C27   H10   S    
C37   H18   S    
C28   H9    S    
C44   H34   S    
C27   C29   A    
O10   C39   S    
C19   C20   A    
C13   H3    S    
C45   C46   S    
C40   H24   S    
C48   H43   S    
C39   H23   S    
C24   C26   A    
C1    O3    A    
C47   H45   S    
C2    O4    A    
C40   H26   S    
C37   C38   S    
C46   H37   S    
C18   C20   A    
C38   H20   S    
C41   H28   S    
C18   H15   S    
Cu2   O2    S    
C35   C36   D    
C23   C33   A    
C39   C40   S    
C31   C33   A    
C30   C32   A    
C21   O5    A    
C45   H40   S    
C14   H4    S    
C42   H30   S    
C37   H17   S    
C44   H35   S    
C4    C7    A    
C47   C48   S    
O11   C41   S    
C40   H25   S    
C48   H44   S    
C39   H22   S    
C34   H5    S    
C5    C12   A    
C3    C8    A    
C6    C11   A    
C5    C7    A    
C6    C8    A    
C42   H29   S    
C24   C34   A    
C32   C34   A    
C38   H21   S    
C8    C45   S    
Cu1   Cu2   S    
C1    O1    A    
C22   O6    A    
C43   H33   S    
C32   O12   S    
C36   H7    S    
C9    C11   A    
C17   N2    A    
C45   H41   S    
C10   C12   A    
C18   N1    A    
C15   O10   S    
C41   H27   S    
C44   H36   S    
C46   H38   S    
C7    C47   S    
C13   C15   A    
C14   C16   A    
C41   C42   S    
Cu1   O8    S    
C43   C44   S    
Cu2   O7    S    
C42   H31   S    
C13   C20   A    
C33   H6    S    
C14   C19   A    
C9    H12   S    
Cu1   O5    S    
C11   C12   A    
C2    O2    A    
C25   C27   A    
C46   H39   S    
C48   H42   S    
C29   C35   S    
C26   C28   A    
C31   O11   S    
C30   C36   S    
C1    C4    S    
C15   N2    A    
C21   C23   S    
C2    C3    S    
C4    C9    A    
C16   N1    A    
C29   C31   A    
C3    C10   A    
C25   H1    S    
C47   H46   S    
C10   H11   S    
C26   H2    S    
C43   H32   S    
C28   C30   A    
C17   C19   A    
C22   C24   S    
C23   C25   A    
C38   H19   S    
C21   O7    A    
Cu1   O4    S    
C22   O8    A    
Cu2   O3    S    
Cu1   N1    S    
Cu2   N2    S    
O9    C37   S    
C5    H13   S    
C16   O9    S    
C6    H14   S    
O12   C43   S    
C35   H8    S    
C17   H16   S    
Cu1   O1    S    
Cu2   O6    S    
