data_mof_unit_17712.cif
_audit_creation_date              2012-12-11T17:25:01-0500
_audit_creation_method            fapswitch 2.2
_symmetry_space_group_name_H-M    P1
_symmetry_Int_Tables_number       1
_space_group_crystal_system       triclinic
_cell_length_a                    6.951916
_cell_length_b                    20.528417
_cell_length_c                    24.506777
_cell_angle_alpha                 90.066717
_cell_angle_beta                  90.346611
_cell_angle_gamma                 89.373911
_cell_volume                      3497.13210168

loop_
_atom_site_label
_atom_site_type_symbol
_atom_type_description
_atom_site_fract_x
_atom_site_fract_y
_atom_site_fract_z
_atom_type_partial_charge
O1    O     O_R   0.507280 0.423750 0.460310 -0.535606
O2    O     O_R   0.171030 0.555650 0.437630 -0.537941
O3    O     O_R   0.004080 0.576250 0.539690 -0.529091
C1    C     C_R   0.339091 0.575700 0.421803 0.719816
O4    O     O_R   0.177330 0.422980 0.453960 -0.538018
O5    O     O_R   0.010420 0.442640 0.556140 -0.531803
C2    C     C_R   0.346445 0.399104 0.443275 0.696351
O6    O     O_R   0.500930 0.557360 0.443860 -0.535608
O7    O     O_3   0.340310 0.506600 0.533500 -0.370012
V1    V     V_3+5 0.064140 0.498780 0.493780 1.432817
O8    O     O_R   0.680890 0.444350 0.562370 -0.540070
C3    C     C_R   0.850592 0.424520 0.578235 0.741899
O9    O     O_R   0.674590 0.577020 0.546040 -0.547928
C4    C     C_R   0.842149 0.601012 0.556781 0.753749
V2    V     V_3+5 0.564550 0.501220 0.506220 1.406805
O10   O     O_3   0.838250 0.493400 0.466500 -0.368261
C5    C     C_R   0.977672 0.838101 0.911170 -0.038751
C6    C     C_R   0.841229 0.661639 0.589472 -0.135934
C7    C     C_R   0.052591 0.723116 0.905425 -0.119242
C8    C     C_R   0.040866 0.780407 0.935615 -0.193142
C9    C     C_R   0.927301 0.838261 0.855546 -0.188059
C10   C     C_R   0.939210 0.780343 0.823399 0.023500
C11   C     C_R   0.003560 0.722224 0.849578 0.056465
C12   C     C_R   0.890517 0.778273 0.766398 0.053662
C13   C     C_R   0.917783 0.719277 0.735807 0.004326
C14   C     C_R   0.969497 0.662407 0.764645 -0.275960
C15   C     C_R   0.018086 0.663644 0.820174 0.366903
C16   C     C_R   0.807106 0.832444 0.739532 -0.166911
C17   C     C_R   0.748013 0.828782 0.685493 -0.184505
C18   C     C_R   0.778841 0.772406 0.654902 0.095632
C19   C     C_R   0.876108 0.717866 0.678144 0.005138
C20   C     C_R   0.709824 0.770272 0.601150 -0.183090
C21   C     C_R   0.733457 0.714482 0.569784 -0.251360
C22   C     C_R   0.924867 0.664728 0.642191 0.312671
H1    H     H_    0.668582 0.712697 0.529492 0.132947
H2    H     H_    0.676713 0.870816 0.667392 0.119907
H3    H     H_    0.102846 0.679463 0.926071 0.161285
H4    H     H_    0.082927 0.779853 0.978265 0.110956
H5    H     H_    0.886491 0.884725 0.838411 0.091362
H6    H     H_    0.961177 0.615184 0.745776 0.193152
H7    H     H_    0.776126 0.877816 0.759876 0.118587
H8    H     H_    0.630913 0.811239 0.583889 0.126615
H9    H     H_    0.619710 0.200733 0.789342 0.111807
C23   C     C_R   0.730289 0.266973 0.729390 -0.155379
H10   H     H_    0.588603 0.279112 0.713531 0.111075
C24   C     C_R   0.894256 0.295616 0.706870 0.137137
C25   C     C_R   0.076196 0.278918 0.728210 -0.154180
H11   H     H_    0.204538 0.300420 0.711422 0.112263
C26   C     C_R   0.093959 0.234197 0.771394 -0.155568
H12   H     H_    0.235653 0.222031 0.787230 0.111375
C27   C     C_R   0.930006 0.205484 0.793865 0.136777
C28   C     C_R   0.748050 0.222256 0.772574 -0.155548
C29   C     C_1   0.876354 0.341529 0.661774 -0.058556
C30   C     C_1   0.947953 0.159252 0.838739 -0.060273
C31   C     C_1   0.961139 0.120886 0.876404 -0.192191
C32   C     C_1   0.863157 0.379568 0.623883 -0.186503
H13   H     H_    0.699144 0.702445 0.296368 0.112430
C33   C     C_R   0.596780 0.767482 0.233357 -0.155295
H14   H     H_    0.740697 0.780330 0.220899 0.110999
C34   C     C_R   0.436051 0.795039 0.206677 0.136005
C35   C     C_R   0.251211 0.777282 0.223801 -0.155207
H15   H     H_    0.125075 0.797830 0.203834 0.112544
C36   C     C_R   0.227439 0.732797 0.266848 -0.155638
H16   H     H_    0.083522 0.719945 0.279303 0.110924
C37   C     C_R   0.388168 0.705239 0.293528 0.135892
C38   C     C_R   0.573008 0.722997 0.276404 -0.155521
C39   C     C_1   0.459772 0.841029 0.161756 -0.059036
C40   C     C_1   0.364449 0.659224 0.338430 -0.059880
C41   C     C_1   0.349079 0.621004 0.376169 -0.193148
C42   C     C_1   0.475150 0.879211 0.123990 -0.192147
C43   C     C_R   0.471679 0.161587 0.089066 -0.042753
C44   C     C_R   0.353299 0.338499 0.411005 -0.043008
C45   C     C_R   0.528403 0.277341 0.094508 -0.159511
C46   C     C_R   0.521013 0.220098 0.064164 -0.166839
C47   C     C_R   0.430286 0.160562 0.145173 -0.214356
C48   C     C_R   0.440076 0.218297 0.177476 0.086809
C49   C     C_R   0.489810 0.276956 0.150660 0.138203
C50   C     C_R   0.404942 0.219915 0.235233 0.057987
C51   C     C_R   0.420197 0.280168 0.264844 0.057594
C52   C     C_R   0.469520 0.336756 0.235685 -0.186347
C53   C     C_R   0.503074 0.334995 0.179937 -0.199513
C54   C     C_R   0.355689 0.163322 0.264394 -0.186580
C55   C     C_R   0.322174 0.165080 0.320144 -0.201056
C56   C     C_R   0.335381 0.223122 0.349418 0.139320
C57   C     C_R   0.385032 0.281787 0.322600 0.086750
C58   C     C_R   0.296804 0.222733 0.405571 -0.161020
C59   C     C_R   0.304098 0.279979 0.435912 -0.168230
C60   C     C_R   0.394686 0.339530 0.354897 -0.214206
H17   H     H_    0.541122 0.379815 0.159479 0.125090
H18   H     H_    0.429204 0.386245 0.337806 0.094430
H19   H     H_    0.269936 0.278739 0.478979 0.106872
H20   H     H_    0.284195 0.120255 0.340604 0.123458
H21   H     H_    0.567105 0.322085 0.074073 0.116048
H22   H     H_    0.555166 0.221335 0.021096 0.108417
H23   H     H_    0.395611 0.113857 0.162256 0.094066
H24   H     H_    0.484152 0.383688 0.254776 0.124282
H25   H     H_    0.341127 0.116385 0.245308 0.123807
H26   H     H_    0.258174 0.177983 0.426008 0.113568
O11   O     O_R   0.323320 0.942780 0.056240 -0.534968
O12   O     O_R   0.647300 0.077050 0.046060 -0.537680
O13   O     O_R   0.813840 0.057330 0.943840 -0.535134
C61   C     C_R   0.478283 0.100985 0.056787 0.695391
O14   O     O_R   0.653250 0.944380 0.062400 -0.536607
O15   O     O_R   0.819830 0.923720 0.960300 -0.536275
C62   C     C_R   0.485158 0.924443 0.078304 0.724614
O16   O     O_R   0.317330 0.076390 0.039790 -0.536237
O17   O     O_3   0.483830 0.993470 0.966560 -0.367105
V3    V     V_3+5 0.760140 0.001210 0.006210 1.425166
O18   O     O_R   0.149290 0.922840 0.953850 -0.538352
C63   C     C_R   0.981385 0.898978 0.943189 0.692745
O19   O     O_R   0.143340 0.055500 0.937510 -0.537687
C64   C     C_R   0.973673 0.075565 0.921810 0.725594
V4    V     V_3+5 0.259690 0.998600 0.993650 1.425099
O20   O     O_3   0.986130 0.006520 0.033440 -0.366253
O21   O     O_3   0.064060 0.606391 0.847675 -0.556128
C65   C     C_3   0.227782 0.576246 0.824288 0.086624
H27   H     H_    0.338351 0.612356 0.811966 0.119837
H28   H     H_    0.184364 0.546772 0.788289 0.135744
C66   C     C_3   0.319846 0.530591 0.865959 -0.690611
H29   H     H_    0.215429 0.492919 0.878429 0.225271
H30   H     H_    0.447809 0.506159 0.847894 0.182724
H31   H     H_    0.365734 0.558584 0.902518 0.220907
O22   O     O_3   0.054712 0.616325 0.656996 -0.573798
C67   C     C_3   0.242687 0.639943 0.649032 0.096726
H32   H     H_    0.269978 0.683769 0.674699 0.122460
H33   H     H_    0.266195 0.652390 0.605331 0.132144
C68   C     C_3   0.388302 0.587515 0.665192 -0.664397
H34   H     H_    0.365570 0.542873 0.640499 0.232876
H35   H     H_    0.536281 0.605293 0.658287 0.176790
H36   H     H_    0.373046 0.575413 0.709005 0.188825

loop_
_geom_bond_atom_site_label_1
_geom_bond_atom_site_label_2
_ccdc_geom_bond_type
C13   C19   A    
O15   C63   A    
C36   C37   A    
C22   O22   S    
C59   H19   S    
C31   C64   S    
C45   C46   A    
C4    C6    S    
O2    C1    A    
C7    C8    A    
C45   H21   S    
H13   C38   S    
C1    O6    A    
C5    C63   S    
C26   H12   S    
C47   H23   S    
O22   C67   S    
C25   C26   A    
C43   C47   A    
O13   C64   A    
C55   H20   S    
C17   H2    S    
C14   C15   A    
C16   C17   A    
C48   C50   A    
O5    C3    A    
C18   C19   A    
H9    C28   S    
C66   H31   S    
C33   C34   A    
O21   C65   S    
C16   H7    S    
C5    C8    A    
C65   H27   S    
V3    O20   S    
C35   C36   A    
C46   H22   S    
O17   V4    S    
C7    H3    S    
C30   C31   T    
O8    V2    S    
C33   C38   A    
C25   H11   S    
C34   C39   S    
C40   C41   T    
C26   C27   A    
O17   V3    S    
O14   V3    S    
O1    V2    S    
C11   C15   A    
C52   H24   S    
O7    V1    S    
O18   V4    S    
C53   H17   S    
C23   C28   A    
O13   V3    S    
O1    C2    A    
O9    C4    A    
C1    C41   S    
C44   C60   A    
C23   C24   A    
C48   C49   A    
C66   H30   S    
O11   C62   A    
O12   V3    S    
O16   V4    S    
C27   C28   A    
C12   C13   A    
O14   C62   A    
C2    C44   S    
O4    C2    A    
C50   C51   A    
C33   H14   S    
C5    C9    A    
C51   C52   A    
C34   C35   A    
C7    C11   A    
C47   C48   A    
C68   H35   S    
O5    V1    S    
C17   C18   A    
C8    H4    S    
C50   C54   A    
C55   C56   A    
C9    H5    S    
C49   C53   A    
C66   H29   S    
C37   C40   S    
O12   C61   A    
C19   C22   A    
O19   V4    S    
C56   C57   A    
C6    C22   A    
C3    C32   S    
O3    C4    A    
C67   C68   S    
C43   C61   S    
C60   H18   S    
C37   C38   A    
O6    V2    S    
O9    V2    S    
C54   H25   S    
C10   C12   A    
C68   H34   S    
O2    V1    S    
O15   V3    S    
C44   C59   A    
C23   H10   S    
C67   H33   S    
V4    O20   S    
C57   C60   A    
C24   C25   A    
C20   H8    S    
O19   C64   A    
C58   C59   A    
C12   C16   A    
C56   C58   A    
C52   C53   A    
C42   C62   S    
O11   V4    S    
C43   C46   A    
O8    C3    A    
C65   C66   S    
C39   C42   T    
C20   C21   A    
C27   C30   S    
C13   C14   A    
C68   H36   S    
O4    V1    S    
O3    V1    S    
V1    O10   S    
O18   C63   A    
C18   C20   A    
C14   H6    S    
C24   C29   S    
C21   H1    S    
C51   C57   A    
C65   H28   S    
C61   O16   A    
O7    V2    S    
C35   H15   S    
C58   H26   S    
C6    C21   A    
C29   C32   T    
C36   H16   S    
C54   C55   A    
C45   C49   A    
C10   C11   A    
C9    C10   A    
V2    O10   S    
C67   H32   S    
C15   O21   S    
