data_mof_unit_28587.cif
_audit_creation_date              2012-12-10T18:45:34-0500
_audit_creation_method            fapswitch 2.2
_symmetry_space_group_name_H-M    P1
_symmetry_Int_Tables_number       1
_space_group_crystal_system       triclinic
_cell_length_a                    19.402648
_cell_length_b                    18.170977
_cell_length_c                    10.783006
_cell_angle_alpha                 90.217293
_cell_angle_beta                  90.192035
_cell_angle_gamma                 90.037232
_cell_volume                      3801.66174383

loop_
_atom_site_label
_atom_site_type_symbol
_atom_type_description
_atom_site_fract_x
_atom_site_fract_y
_atom_site_fract_z
_atom_type_partial_charge
C1    C     C_R   0.367608 0.499980 0.499825 0.814735
C2    C     C_R   0.632392 0.500020 0.500175 0.814743
C3    C     C_R   0.707848 0.500055 0.500333 -0.138635
C4    C     C_R   0.292152 0.499944 0.499668 -0.138431
C5    C     C_R   0.963827 0.503572 0.387721 -0.139626
C6    C     C_R   0.036172 0.496421 0.612278 -0.139473
C7    C     C_R   0.035603 0.503577 0.387551 -0.139381
C8    C     C_R   0.964396 0.496414 0.612448 -0.139524
C9    C     C_R   0.072051 0.499995 0.499829 0.207591
C10   C     C_R   0.927948 0.499998 0.500171 0.207671
C11   C     C_R   0.456148 0.720748 0.423617 0.094908
C12   C     C_R   0.543852 0.279252 0.576383 0.094911
C13   C     C_R   0.543828 0.721157 0.576402 0.092675
C14   C     C_R   0.456172 0.278843 0.423597 0.092663
C15   C     C_R   0.455331 0.798040 0.422117 -0.280410
C16   C     C_R   0.544668 0.201960 0.577884 -0.280392
C17   C     C_R   0.544643 0.798457 0.577887 -0.280779
C18   C     C_R   0.455357 0.201543 0.422113 -0.280800
C19   C     C_R   0.499989 0.838422 0.499996 0.109131
C20   C     C_R   0.500010 0.161578 0.500004 0.109127
C21   C     C_R   0.510806 0.961579 0.610280 -0.174066
C22   C     C_R   0.489194 0.038420 0.389720 -0.174065
C23   C     C_R   0.489184 0.961071 0.389718 -0.175189
C24   C     C_R   0.510815 0.038929 0.610282 -0.175192
C25   C     C_R   0.500008 0.078720 0.500002 0.119281
C26   C     C_R   0.499991 0.921279 0.499998 0.119281
C27   C     C_R   0.500028 0.499897 0.262735 0.799357
C28   C     C_R   0.499977 0.500103 0.737265 0.799354
C29   C     C_R   0.372639 0.500202 0.128487 -0.159009
C30   C     C_R   0.627367 0.499787 0.871513 -0.158983
C31   C     C_R   0.372597 0.500455 0.870154 -0.143703
C32   C     C_R   0.627410 0.499561 0.129847 -0.143673
C33   C     C_R   0.310443 0.500418 0.063446 -0.145997
C34   C     C_R   0.689563 0.499577 0.936554 -0.145984
C35   C     C_R   0.310422 0.500548 0.934520 -0.144213
C36   C     C_R   0.689585 0.499466 0.065481 -0.144201
C37   C     C_R   0.436436 0.500270 0.934364 0.070546
C38   C     C_R   0.563571 0.499734 0.065637 0.070532
C39   C     C_R   0.436455 0.500071 0.064954 0.066884
C40   C     C_R   0.563551 0.499927 0.935045 0.066869
C41   C     C_R   0.499985 0.500257 0.870939 -0.179820
C42   C     C_R   0.500021 0.499743 0.129061 -0.179819
C43   C     C_R   0.744000 0.439271 0.546053 -0.306477
C44   C     C_R   0.256000 0.560702 0.453856 -0.306655
C45   C     C_R   0.256079 0.439170 0.545353 -0.311194
C46   C     C_R   0.743924 0.560853 0.454740 -0.311000
C47   C     C_R   0.816300 0.439809 0.550714 0.409904
C48   C     C_R   0.183697 0.560160 0.449188 0.409948
C49   C     C_R   0.183814 0.439736 0.549991 0.408061
C50   C     C_R   0.816186 0.560286 0.450107 0.408008
C51   C     C_R   0.852207 0.500029 0.500340 -0.088164
C52   C     C_R   0.147793 0.499965 0.499659 -0.087954
Cu1   Cu    Cu3+1 0.500000 0.573360 0.500000 0.934925
Cu2   Cu    Cu3+1 0.500000 0.426640 0.500000 0.934921
H1    H     H_    0.737923 0.499242 0.115891 0.122133
H2    H     H_    0.262084 0.500786 0.884111 0.122159
H3    H     H_    0.737885 0.499566 0.886673 0.121969
H4    H     H_    0.262122 0.500419 0.113326 0.121995
H5    H     H_    0.370119 0.500106 0.228653 0.118618
H6    H     H_    0.629887 0.499872 0.771347 0.118613
H7    H     H_    0.370044 0.500556 0.769970 0.123412
H8    H     H_    0.629962 0.499471 0.230030 0.123407
H9    H     H_    0.715944 0.391778 0.579167 0.156251
H10   H     H_    0.284061 0.608174 0.420671 0.156117
H11   H     H_    0.284161 0.391665 0.578514 0.163616
H12   H     H_    0.715850 0.608381 0.421650 0.163747
H13   H     H_    0.936208 0.505770 0.300353 0.126248
H14   H     H_    0.063792 0.494222 0.699646 0.126397
H15   H     H_    0.062781 0.505788 0.300059 0.126704
H16   H     H_    0.937218 0.494201 0.699939 0.126565
H17   H     H_    0.421422 0.690374 0.363658 0.115493
H18   H     H_    0.578577 0.309626 0.636342 0.115507
H19   H     H_    0.578525 0.691100 0.636403 0.124386
H20   H     H_    0.421475 0.308900 0.363597 0.124384
H21   H     H_    0.419211 0.825835 0.361639 0.129322
H22   H     H_    0.580788 0.174165 0.638361 0.129338
H23   H     H_    0.580753 0.826579 0.638376 0.131327
H24   H     H_    0.419247 0.173421 0.361624 0.131320
H25   H     H_    0.518109 0.933339 0.697539 0.129218
H26   H     H_    0.481890 0.066661 0.302461 0.129219
H27   H     H_    0.481875 0.932428 0.302460 0.128843
H28   H     H_    0.518125 0.067571 0.697540 0.128841
N1    N     N_R   0.500000 0.683620 0.500000 -0.172972
N2    N     N_R   0.500000 0.316380 0.500000 -0.172975
O1    O     O_R   0.400190 0.561980 0.499980 -0.587042
O2    O     O_R   0.599810 0.438020 0.500020 -0.587047
O3    O     O_R   0.599810 0.561980 0.500020 -0.589841
O4    O     O_R   0.400190 0.438020 0.499980 -0.589839
O5    O     O_R   0.500000 0.561950 0.319660 -0.585121
O6    O     O_R   0.500000 0.438050 0.680340 -0.585124
O7    O     O_R   0.500000 0.561950 0.680340 -0.579794
O8    O     O_R   0.500000 0.438050 0.319660 -0.579793
O9    O     O_3   0.853223 0.379632 0.593906 -0.565608
C53   C     C_3   0.832486 0.361150 0.715497 0.062512
H29   H     H_    0.785610 0.325990 0.712174 0.147834
H30   H     H_    0.822235 0.410867 0.773669 0.119176
C54   C     C_3   0.889753 0.317676 0.777864 -0.771754
H31   H     H_    0.936873 0.352093 0.785143 0.237178
H32   H     H_    0.873530 0.301307 0.872496 0.197116
H33   H     H_    0.901504 0.267377 0.723064 0.258789
O10   O     O_3   0.146754 0.620304 0.405897 -0.565697
C55   C     C_3   0.167664 0.638941 0.284469 0.062577
H34   H     H_    0.178252 0.589307 0.226294 0.119262
H35   H     H_    0.214383 0.674328 0.288175 0.147944
C56   C     C_3   0.110344 0.682164 0.221764 -0.772051
H36   H     H_    0.098218 0.732346 0.276601 0.258900
H37   H     H_    0.126723 0.698712 0.127309 0.197214
H38   H     H_    0.063407 0.647495 0.214008 0.236864
O11   O     O_3   0.147021 0.379526 0.593109 -0.566167
C57   C     C_3   0.167574 0.361739 0.715327 0.063351
H39   H     H_    0.177046 0.411803 0.773227 0.119264
H40   H     H_    0.214868 0.327271 0.713450 0.151774
C58   C     C_3   0.110610 0.317629 0.776791 -0.771526
H41   H     H_    0.099735 0.266906 0.722337 0.258752
H42   H     H_    0.126642 0.301942 0.872043 0.196868
H43   H     H_    0.063024 0.351308 0.782406 0.238037
O12   O     O_3   0.852961 0.620527 0.407091 -0.566073
C59   C     C_3   0.832599 0.638148 0.284703 0.063289
H44   H     H_    0.785140 0.672364 0.286162 0.151663
H45   H     H_    0.823491 0.587999 0.226822 0.119158
C60   C     C_3   0.889497 0.682528 0.223595 -0.771259
H46   H     H_    0.937274 0.649128 0.218506 0.238392
H47   H     H_    0.873639 0.698018 0.128158 0.196773
H48   H     H_    0.899962 0.733371 0.277987 0.258631

loop_
_geom_bond_atom_site_label_1
_geom_bond_atom_site_label_2
_ccdc_geom_bond_type
C15   H21   S    
C21   C26   A    
O9    C53   S    
C50   O12   S    
C14   C18   A    
C14   N2    A    
C5    H13   S    
C6    C9    A    
Cu2   N2    S    
C54   H31   S    
C43   H9    S    
Cu1   Cu2   S    
C44   H10   S    
C15   C19   A    
C56   H37   S    
C3    C43   A    
C33   H4    S    
C32   C36   A    
C38   C40   A    
C46   H12   S    
C11   H17   S    
C20   C25   S    
C29   C33   A    
C28   C41   S    
C12   N2    A    
C55   C56   S    
C23   C26   A    
C19   C26   S    
C31   H7    S    
C59   H44   S    
C60   H48   S    
C24   H28   S    
C57   H40   S    
C17   C19   A    
C57   H39   S    
C11   C15   A    
C29   H5    S    
C22   C25   A    
C30   H6    S    
Cu1   O7    S    
C34   H3    S    
C27   O5    A    
C32   C38   A    
C18   C20   A    
C18   H24   S    
C58   H43   S    
C1    O4    A    
C6    H14   S    
C12   H18   S    
C21   H25   S    
C53   H29   S    
C9    C52   S    
C10   C51   S    
C54   H32   S    
C28   O6    A    
C39   C42   A    
C5    C7    A    
C4    C45   A    
C1    O1    A    
C56   H38   S    
C30   C34   A    
O10   C55   S    
C12   C16   A    
C27   O8    A    
C24   C25   A    
Cu2   O2    S    
C6    C8    A    
C4    C44   A    
C53   C54   S    
C11   N1    A    
C31   C37   A    
C59   C60   S    
C55   H35   S    
Cu2   O8    S    
C45   C49   A    
C16   C20   A    
C49   C52   A    
C29   C39   A    
C17   H23   S    
C50   C51   A    
C47   O9    S    
C30   C40   A    
C2    O3    A    
Cu1   O3    S    
C53   H30   S    
C57   C58   S    
C60   H46   S    
C40   C41   A    
C13   H19   S    
Cu1   O5    S    
C31   C35   A    
C14   H20   S    
C54   H33   S    
C49   O11   S    
C58   H41   S    
C7    C9    A    
C46   C50   A    
C23   H27   S    
C35   H2    S    
C16   H22   S    
C7    H15   S    
C47   C51   A    
Cu2   O6    S    
C56   H36   S    
C13   N1    A    
C3    C46   A    
C8    H16   S    
C13   C17   A    
Cu1   N1    S    
C1    C4    S    
Cu2   O4    S    
C2    C3    S    
C22   H26   S    
C5    C10   A    
C37   C39   A    
C36   H1    S    
O12   C59   S    
C45   H11   S    
C27   C42   S    
C48   O10   S    
C33   C35   A    
C2    O2    A    
C28   O7    A    
C34   C36   A    
C37   C41   A    
C55   H34   S    
C59   H45   S    
C60   H47   S    
C32   H8    S    
C38   C42   A    
C48   C52   A    
C8    C10   A    
C21   C24   A    
C22   C23   A    
Cu1   O1    S    
O11   C57   S    
C43   C47   A    
C44   C48   A    
C58   H42   S    
