data_mof_unit_32457.cif
_audit_creation_date              2012-12-10T18:06:39-0500
_audit_creation_method            fapswitch 2.2
_symmetry_space_group_name_H-M    P1
_symmetry_Int_Tables_number       1
_space_group_crystal_system       triclinic
_cell_length_a                    12.62694
_cell_length_b                    13.25
_cell_length_c                    15.59953
_cell_angle_alpha                 85.192891
_cell_angle_beta                  100.047893
_cell_angle_gamma                 95.459475
_cell_volume                      2552.2026286

loop_
_atom_site_label
_atom_site_type_symbol
_atom_type_description
_atom_site_fract_x
_atom_site_fract_y
_atom_site_fract_z
_atom_type_partial_charge
C1    C     C_R   0.447931 0.308898 0.515572 0.856689
C2    C     C_R   0.426787 0.492490 0.099667 0.051450
C3    C     C_R   0.361792 0.398974 0.093587 0.134832
C4    C     C_R   0.479357 0.528621 0.028400 0.074530
C5    C     C_R   0.489900 0.460702 0.964880 0.045297
C6    C     C_R   0.444255 0.359878 0.974240 -0.223723
C7    C     C_R   0.372109 0.333093 0.031257 -0.233839
C8    C     C_R   0.522279 0.630034 0.019106 -0.190135
C9    C     C_R   0.596775 0.657179 0.964580 -0.256649
C10   C     C_R   0.613824 0.589746 0.905730 0.154453
C11   C     C_R   0.549372 0.495783 0.896826 0.041907
C12   C     C_R   0.434310 0.511563 0.336944 0.874670
C13   C     C_R   0.688100 0.620021 0.850412 -0.200870
C14   C     C_R   0.686448 0.568343 0.776926 -0.200977
C15   C     C_R   0.542235 0.447656 0.817156 -0.073472
C16   C     C_R   0.730843 0.937650 0.499414 -0.000524
C17   C     C_R   0.589335 0.799257 0.490196 -0.068507
C18   C     C_R   0.314456 0.165171 0.536440 -0.184090
C19   C     C_R   0.286210 0.062191 0.547215 -0.192036
C20   C     C_R   0.362034 0.993533 0.545695 -0.187139
C21   C     C_R   0.470894 0.027506 0.540155 0.096311
C22   C     C_R   0.503124 0.130782 0.548168 0.022312
C23   C     C_R   0.554941 0.691297 0.489497 0.859460
C24   C     C_R   0.548078 0.963253 0.525212 0.039401
C25   C     C_R   0.659037 0.999662 0.528968 0.020817
C26   C     C_R   0.693290 0.094953 0.563777 0.151691
C27   C     C_R   0.614125 0.160105 0.571591 -0.254081
C28   C     C_R   0.515585 0.864614 0.502635 -0.238666
C29   C     C_R   0.694438 0.836705 0.482704 -0.263722
C30   C     C_R   0.422502 0.200574 0.535172 -0.083074
C31   C     C_R   0.140079 0.641412 0.624331 -0.374849
C32   C     C_R   0.757896 0.386645 0.389509 0.359569
C33   C     C_R   0.854034 0.362837 0.367520 -0.306377
C34   C     C_R   0.564476 0.485160 0.663303 0.869599
C35   C     C_R   0.951161 0.400914 0.413851 -0.228298
C36   C     C_R   0.953235 0.466845 0.481015 0.035541
C37   C     C_R   0.853816 0.490035 0.500832 0.145588
C38   C     C_R   0.049557 0.514581 0.525476 -0.011140
C39   C     C_R   0.045351 0.584663 0.589086 0.091239
C40   C     C_R   0.946216 0.600156 0.613263 -0.046995
C41   C     C_R   0.851731 0.556251 0.565943 -0.255476
C42   C     C_R   0.150800 0.497840 0.507032 -0.105150
C43   C     C_R   0.237682 0.622631 0.602411 0.362976
C44   C     C_R   0.388581 0.496905 0.246727 -0.100696
C45   C     C_R   0.606169 0.490867 0.755638 -0.096084
C46   C     C_R   0.296134 0.367144 0.155657 -0.220081
C47   C     C_R   0.307659 0.417780 0.231234 -0.231838
C48   C     C_R   0.445522 0.538737 0.180697 0.125676
H1    H     H_    0.331636 0.257161 0.031681 0.147573
H2    H     H_    0.740517 0.689056 0.859857 0.155151
H3    H     H_    0.747633 0.786975 0.462785 0.163253
H4    H     H_    0.432099 0.836259 0.494151 0.151042
H5    H     H_    0.251747 0.216969 0.530426 0.162904
H6    H     H_    0.332944 0.914916 0.550652 0.112290
H7    H     H_    0.204427 0.035477 0.553922 0.155312
H8    H     H_    0.638504 0.232700 0.598557 0.190716
H9    H     H_    0.138821 0.702078 0.666288 0.169209
H10   H     H_    0.163009 0.443226 0.463208 0.133707
H11   H     H_    0.022505 0.379746 0.393227 0.141904
H12   H     H_    0.853375 0.316979 0.313171 0.147784
H13   H     H_    0.777150 0.575673 0.580575 0.213537
H14   H     H_    0.735116 0.599776 0.729424 0.165287
H15   H     H_    0.636990 0.733227 0.965216 0.143176
H16   H     H_    0.242800 0.298090 0.149336 0.141154
H17   H     H_    0.264226 0.385843 0.282649 0.152377
H18   H     H_    0.463855 0.299650 0.939120 0.174574
H19   H     H_    0.501706 0.688872 0.055636 0.179165
N1    N     N_R   0.239390 0.551900 0.544730 -0.119977
N2    N     N_R   0.759950 0.448600 0.455730 -0.152563
O1    O     O_R   0.374950 0.371210 0.521360 -0.620051
O2    O     O_R   0.542050 0.338030 0.492790 -0.600024
O3    O     O_R   0.368720 0.526070 0.390200 -0.624410
O4    O     O_R   0.535820 0.492890 0.361630 -0.579309
O5    O     O_R   0.457950 0.661970 0.507210 -0.603687
O6    O     O_R   0.625050 0.628790 0.478640 -0.643678
O7    O     O_R   0.464180 0.507110 0.638370 -0.572457
O8    O     O_R   0.631280 0.473930 0.609800 -0.651791
Zn1   Zn    Zn3+2 0.388420 0.522150 0.519080 0.955988
Zn2   Zn    Zn3+2 0.611580 0.477850 0.480920 0.928056
N3    N     N_2   0.805618 0.121031 0.594053 -0.299535
H20   H     H_    0.846418 0.063499 0.630078 0.226570
C49   C     C_3   0.843240 0.222217 0.620322 -0.773268
H21   H     H_    0.932839 0.230403 0.631721 0.236466
H22   H     H_    0.815185 0.235478 0.681769 0.227713
H23   H     H_    0.814324 0.279738 0.567835 0.258542
C50   C     C_R   0.837554 0.976467 0.474549 0.116864
C51   C     C_R   0.847845 0.068827 0.424105 -0.088791
C52   C     C_R   0.943838 0.100637 0.393025 -0.137755
C53   C     C_R   0.030302 0.039810 0.410354 -0.132995
C54   C     C_R   0.021308 0.947458 0.459498 -0.144028
C55   C     C_R   0.926203 0.916221 0.491806 -0.169684
H24   H     H_    0.781023 0.115387 0.407703 0.133566
H25   H     H_    0.950809 0.171548 0.354088 0.123355
H26   H     H_    0.104063 0.063989 0.385326 0.133328
H27   H     H_    0.087960 0.899577 0.472284 0.129862
H28   H     H_    0.922017 0.843816 0.528427 0.131736
N4    N     N_2   0.333957 0.682226 0.633872 -0.253041
H29   H     H_    0.333538 0.755450 0.606518 0.195248
C56   C     C_3   0.366912 0.679489 0.727571 -0.769324
H30   H     H_    0.307705 0.713790 0.758869 0.213959
H31   H     H_    0.446519 0.723239 0.743244 0.240811
H32   H     H_    0.375998 0.600525 0.754681 0.252190
C57   C     C_R   0.460173 0.362903 0.789230 0.100072
C58   C     C_R   0.494426 0.270498 0.770491 -0.214226
C59   C     C_R   0.419037 0.188696 0.748243 -0.121257
C60   C     C_R   0.308845 0.199280 0.741980 -0.109575
C61   C     C_R   0.273773 0.291746 0.757785 -0.147228
C62   C     C_R   0.348882 0.373248 0.781575 -0.080171
H33   H     H_    0.579586 0.261222 0.775090 0.129241
H34   H     H_    0.446012 0.117177 0.735363 0.146091
H35   H     H_    0.250586 0.135944 0.724394 0.130499
H36   H     H_    0.188371 0.299899 0.752685 0.125825
H37   H     H_    0.320160 0.442855 0.796480 0.116633
C63   C     C_R   0.940158 0.659901 0.688960 0.117809
C64   C     C_R   0.874626 0.741314 0.679416 -0.200841
C65   C     C_R   0.875471 0.801681 0.748842 -0.144423
C66   C     C_R   0.939744 0.779578 0.829401 -0.132824
C67   C     C_R   0.001540 0.695940 0.840982 -0.136068
C68   C     C_R   0.001417 0.635976 0.771356 -0.148138
H38   H     H_    0.821870 0.757128 0.618809 0.133530
H39   H     H_    0.825406 0.864903 0.740394 0.131589
H40   H     H_    0.940067 0.826090 0.883274 0.121892
H41   H     H_    0.050005 0.677848 0.903793 0.130495
H42   H     H_    0.050484 0.571894 0.781179 0.132413
N5    N     N_2   0.658415 0.356022 0.336829 -0.244961
H43   H     H_    0.652212 0.388564 0.274043 0.216663
C69   C     C_3   0.628051 0.248248 0.336989 -0.778577
H44   H     H_    0.542302 0.235589 0.305771 0.244061
H45   H     H_    0.636145 0.213779 0.404568 0.262245
H46   H     H_    0.678352 0.211188 0.299104 0.205093
N6    N     N_2   0.527636 0.619731 0.200399 -0.327111
H47   H     H_    0.514667 0.668820 0.244777 0.210293
C70   C     C_3   0.639324 0.597317 0.208135 -0.743837
H48   H     H_    0.675832 0.584774 0.277813 0.251182
H49   H     H_    0.685499 0.663280 0.179545 0.234481
H50   H     H_    0.647200 0.529671 0.172967 0.235610

loop_
_geom_bond_atom_site_label_1
_geom_bond_atom_site_label_2
_ccdc_geom_bond_type
C32   N5    S    
C42   N1    A    
C51   C52   A    
C37   N2    A    
O1    Zn1   S    
C17   C29   A    
C61   H36   S    
C35   C36   A    
C41   H13   S    
C4    C8    A    
C42   H10   S    
O2    Zn2   S    
C63   C64   A    
C54   H27   S    
C68   H42   S    
C26   C27   A    
C17   C23   S    
C31   C43   A    
C5    C6    A    
C36   C37   A    
C59   H34   S    
O7    Zn1   S    
C38   C42   A    
C3    C7    A    
C50   C55   A    
C34   O8    A    
C58   H33   S    
C60   C61   A    
C64   C65   A    
C14   H14   S    
C65   C66   A    
C35   H11   S    
C18   C19   A    
C53   H26   S    
C67   C68   A    
O3    Zn1   S    
C18   H5    S    
C55   H28   S    
C52   H25   S    
C11   C15   A    
C40   C63   S    
C19   C20   A    
C43   N1    A    
C70   H50   S    
C61   C62   A    
C48   N6    S    
C57   C62   A    
C18   C30   A    
C9    C10   A    
C63   C68   A    
C44   C47   A    
C12   O3    A    
C9    H15   S    
C21   C22   A    
C16   C50   S    
C12   O4    A    
C58   C59   A    
N4    C56   S    
N4    H29   S    
C14   C45   A    
C60   H35   S    
O8    Zn2   S    
N1    Zn1   S    
C65   H39   S    
C24   C28   A    
C24   C25   A    
C7    H1    S    
C20   H6    S    
C39   C40   A    
C27   H8    S    
C8    C9    A    
C2    C48   A    
C16   C29   A    
C26   N3    S    
C46   H16   S    
C62   H37   S    
C2    C4    A    
C66   H40   S    
C69   H45   S    
C70   H48   S    
C56   H30   S    
C6    H18   S    
O4    Zn2   S    
C34   C45   S    
C1    O2    A    
C20   C21   A    
C6    C7    A    
N3    C49   S    
C40   C41   A    
C56   H31   S    
C64   H38   S    
C33   H12   S    
C49   H22   S    
C22   C27   A    
N5    H43   S    
N2    Zn2   S    
C15   C45   A    
C23   O5    A    
C69   H44   S    
C51   H24   S    
N5    C69   S    
C29   H3    S    
C19   H7    S    
C16   C25   A    
C46   C47   A    
C22   C30   A    
C50   C51   A    
C17   C28   A    
C43   N4    S    
C23   O6    A    
N3    H20   S    
N6    C70   S    
C10   C13   A    
C5    C11   A    
C32   N2    A    
C49   H23   S    
C59   C60   A    
C3    C46   A    
C1    O1    A    
C32   C33   A    
C31   H9    S    
C36   C38   A    
C2    C3    A    
C25   C26   A    
C69   H46   S    
C12   C44   S    
C66   C67   A    
C28   H4    S    
C54   C55   A    
C38   C39   A    
C1    C30   S    
C33   C35   A    
C31   C39   A    
C67   H41   S    
C37   C41   A    
C10   C11   A    
C13   H2    S    
C44   C48   A    
C4    C5    A    
C56   H32   S    
C52   C53   A    
C8    H19   S    
C49   H21   S    
O5    Zn1   S    
C21   C24   A    
C57   C58   A    
C70   H49   S    
C15   C57   S    
C53   C54   A    
C13   C14   A    
O6    Zn2   S    
C47   H17   S    
N6    H47   S    
C34   O7    A    
