data_mof_unit_5475.cif
_audit_creation_date              2012-12-10T20:44:44-0500
_audit_creation_method            fapswitch 2.2
_symmetry_space_group_name_H-M    P1
_symmetry_Int_Tables_number       1
_space_group_crystal_system       triclinic
_cell_length_a                    9.87936
_cell_length_b                    10.696787
_cell_length_c                    16.842531
_cell_angle_alpha                 89.860218
_cell_angle_beta                  94.336237
_cell_angle_gamma                 88.628698
_cell_volume                      1774.25576678

loop_
_atom_site_label
_atom_site_type_symbol
_atom_type_description
_atom_site_fract_x
_atom_site_fract_y
_atom_site_fract_z
_atom_type_partial_charge
C1    C     C_R   0.501125 0.260047 0.499386 0.878012
C2    C     C_R   0.656075 0.461848 0.780937 -0.364529
C3    C     C_R   0.570112 0.411961 0.143944 -0.243061
C4    C     C_R   0.577972 0.428696 0.225242 -0.329115
C5    C     C_R   0.454776 0.455727 0.097014 0.155570
C6    C     C_R   0.471922 0.489829 0.261031 -0.211837
C7    C     C_R   0.355863 0.534391 0.214749 0.402211
C8    C     C_R   0.345524 0.512555 0.132758 0.418642
C9    C     C_R   0.582452 0.062003 0.558214 -0.009286
C10   C     C_R   0.500780 0.127681 0.500839 -0.041260
C11   C     C_R   0.402276 0.065854 0.452788 -0.156571
C12   C     C_R   0.517706 0.494602 0.653193 0.877009
C13   C     C_R   0.397671 0.936932 0.456021 -0.215115
C14   C     C_R   0.493802 0.871029 0.506236 -0.084815
C15   C     C_R   0.579271 0.934040 0.561621 -0.025501
C16   C     C_3   0.729922 0.921359 0.584089 0.970776
C17   C     C_3   0.732238 0.062656 0.575129 -0.571415
C18   C     C_R   0.080049 0.447334 0.561432 0.111916
C19   C     C_R   0.063662 0.563890 0.443712 -0.290486
C20   C     C_R   0.918166 0.562217 0.442179 0.584453
C21   C     C_R   0.937873 0.452071 0.563220 -0.043626
C22   C     C_3   0.932923 0.322618 0.594125 -0.648062
C23   C     C_R   0.498731 0.739500 0.501858 0.864996
C24   C     C_3   0.087079 0.312961 0.587505 0.990088
C25   C     C_R   0.482368 0.500894 0.346877 0.923409
C26   C     C_R   0.528515 0.472628 0.738526 -0.094558
C27   C     C_R   0.410334 0.453181 0.776833 -0.189658
C28   C     C_R   0.418404 0.426596 0.856959 -0.258764
C29   C     C_R   0.545391 0.422374 0.901078 0.237361
C30   C     C_R   0.665792 0.433589 0.862784 0.548498
H1    H     H_    0.666963 0.392634 0.260294 0.193903
H2    H     H_    0.326026 0.888724 0.415682 0.141342
H3    H     H_    0.762808 0.112472 0.631255 0.198871
H4    H     H_    0.781662 0.090984 0.521229 0.179138
H5    H     H_    0.113169 0.615471 0.399402 0.192655
H6    H     H_    0.902213 0.321965 0.656298 0.195867
H7    H     H_    0.869681 0.266029 0.552796 0.207169
H8    H     H_    0.654839 0.365673 0.118045 0.194950
H9    H     H_    0.746835 0.477573 0.750584 0.167932
H10   H     H_    0.324560 0.413478 0.884971 0.178871
H11   H     H_    0.310906 0.459573 0.745225 0.217490
H12   H     H_    0.334938 0.116587 0.409866 0.143823
N1    N     N_2   0.554451 0.416345 0.984900 -0.149756
N2    N     N_2   0.447098 0.450818 0.013359 -0.148726
N3    N     N_R   0.142860 0.499130 0.500540 -0.132655
N4    N     N_R   0.857210 0.499170 0.500530 -0.131554
O1    O     O_R   0.614690 0.316790 0.499990 -0.635306
O2    O     O_R   0.385350 0.316760 0.500000 -0.558471
O3    O     O_R   0.627460 0.498860 0.616130 -0.638161
O4    O     O_R   0.398120 0.498820 0.616130 -0.603013
O5    O     O_R   0.614650 0.683240 0.500000 -0.546077
O6    O     O_R   0.385310 0.683210 0.500010 -0.635142
O7    O     O_R   0.601880 0.501180 0.383870 -0.583343
O8    O     O_R   0.372540 0.501140 0.383870 -0.584905
Zn1   Zn    Zn3+2 0.653130 0.500020 0.499990 0.984757
Zn2   Zn    Zn3+2 0.346870 0.499980 0.500010 0.991459
O9    O     O_3   0.763719 0.884252 0.664402 -0.653797
C31   C     C_3   0.726981 0.759773 0.677150 -0.271132
H13   H     H_    0.777428 0.694068 0.637134 0.208409
H14   H     H_    0.614957 0.750490 0.670703 0.139258
H15   H     H_    0.761492 0.732891 0.739166 0.189247
O10   O     O_3   0.803564 0.857221 0.526695 -0.605902
C32   C     C_3   0.944985 0.861706 0.546739 -0.251125
H16   H     H_    0.976365 0.793507 0.594832 0.175648
H17   H     H_    0.978762 0.956727 0.564589 0.153919
H18   H     H_    0.998753 0.834723 0.493669 0.182666
O11   O     O_3   0.835890 0.629605 0.386128 -0.555781
C33   C     C_3   0.876176 0.609232 0.308449 -0.289142
H19   H     H_    0.789092 0.633866 0.265340 0.201318
H20   H     H_    0.904785 0.509542 0.297865 0.142476
H21   H     H_    0.960201 0.671627 0.295867 0.178213
O12   O     O_3   0.160868 0.301832 0.662604 -0.648714
C34   C     C_3   0.162869 0.176771 0.689750 -0.287479
H22   H     H_    0.231238 0.117397 0.655331 0.212785
H23   H     H_    0.059482 0.137142 0.687217 0.153185
H24   H     H_    0.204022 0.174434 0.752880 0.178414
O13   O     O_3   0.139642 0.230081 0.529850 -0.595345
C35   C     C_3   0.054161 0.213852 0.459479 -0.372552
H25   H     H_    0.998913 0.300282 0.438151 0.148870
H26   H     H_    0.982650 0.137724 0.467934 0.166289
H27   H     H_    0.117001 0.184262 0.410965 0.191012
O14   O     O_3   0.788639 0.430066 0.909189 -0.608105
C36   C     C_3   0.892285 0.367460 0.870331 -0.332129
H28   H     H_    0.939509 0.432200 0.829419 0.178167
H29   H     H_    0.855476 0.282440 0.838102 0.163054
H30   H     H_    0.972994 0.336294 0.915951 0.187970
O15   O     O_3   0.250164 0.595234 0.249276 -0.597339
C37   C     C_3   0.277636 0.723925 0.253145 -0.286591
H31   H     H_    0.282519 0.764682 0.192587 0.190185
H32   H     H_    0.373182 0.741742 0.290337 0.141852
H33   H     H_    0.193729 0.772868 0.281525 0.165649
O16   O     O_3   0.233705 0.558000 0.086293 -0.585511
C38   C     C_3   0.135651 0.464224 0.080394 -0.259264
H34   H     H_    0.101130 0.440169 0.139850 0.170415
H35   H     H_    0.174629 0.378961 0.050973 0.139289
H36   H     H_    0.045777 0.500182 0.043004 0.215219

loop_
_geom_bond_atom_site_label_1
_geom_bond_atom_site_label_2
_ccdc_geom_bond_type
O15   C37   S    
C32   H17   S    
C38   H34   S    
C18   C21   A    
C34   H22   S    
C13   H2    S    
C19   C20   A    
C12   O3    A    
C23   O6    A    
C7    C8    A    
O13   C35   S    
C26   C27   A    
O10   C32   S    
C16   O10   S    
C18   C24   S    
C28   C29   A    
C25   O7    A    
C35   H26   S    
C6    C25   S    
C28   H10   S    
C31   H14   S    
C15   C16   S    
C11   H12   S    
C20   O11   S    
C2    H9    S    
C7    O15   S    
N3    Zn2   S    
C33   H19   S    
N4    Zn1   S    
C8    O16   S    
C9    C10   A    
C31   H15   S    
C32   H18   S    
C38   H35   S    
C13   C14   A    
C29   N1    S    
C34   H23   S    
C17   H3    S    
O7    Zn1   S    
O8    Zn2   S    
O11   C33   S    
C25   O8    A    
C3    H8    S    
C4    C6    A    
C35   H25   S    
C1    O1    A    
C31   H13   S    
O3    Zn1   S    
C22   H7    S    
O4    Zn2   S    
C12   C26   S    
C14   C23   S    
C30   O14   S    
N1    N2    D    
C29   C30   A    
C27   H11   S    
C23   O5    A    
C36   H28   S    
C37   H33   S    
C2    C26   A    
C9    C17   S    
C36   H29   S    
C5    N2    S    
C37   H32   S    
C38   H36   S    
C34   H24   S    
C22   C24   S    
C17   H4    S    
C3    C4    A    
C18   N3    A    
C24   O12   S    
O1    Zn1   S    
C21   N4    A    
O2    Zn2   S    
C1    C10   S    
O12   C34   S    
C3    C5    A    
C5    C8    A    
C12   O4    A    
C19   N3    A    
C1    O2    A    
C6    C7    A    
C22   H6    S    
C2    C30   A    
C9    C15   A    
C19   H5    S    
C11   C13   A    
C35   H27   S    
O9    C31   S    
C16   C17   S    
C33   H21   S    
O16   C38   S    
O5    Zn1   S    
C16   O9    S    
C4    H1    S    
C10   C11   A    
C32   H16   S    
C24   O13   S    
C36   H30   S    
C37   H31   S    
C33   H20   S    
O14   C36   S    
C27   C28   A    
C14   C15   A    
C21   C22   S    
C20   N4    A    
O6    Zn2   S    
