data_mof_unit_21858.cif
_audit_creation_date              2012-10-26T19:04:20-0400
_audit_creation_method            fapswitch 2.2
_symmetry_space_group_name_H-M    P1
_symmetry_Int_Tables_number       1
_space_group_crystal_system       triclinic
_cell_length_a                    14.670902
_cell_length_b                    15.990154
_cell_length_c                    9.58649
_cell_angle_alpha                 89.961605
_cell_angle_beta                  89.064733
_cell_angle_gamma                 90.040004
_cell_volume                      2248.59383962

loop_
_atom_site_label
_atom_site_type_symbol
_atom_type_description
_atom_site_fract_x
_atom_site_fract_y
_atom_site_fract_z
_atom_type_partial_charge
Br1   Br    Br    0.304329 0.001657 0.845423 -0.528195
Br2   Br    Br    0.804329 0.501657 0.845423 -0.528197
Br3   Br    Br    0.736929 0.008454 0.284578 -0.504258
Br4   Br    Br    0.236929 0.508454 0.284577 -0.504265
C1    C     C_R   0.384655 0.877988 0.501525 0.550629
C2    C     C_R   0.712245 0.224482 0.378982 -0.132332
C3    C     C_R   0.216029 0.279012 0.378130 -0.116668
C4    C     C_R   0.212245 0.724483 0.378982 -0.132331
C5    C     C_R   0.672627 0.803313 0.502471 -0.011659
C6    C     C_R   0.672850 0.196692 0.504424 -0.001573
C7    C     C_R   0.172628 0.303313 0.502471 -0.011659
C8    C     C_R   0.172850 0.696692 0.504424 -0.001573
C9    C     C_R   0.671161 0.963341 0.129143 0.199757
C10   C     C_R   0.171160 0.463341 0.129143 0.199757
C11   C     C_R   0.739928 0.928671 0.042863 0.269380
C12   C     C_R   0.384362 0.121873 0.501652 0.550952
C13   C     C_R   0.239928 0.428670 0.042863 0.269378
C14   C     C_R   0.737639 0.943286 0.900999 -0.170742
C15   C     C_R   0.237639 0.443286 0.900999 -0.170740
C16   C     C_R   0.663870 0.983159 0.845306 -0.132304
C17   C     C_R   0.163870 0.483160 0.845306 -0.132305
C18   C     C_R   0.581691 0.991867 0.921477 0.075354
C19   C     C_R   0.081691 0.491867 0.921477 0.075354
C20   C     C_R   0.583316 0.987798 0.071402 0.095388
C21   C     C_R   0.083316 0.487799 0.071402 0.095389
C22   C     C_R   0.422256 0.007497 0.076900 0.006332
C23   C     C_R   0.884655 0.377988 0.501525 0.550629
C24   C     C_R   0.922256 0.507497 0.076900 0.006333
C25   C     C_R   0.612133 0.124026 0.500607 0.567252
C26   C     C_R   0.612453 0.876249 0.500205 0.562823
C27   C     C_R   0.112133 0.624026 0.500607 0.567253
C28   C     C_R   0.112453 0.376250 0.500205 0.562823
C29   C     C_R   0.421607 0.004778 0.929671 0.235217
C30   C     C_R   0.921607 0.504778 0.929671 0.235216
C31   C     C_R   0.318224 0.207484 0.767860 -0.070337
C32   C     C_R   0.328957 0.784511 0.764528 -0.058014
C33   C     C_R   0.818221 0.707483 0.767860 -0.070336
C34   C     C_R   0.884362 0.621873 0.501652 0.550952
C35   C     C_R   0.828956 0.284512 0.764528 -0.058013
C36   C     C_R   0.266644 0.219546 0.889672 -0.073051
C37   C     C_R   0.283111 0.766738 0.889610 -0.095396
C38   C     C_R   0.766641 0.719544 0.889672 -0.073053
C39   C     C_R   0.783109 0.266739 0.889610 -0.095395
C40   C     C_R   0.676790 0.745993 0.881376 -0.096230
C41   C     C_R   0.693302 0.239448 0.887686 -0.115635
C42   C     C_R   0.176793 0.245994 0.881377 -0.096228
C43   C     C_R   0.193304 0.739447 0.887687 -0.115635
C44   C     C_R   0.642100 0.769472 0.752789 -0.091481
C45   C     C_R   0.286104 0.221386 0.379905 -0.139698
C46   C     C_R   0.652689 0.221767 0.760739 -0.093855
C47   C     C_R   0.142102 0.269473 0.752790 -0.091482
C48   C     C_R   0.152690 0.721766 0.760740 -0.093855
C49   C     C_R   0.696879 0.764864 0.629900 0.019428
C50   C     C_R   0.702091 0.230936 0.633120 0.024927
C51   C     C_R   0.196881 0.264865 0.629900 0.019428
C52   C     C_R   0.202092 0.730936 0.633120 0.024928
C53   C     C_R   0.279639 0.220563 0.634891 0.036738
C54   C     C_R   0.285006 0.775287 0.634613 0.041240
C55   C     C_R   0.779637 0.720562 0.634891 0.036738
C56   C     C_R   0.282362 0.782092 0.379929 -0.151219
C57   C     C_R   0.785005 0.275287 0.634613 0.041240
C58   C     C_R   0.319057 0.191378 0.506892 -0.010454
C59   C     C_R   0.319640 0.808359 0.506279 -0.005934
C60   C     C_R   0.819056 0.691377 0.506892 -0.010454
C61   C     C_R   0.819640 0.308359 0.506279 -0.005934
C62   C     C_3   0.897385 0.917270 0.070325 0.019393
C63   C     C_3   0.955421 0.854474 0.988967 -0.400865
C64   C     C_3   0.397384 0.417270 0.070332 0.019391
C65   C     C_3   0.455424 0.354475 0.988979 -0.400861
C66   C     C_R   0.786104 0.721386 0.379905 -0.139698
C67   C     C_R   0.782362 0.282092 0.379929 -0.151219
C68   C     C_R   0.716029 0.779012 0.378130 -0.116668
Cu1   Cu    Cu3+1 0.499990 0.000000 0.640660 0.964589
Cu2   Cu    Cu3+1 0.999990 0.500000 0.640660 0.964589
Cu3   Cu    Cu3+1 0.500010 0.000000 0.359340 0.976465
Cu4   Cu    Cu3+1 0.000010 0.500000 0.359340 0.976465
H1    H     H_    0.315286 0.201194 0.280993 0.145858
H2    H     H_    0.399429 0.802898 0.772165 0.135435
H3    H     H_    0.888608 0.690205 0.780962 0.138245
H4    H     H_    0.899428 0.302899 0.772166 0.135437
H5    H     H_    0.296008 0.206818 0.990366 0.135192
H6    H     H_    0.316663 0.776166 0.988135 0.113613
H7    H     H_    0.796005 0.706816 0.990367 0.135190
H8    H     H_    0.816660 0.276167 0.988136 0.113614
H9    H     H_    0.635240 0.751916 0.975216 0.110916
H10   H     H_    0.655782 0.229897 0.984604 0.108333
H11   H     H_    0.135243 0.251917 0.975218 0.110917
H12   H     H_    0.308110 0.805292 0.280647 0.137386
H13   H     H_    0.155784 0.729896 0.984605 0.108334
H14   H     H_    0.571960 0.789904 0.750803 0.130056
H15   H     H_    0.581976 0.202813 0.764282 0.133327
H16   H     H_    0.071961 0.289904 0.750805 0.130057
H17   H     H_    0.081977 0.702813 0.764283 0.133328
H18   H     H_    0.695731 0.804439 0.278787 0.179541
H19   H     H_    0.689089 0.201533 0.279321 0.154925
H20   H     H_    0.195730 0.304439 0.278787 0.179542
H21   H     H_    0.189088 0.701533 0.279321 0.154925
H22   H     H_    0.358600 0.012690 0.134828 0.142789
H23   H     H_    0.815286 0.701194 0.280994 0.145858
H24   H     H_    0.858600 0.512690 0.134828 0.142789
H25   H     H_    0.931388 0.929734 0.170874 0.180624
H26   H     H_    0.896143 0.978095 0.013260 0.131742
H27   H     H_    0.926553 0.843697 0.884330 0.140077
H28   H     H_    0.025874 0.878962 0.975551 0.127563
H29   H     H_    0.958081 0.794095 0.046148 0.152055
H30   H     H_    0.431382 0.429734 0.170883 0.180626
H31   H     H_    0.396143 0.478094 0.013266 0.131743
H32   H     H_    0.426559 0.343696 0.884337 0.140078
H33   H     H_    0.525878 0.378966 0.975569 0.127563
H34   H     H_    0.808111 0.305291 0.280647 0.137386
H35   H     H_    0.458083 0.294096 0.046162 0.152056
H36   H     H_    0.793790 0.924944 0.833118 0.132888
H37   H     H_    0.293790 0.424944 0.833118 0.132890
H38   H     H_    0.672783 0.000192 0.739014 0.212590
H39   H     H_    0.172783 0.500192 0.739014 0.212589
H40   H     H_    0.388611 0.190207 0.780960 0.138243
N1    N     N_R   0.501200 1.000000 0.147910 -0.261608
N2    N     N_R   0.001200 0.500000 0.147910 -0.261608
N3    N     N_R   0.501270 1.000000 0.852040 -0.238782
N4    N     N_R   0.001270 0.500000 0.852040 -0.238782
O1    O     O_R   0.409820 0.909830 0.618810 -0.472015
O2    O     O_R   0.590170 0.909830 0.618760 -0.536254
O3    O     O_R   0.090170 0.590170 0.618760 -0.543066
O4    O     O_R   0.090170 0.409830 0.618760 -0.536254
O5    O     O_R   0.590190 0.090180 0.381190 -0.456442
O6    O     O_R   0.590190 0.909820 0.381190 -0.471040
O7    O     O_R   0.090190 0.590180 0.381190 -0.456441
O8    O     O_R   0.090190 0.409820 0.381190 -0.471040
O9    O     O_3   0.810323 0.882497 0.100938 -0.555690
O10   O     O_3   0.310321 0.382494 0.100936 -0.555695
O11   O     O_R   0.409820 0.090170 0.618810 -0.473744
O12   O     O_R   0.909820 0.409830 0.618810 -0.472015
O13   O     O_R   0.909820 0.590170 0.618810 -0.473745
O14   O     O_R   0.409840 0.909830 0.381240 -0.513059
O15   O     O_R   0.409840 0.090170 0.381240 -0.517418
O16   O     O_R   0.909840 0.409830 0.381240 -0.513059
O17   O     O_R   0.909840 0.590170 0.381240 -0.517417
O18   O     O_R   0.590170 0.090170 0.618760 -0.543065

loop_
_geom_bond_atom_site_label_1
_geom_bond_atom_site_label_2
_ccdc_geom_bond_type
C11   C14   A    
Cu2   O4    S    
Cu1   O11   S    
C23   O12   A    
C25   O5    A    
Cu1   Cu3   S    
C28   O4    A    
Cu3   N1    S    
C5    C68   A    
C27   O7    A    
C17   H39   S    
C21   N2    A    
C26   O6    A    
C49   C55   A    
Cu3   O14   S    
C63   H27   S    
C53   C58   A    
Cu4   O17   S    
C36   C42   A    
C3    H20   S    
C33   H3    S    
C55   C60   A    
C46   C50   A    
C38   C40   A    
C56   C59   A    
Cu1   N3    S    
C23   O16   A    
C15   C17   A    
C14   H36   S    
Cu2   O12   S    
Cu3   O15   S    
Cu1   O18   S    
C15   H37   S    
Cu2   O13   S    
C1    O1    A    
C1    C59   S    
C34   O13   A    
C33   C38   A    
C12   O11   A    
C62   H26   S    
C65   H33   S    
C56   H12   S    
C26   O2    A    
C52   C54   A    
C64   C65   S    
C22   N1    A    
C64   H31   S    
C60   C66   A    
C31   C36   A    
C14   C16   A    
Br3   C9    S    
C62   O9    S    
C68   H18   S    
C24   H24   S    
Cu2   O3    S    
C24   C30   A    
C44   H14   S    
C30   N4    A    
C39   H8    S    
C43   H13   S    
C10   C13   A    
C32   C37   A    
C2    C67   A    
C64   H30   S    
C37   C43   A    
C65   H32   S    
C62   H25   S    
C63   H28   S    
C34   C60   S    
Cu4   O16   S    
C44   C49   A    
C35   C57   A    
Br1   C29   S    
C48   H17   S    
C18   N3    A    
C3    C45   A    
C19   N4    A    
C63   H29   S    
C35   C39   A    
C61   C67   A    
C42   C47   A    
Cu4   N2    S    
C9    C20   A    
Cu3   O5    S    
C3    C7    A    
C4    H21   S    
C23   C61   S    
C47   H16   S    
C22   C29   A    
C11   O9    S    
C9    C11   A    
C4    C8    A    
C20   N1    A    
C31   H40   S    
C2    H19   S    
C8    C52   A    
C64   O10   S    
C39   C41   A    
C33   C55   A    
Cu2   Cu4   S    
C5    C26   S    
C22   H22   S    
C67   H34   S    
C16   C18   A    
C7    C28   S    
C29   N3    A    
Cu1   O1    S    
C51   C53   A    
C8    C27   S    
Cu4   O8    S    
C18   C20   A    
C5    C49   A    
C40   H9    S    
C7    C51   A    
C66   H23   S    
C42   H11   S    
C54   C59   A    
C45   C58   A    
C13   O10   S    
C36   H5    S    
C38   H7    S    
C25   O18   A    
C2    C6    A    
C43   C48   A    
C50   C57   A    
Cu2   N4    S    
C32   C54   A    
C32   H2    S    
C31   C53   A    
Cu3   O6    S    
C35   H4    S    
C28   O8    A    
C17   C19   A    
C41   H10   S    
C27   O3    A    
C40   C44   A    
C24   N2    A    
C4    C56   A    
C16   H38   S    
C1    O14   A    
C65   H35   S    
C6    C25   S    
Br2   C30   S    
C41   C46   A    
C37   H6    S    
C13   C15   A    
C34   O17   A    
C45   H1    S    
C62   C63   S    
C47   C51   A    
C19   C21   A    
C10   C21   A    
Br4   C10   S    
C6    C50   A    
C57   C61   A    
C46   H15   S    
Cu1   O2    S    
Cu4   O7    S    
C66   C68   A    
C12   O15   A    
C12   C58   S    
C48   C52   A    
