data_mof_unit_46567.cif
_audit_creation_date              2012-12-10T19:42:57-0500
_audit_creation_method            fapswitch 2.2
_symmetry_space_group_name_H-M    P1
_symmetry_Int_Tables_number       1
_space_group_crystal_system       triclinic
_cell_length_a                    10.907432
_cell_length_b                    12.94061
_cell_length_c                    11.886401
_cell_angle_alpha                 96.571466
_cell_angle_beta                  94.4519
_cell_angle_gamma                 91.75142
_cell_volume                      1660.38127369

loop_
_atom_site_label
_atom_site_type_symbol
_atom_type_description
_atom_site_fract_x
_atom_site_fract_y
_atom_site_fract_z
_atom_type_partial_charge
C1    C     C_R   0.496619 0.300526 0.481211 0.842384
C2    C     C_R   0.504353 0.699538 0.518572 0.805854
C3    C     C_R   0.871220 0.478255 0.505358 -0.174037
C4    C     C_R   0.127039 0.507289 0.502721 -0.189839
C5    C     C_R   0.945012 0.501065 0.609113 -0.080731
C6    C     C_R   0.051444 0.485370 0.400643 -0.050882
C7    C     C_R   0.518529 0.811323 0.525177 -0.068664
C8    C     C_R   0.486077 0.188631 0.472779 -0.052148
C9    C     C_R   0.391524 0.027515 0.377605 -0.030859
C10   C     C_R   0.622704 0.971450 0.612448 0.001585
C11   C     C_R   0.402595 0.135541 0.390019 -0.214569
C12   C     C_R   0.606753 0.863768 0.604042 -0.231477
C13   C     C_R   0.561413 0.135451 0.543814 -0.230837
C14   C     C_R   0.446458 0.864635 0.451421 -0.153074
C15   C     C_R   0.549198 0.027114 0.538172 0.062462
C16   C     C_R   0.462225 0.972404 0.454379 0.076561
C17   C     C_R   0.411923 0.380237 0.031518 -0.081854
C18   C     C_R   0.559399 0.630474 0.966467 -0.111808
C19   C     C_R   0.421324 0.394459 0.150502 0.002390
C20   C     C_R   0.567290 0.609886 0.849154 0.062827
C21   C     C_R   0.520486 0.560259 0.152916 0.125930
C22   C     C_R   0.471922 0.442965 0.846970 0.123125
C23   C     C_R   0.262480 0.505270 0.500348 0.820125
C24   C     C_R   0.736709 0.490967 0.500801 0.853053
C25   C     C_R   0.514073 0.551376 0.030374 -0.069479
C26   C     C_R   0.465068 0.456794 0.968521 -0.052230
C27   C     C_R   0.078711 0.700061 0.212545 0.444399
C28   C     C_R   0.829970 0.384317 0.860312 0.450752
C29   C     C_R   0.055365 0.644957 0.304624 -0.229450
C30   C     C_R   0.861816 0.395077 0.750306 -0.156080
C31   C     C_R   0.080219 0.539101 0.302127 0.143265
C32   C     C_R   0.894815 0.493379 0.720498 0.109431
C33   C     C_R   0.132021 0.488013 0.208327 -0.045166
C34   C     C_R   0.893143 0.581553 0.800530 -0.146120
C35   C     C_R   0.159866 0.542728 0.118503 -0.277487
C36   C     C_R   0.862286 0.571223 0.910282 -0.254349
C37   C     C_R   0.133838 0.648546 0.119544 -0.026459
C38   C     C_R   0.828576 0.473231 0.940650 -0.091067
C39   C     C_R   0.928782 0.451802 0.404947 -0.011737
C40   C     C_R   0.072335 0.517710 0.607580 -0.049097
Cu1   Cu    Cu3+1 0.509250 0.507730 0.615930 1.010010
Cu2   Cu    Cu3+1 0.490750 0.492270 0.384070 0.991721
H1    H     H_    0.604505 0.669780 0.803633 0.148617
H2    H     H_    0.380805 0.336358 0.196489 0.146524
H3    H     H_    0.019190 0.684458 0.379494 0.135312
H4    H     H_    0.865004 0.326389 0.689372 0.147535
H5    H     H_    0.152931 0.406555 0.205681 0.159570
H6    H     H_    0.919702 0.657680 0.778822 0.169581
H7    H     H_    0.201200 0.501877 0.047826 0.181775
H8    H     H_    0.864293 0.639977 0.971494 0.234043
H9    H     H_    0.376176 0.821143 0.394333 0.189603
H10   H     H_    0.629627 0.180097 0.601974 0.195768
H11   H     H_    0.662911 0.820246 0.659977 0.170204
H12   H     H_    0.347558 0.178884 0.333052 0.170487
N1    N     N_R   0.523180 0.519350 0.790130 -0.236593
N2    N     N_R   0.476820 0.480650 0.209870 -0.236648
O1    O     O_R   0.506570 0.354460 0.582000 -0.580381
O2    O     O_R   0.493430 0.645540 0.418000 -0.571428
O3    O     O_R   0.490940 0.341410 0.386200 -0.587434
O4    O     O_R   0.509060 0.658590 0.613800 -0.588115
O5    O     O_R   0.327460 0.506540 0.597900 -0.535910
O6    O     O_R   0.672540 0.493460 0.402100 -0.526626
O7    O     O_R   0.311830 0.493480 0.402100 -0.598300
O8    O     O_R   0.688170 0.506520 0.597900 -0.600167
C41   C     C_2   0.164360 0.704602 0.023120 0.879322
O9    O     O_2   0.256502 0.683559 0.974284 -0.564891
O10   O     O_R   0.089124 0.782777 0.988907 -0.731142
H13   H     H_    0.119948 0.815295 0.922211 0.353291
C42   C     C_2   0.792349 0.464305 0.056068 0.888696
O11   O     O_2   0.829709 0.529674 0.134481 -0.588938
O12   O     O_R   0.713828 0.381938 0.075267 -0.701241
H14   H     H_    0.689088 0.387934 0.155894 0.348232
C43   C     C_2   0.429139 0.343595 0.782039 0.904073
O13   O     O_2   0.332124 0.337313 0.722404 -0.546733
O14   O     O_R   0.498126 0.255454 0.792179 -0.693282
H15   H     H_    0.455735 0.190171 0.749426 0.348039
C44   C     C_2   0.579481 0.653327 0.220426 0.893818
O15   O     O_2   0.522139 0.732729 0.234211 -0.549982
O16   O     O_R   0.697963 0.650049 0.272849 -0.729060
H16   H     H_    0.724827 0.717333 0.322054 0.301489
C45   C     C_2   0.337790 0.286564 0.980912 0.814386
O17   O     O_2   0.371985 0.200222 0.998233 -0.533131
O18   O     O_R   0.225563 0.297118 0.919181 -0.761202
H17   H     H_    0.184160 0.227324 0.888532 0.333371
C46   C     C_2   0.586399 0.740539 0.010737 0.856411
O19   O     O_2   0.501630 0.797727 0.030481 -0.479788
O20   O     O_R   0.706813 0.781621 0.017094 -0.803357
H18   H     H_    0.712001 0.859501 0.040571 0.340318
O21   O     O_3   0.061460 0.806335 0.217275 -0.558630
C47   C     C_3   0.939026 0.828904 0.239196 0.112333
H19   H     H_    0.925912 0.827809 0.330828 0.130235
H20   H     H_    0.871913 0.772821 0.187094 0.201987
C48   C     C_3   0.911968 0.937615 0.209442 -0.682825
H21   H     H_    0.927909 0.943230 0.119146 0.266945
H22   H     H_    0.814611 0.954546 0.222813 0.190241
H23   H     H_    0.972141 0.996484 0.264748 0.275187
O22   O     O_3   0.802711 0.286431 0.889843 -0.499764
C49   C     C_3   0.912914 0.243659 0.930845 0.135514
H24   H     H_    0.975940 0.302535 0.984521 0.162244
H25   H     H_    0.961629 0.208933 0.857776 0.133817
C50   C     C_3   0.882905 0.158679 0.004295 -0.659930
H26   H     H_    0.826199 0.094477 0.954061 0.256568
H27   H     H_    0.969506 0.126726 0.038726 0.198520
H28   H     H_    0.831171 0.190919 0.076184 0.281675
C51   C     C_2   0.874541 0.367037 0.318416 0.878325
O23   O     O_2   0.925320 0.343019 0.231682 -0.620853
O24   O     O_R   0.772046 0.307351 0.340978 -0.778573
H29   H     H_    0.747365 0.248898 0.278244 0.333782
C52   C     C_2   0.145481 0.550609 0.716739 0.916241
O25   O     O_2   0.196248 0.637185 0.733882 -0.566847
O26   O     O_R   0.157378 0.481404 0.798284 -0.712879
H30   H     H_    0.220074 0.507647 0.862912 0.347788
C53   C     C_2   0.310564 0.976614 0.279730 0.879764
O27   O     O_2   0.212650 0.014462 0.253172 -0.578105
O28   O     O_R   0.350005 0.890333 0.212711 -0.679606
H31   H     H_    0.290798 0.868101 0.143842 0.379476
C54   C     C_2   0.717334 0.021046 0.699559 0.817199
O29   O     O_2   0.693285 0.096659 0.764162 -0.535641
O30   O     O_R   0.832822 0.977564 0.710826 -0.765708
H32   H     H_    0.890395 0.017724 0.772703 0.329031

loop_
_geom_bond_atom_site_label_1
_geom_bond_atom_site_label_2
_ccdc_geom_bond_type
C19   N2    A    
C28   O22   S    
O20   H18   S    
C48   H21   S    
C27   C29   A    
C1    C8    S    
Cu1   Cu2   S    
O26   H30   S    
Cu1   O5    S    
Cu2   O2    S    
O22   C49   S    
C44   O15   D    
C51   O24   S    
C8    C13   A    
C17   C26   A    
C35   C37   A    
C9    C16   A    
C10   C15   A    
C52   O26   S    
C33   C35   A    
C2    O4    A    
O28   H31   S    
C18   C20   A    
C43   O13   D    
C42   O12   S    
Cu1   N1    S    
C2    C7    S    
Cu2   N2    S    
C7    C14   A    
O18   H17   S    
C41   O10   S    
C37   C41   S    
C35   H7    S    
O24   H29   S    
C31   C33   A    
Cu2   O6    S    
C17   C45   S    
C12   H11   S    
C5    C32   S    
C23   O7    A    
C6    C31   S    
C38   C42   S    
C3    C39   A    
C50   H27   S    
C43   O14   S    
C3    C24   S    
C18   C25   A    
C20   N1    A    
C45   O18   S    
C45   O17   D    
C46   O20   S    
C7    C12   A    
C18   C46   S    
O10   H13   S    
C50   H26   S    
C4    C40   A    
C4    C6    A    
C4    C23   S    
C25   C26   A    
C46   O19   D    
C29   H3    S    
C32   C34   A    
O14   H15   S    
C1    O1    A    
C13   H10   S    
C47   H20   S    
C14   H9    S    
C28   C38   A    
C44   O16   S    
C9    C11   A    
C40   C52   S    
C11   H12   S    
C10   C12   A    
C1    O3    A    
C41   O9    D    
C50   H28   S    
C49   H25   S    
C13   C15   A    
C33   H5    S    
C14   C16   A    
C34   H6    S    
C36   C38   A    
C20   H1    S    
C36   H8    S    
C19   H2    S    
C47   C48   S    
C53   O27   D    
C39   C51   S    
C21   C25   A    
C24   O6    A    
C30   H4    S    
Cu1   O4    S    
C3    C5    A    
Cu2   O3    S    
C21   N2    A    
O30   H32   S    
C2    O2    A    
C22   N1    A    
C48   H23   S    
C49   C50   S    
C51   O23   D    
C22   C43   S    
C9    C53   S    
C54   O30   S    
Cu1   O1    S    
O12   H14   S    
C29   C31   A    
C10   C54   S    
C52   O25   D    
C30   C32   A    
C47   H19   S    
C48   H22   S    
C27   C37   A    
C8    C11   A    
C28   C30   A    
C17   C19   A    
C27   O21   S    
C34   C36   A    
C42   O11   D    
O16   H16   S    
C23   O5    A    
C24   O8    A    
C49   H24   S    
C22   C26   A    
C5    C40   A    
C21   C44   S    
C6    C39   A    
Cu1   O8    S    
O21   C47   S    
C54   O29   D    
Cu2   O7    S    
C15   C16   A    
C53   O28   S    
