data_mof_unit_51310.cif
_audit_creation_date              2012-12-11T15:23:40-0500
_audit_creation_method            fapswitch 2.2
_symmetry_space_group_name_H-M    P1
_symmetry_Int_Tables_number       1
_space_group_crystal_system       triclinic
_cell_length_a                    6.926219
_cell_length_b                    17.502428
_cell_length_c                    19.297707
_cell_angle_alpha                 109.477378
_cell_angle_beta                  90.250223
_cell_angle_gamma                 90.486096
_cell_volume                      2205.35840917

loop_
_atom_site_label
_atom_site_type_symbol
_atom_type_description
_atom_site_fract_x
_atom_site_fract_y
_atom_site_fract_z
_atom_type_partial_charge
O1    O     O_R   0.505810 0.439670 0.562310 -0.548277
O2    O     O_R   0.169070 0.404920 0.411210 -0.549630
O3    O     O_R   0.005550 0.560330 0.437690 -0.531489
C1    C     C_R   0.338747 0.380910 0.383417 0.783000
O4    O     O_R   0.175650 0.430000 0.560110 -0.551916
O5    O     O_R   0.012170 0.585580 0.587650 -0.546320
C2    C     C_R   0.344689 0.415117 0.582025 0.685641
O6    O     O_R   0.499180 0.414420 0.412350 -0.509234
O7    O     O_3   0.341430 0.551020 0.508860 -0.361835
V1    V     V_3+5 0.063930 0.490540 0.498360 1.448724
O8    O     O_R   0.682850 0.595080 0.588790 -0.542355
C3    C     C_R   0.852997 0.618280 0.616907 0.665641
O9    O     O_R   0.676280 0.570000 0.439890 -0.502703
C4    C     C_R   0.844815 0.583498 0.416818 0.806460
V2    V     V_3+5 0.564760 0.509460 0.501640 1.524879
O10   O     O_3   0.837130 0.448980 0.491140 -0.380965
C5    C     C_R   0.055543 0.875120 0.186182 -0.163256
C6    C     C_R   0.914425 0.866413 0.131526 -0.101326
C7    C     C_R   0.759191 0.812766 0.125499 -0.133783
C8    C     C_R   0.746285 0.766511 0.172196 0.175700
C9    C     C_R   0.890005 0.773925 0.226318 0.049172
C10   C     C_R   0.045126 0.830006 0.234766 -0.036336
C11   C     C_R   0.588290 0.714491 0.166733 -0.182222
C12   C     C_R   0.575634 0.667091 0.212001 -0.092419
C13   C     C_R   0.723301 0.668745 0.263005 0.006731
C14   C     C_R   0.876537 0.725731 0.272396 0.013847
C15   C     C_R   0.016651 0.734418 0.327526 0.031078
C16   C     C_R   0.166920 0.791216 0.337047 -0.220850
C17   C     C_R   0.182695 0.839583 0.291987 0.429593
C18   C     C_R   0.721631 0.615731 0.305147 0.357392
C19   C     C_R   0.854531 0.629701 0.364592 -0.208287
C20   C     C_R   0.001935 0.688012 0.374138 -0.185726
H1    H     H_    0.170399 0.918484 0.190604 0.172046
H2    H     H_    0.648437 0.806744 0.084044 0.112293
H3    H     H_    0.472900 0.710852 0.127596 0.120697
H4    H     H_    0.446151 0.630949 0.207709 0.195869
H5    H     H_    0.106273 0.697254 0.418342 0.144317
H6    H     H_    0.271307 0.798540 0.380808 0.177007
C21   C     C_3   0.709655 0.782257 0.770373 -0.119057
C22   C     C_3   0.812898 0.776619 0.697564 -0.188008
H7    H     H_    0.753631 0.798138 0.653887 0.121718
H8    H     H_    0.564608 0.808234 0.787123 0.110979
C23   C     C_3   0.869277 0.688513 0.687370 -0.058042
C24   C     C_3   0.769976 0.694756 0.759466 0.343778
C25   C     C_3   0.958879 0.723282 0.802977 -0.197509
C26   C     C_3   0.060675 0.718030 0.729949 -0.156708
C27   C     C_3   0.004271 0.806890 0.740724 -0.128651
C28   C     C_3   0.901869 0.811354 0.812716 -0.049564
H9    H     H_    0.016930 0.701207 0.846496 0.108357
H10   H     H_    0.205470 0.691841 0.713020 0.144889
H11   H     H_    0.102637 0.854069 0.733572 0.111273
C29   C     C_3   0.558328 0.278075 0.280517 -0.111295
C30   C     C_3   0.480469 0.191412 0.264006 0.294057
H12   H     H_    0.702110 0.299695 0.305338 0.135251
C31   C     C_3   0.413034 0.188606 0.187815 -0.103111
C32   C     C_3   0.486938 0.276094 0.203501 -0.124364
C33   C     C_3   0.287806 0.308964 0.236774 -0.046211
C34   C     C_3   0.213402 0.220793 0.220641 -0.183391
C35   C     C_3   0.283224 0.222559 0.297804 -0.196272
C36   C     C_3   0.357953 0.310066 0.313005 -0.060652
H13   H     H_    0.570857 0.298133 0.164932 0.151080
H14   H     H_    0.206056 0.358063 0.225803 0.148821
H15   H     H_    0.070344 0.197701 0.195897 0.131017
H16   H     H_    0.199879 0.200151 0.336277 0.121631
C37   C     C_R   0.250564 0.129227 0.824184 -0.213088
C38   C     C_R   0.415747 0.134239 0.868464 -0.082976
C39   C     C_R   0.569038 0.186147 0.864897 -0.217069
C40   C     C_R   0.557090 0.233260 0.818576 0.092198
C41   C     C_R   0.391643 0.227169 0.773941 0.055751
C42   C     C_R   0.238329 0.174651 0.776558 0.087681
C43   C     C_R   0.707464 0.286571 0.816167 -0.175274
C44   C     C_R   0.695468 0.332581 0.769283 -0.191217
C45   C     C_R   0.532721 0.326224 0.723999 0.088135
C46   C     C_R   0.379462 0.273668 0.726597 0.054691
C47   C     C_R   0.214098 0.267490 0.681902 0.090713
C48   C     C_R   0.063606 0.214275 0.684379 -0.165112
C49   C     C_R   0.075483 0.168362 0.731335 -0.183252
C50   C     C_R   0.520571 0.371544 0.676276 -0.209741
C51   C     C_R   0.355637 0.366262 0.631810 -0.076744
C52   C     C_R   0.202347 0.314396 0.635423 -0.220610
H17   H     H_    0.132136 0.089041 0.826013 0.123424
H18   H     H_    0.696531 0.190754 0.898906 0.129665
H19   H     H_    0.835192 0.292323 0.850235 0.138065
H20   H     H_    0.814299 0.372803 0.768109 0.130970
H21   H     H_    0.638899 0.411777 0.674451 0.119263
H22   H     H_    0.074989 0.309647 0.601313 0.127299
H23   H     H_    0.935899 0.208507 0.650295 0.140870
H24   H     H_    0.956553 0.128210 0.732560 0.134786
O11   O     O_R   0.271890 0.085690 0.087580 -0.537526
O12   O     O_R   0.595690 0.070020 0.939870 -0.544373
O13   O     O_R   0.758900 0.914390 0.912370 -0.541805
C53   C     C_R   0.426694 0.085106 0.918047 0.706987
O14   O     O_R   0.602020 0.095100 0.088770 -0.545119
O15   O     O_R   0.765280 0.939660 0.062330 -0.530297
C54   C     C_R   0.432406 0.118430 0.117002 0.718777
O16   O     O_R   0.265520 0.060430 0.937620 -0.541036
O17   O     O_3   0.429560 0.949050 0.991100 -0.367982
V3    V     V_3+5 0.707160 0.009450 0.001650 1.412634
O18   O     O_R   0.094540 0.929890 0.060190 -0.542342
C55   C     C_R   0.925659 0.915289 0.082099 0.706265
O19   O     O_R   0.088200 0.904800 0.911290 -0.543706
C56   C     C_R   0.918047 0.881555 0.883184 0.687540
V4    V     V_3+5 0.206300 0.990390 0.998440 1.414713
O20   O     O_3   0.934030 0.050940 0.008900 -0.371477
N1    N     N_2   0.642867 0.632267 0.767548 -0.527851
H25   H     H_    0.706302 0.576046 0.752037 0.240092
C57   C     C_3   0.545046 0.652783 0.837271 -0.566699
H26   H     H_    0.447000 0.602159 0.837003 0.202097
H27   H     H_    0.456581 0.707889 0.846537 0.201676
H28   H     H_    0.651653 0.663231 0.882784 0.189332
N2    N     N_2   0.587259 0.126713 0.277005 -0.510092
H29   H     H_    0.701862 0.107384 0.241755 0.251413
C58   C     C_3   0.638626 0.140561 0.352907 -0.433003
H30   H     H_    0.706405 0.085265 0.357726 0.251061
H31   H     H_    0.507990 0.153920 0.387923 0.210308
H32   H     H_    0.743112 0.191910 0.372704 0.147149
S1    S     S_3+6 0.578999 0.524864 0.276632 -0.038156
O21   O     O_2   0.389057 0.540464 0.315958 -0.336682
O22   O     O_2   0.542013 0.495433 0.195092 -0.358589
O23   O     O_3   0.694646 0.451010 0.297050 -0.515443
H33   H     H_    0.813092 0.441171 0.266878 0.314881
S2    S     S_3+6 0.366302 0.915673 0.313633 -0.008625
O24   O     O_2   0.500848 0.906550 0.371638 -0.311391
O25   O     O_2   0.482366 0.910476 0.246658 -0.361144
O26   O     O_3   0.261982 0.007195 0.345910 -0.493555
H34   H     H_    0.252727 0.026788 0.303442 0.342365

loop_
_geom_bond_atom_site_label_1
_geom_bond_atom_site_label_2
_ccdc_geom_bond_type
C22   C27   S    
O18   V4    S    
C31   C32   S    
O19   C56   A    
C10   C17   A    
C45   C46   A    
C7    C8    A    
C4    C19   S    
C47   C48   A    
O17   V3    S    
C30   C35   S    
C33   H14   S    
C24   N1    S    
O23   H33   S    
N1    C57   S    
C14   C15   A    
C12   H4    S    
C6    C55   S    
C16   C17   A    
C3    C23   S    
S1    O22   D    
O5    C3    A    
C18   C19   A    
O15   V3    S    
C37   C42   A    
C53   O16   A    
C32   C33   S    
C6    C7    A    
C52   H22   S    
C29   C36   S    
C37   H17   S    
C22   C23   S    
C27   C28   S    
C49   H24   S    
C40   C41   A    
C57   H26   S    
O1    V2    S    
O15   C55   A    
C47   C52   A    
C1    O6    A    
C58   H32   S    
C30   N2    S    
C38   C39   A    
C35   C36   S    
O19   V4    S    
O9    C4    A    
O11   V4    S    
C42   C49   A    
C57   H27   S    
C5    H1    S    
C9    C14   A    
C29   H12   S    
C21   H8    S    
C43   H19   S    
C30   C31   S    
C46   C47   A    
C39   C40   A    
C12   C13   A    
C31   C54   S    
S1    O23   S    
C21   C22   S    
O4    C2    A    
C50   C51   A    
C33   C36   S    
C38   C53   S    
C34   C35   S    
C25   C26   S    
C45   C50   A    
O11   C54   A    
O2    C1    A    
C23   C24   S    
O12   C53   A    
C19   C20   A    
C8    C11   A    
C16   H6    S    
C11   C12   A    
C28   C56   S    
C17   S2    S    
C1    C36   S    
C5    C6    A    
C35   H16   S    
C41   C46   A    
N2    C58   S    
C44   H20   S    
C20   H5    S    
C48   C49   A    
C48   H23   S    
O17   V4    S    
O3    C4    A    
C50   H21   S    
C22   H7    S    
O6    V2    S    
O8    V2    S    
O9    V2    S    
O26   H34   S    
C57   H28   S    
C31   C34   S    
O13   C56   A    
S2    O25   D    
O2    V1    S    
V4    O20   S    
C24   C25   S    
C2    C51   S    
C58   H30   S    
O7    V1    S    
C25   C28   S    
C13   C18   A    
C26   C27   S    
N2    H29   S    
C15   C20   A    
O1    C2    A    
C34   H15   S    
C44   C45   A    
C7    H2    S    
O5    V1    S    
C27   H11   S    
O8    C3    A    
C21   C24   S    
C18   S1    S    
N1    H25   S    
C26   H10   S    
C11   H3    S    
C5    C10   A    
O18   C55   A    
S2    O26   S    
C13   C14   A    
O4    V1    S    
O3    V1    S    
V1    O10   S    
S1    O21   D    
C33   C34   S    
C40   C43   A    
V3    O20   S    
V2    O10   S    
C25   H9    S    
O13   V3    S    
O7    V2    S    
C41   C42   A    
C23   C26   S    
C51   C52   A    
C43   C44   A    
C8    C9    A    
C39   H18   S    
O14   C54   A    
C37   C38   A    
O16   V4    S    
C15   C16   A    
C32   H13   S    
S2    O24   D    
C9    C10   A    
O14   V3    S    
O12   V3    S    
C29   C32   S    
C29   C30   S    
C21   C28   S    
C58   H31   S    
