data_mof_unit_58541.cif
_audit_creation_date              2012-12-10T17:18:59-0500
_audit_creation_method            fapswitch 2.2
_symmetry_space_group_name_H-M    P1
_symmetry_Int_Tables_number       1
_space_group_crystal_system       triclinic
_cell_length_a                    10.315544
_cell_length_b                    10.680033
_cell_length_c                    13.404732
_cell_angle_alpha                 94.473502
_cell_angle_beta                  100.955046
_cell_angle_gamma                 97.286707
_cell_volume                      1430.25594756

loop_
_atom_site_label
_atom_site_type_symbol
_atom_type_description
_atom_site_fract_x
_atom_site_fract_y
_atom_site_fract_z
_atom_type_partial_charge
C1    C     C_R   0.055328 0.733415 0.497877 0.938044
C2    C     C_R   0.948400 0.267814 0.510385 0.937840
C3    C     C_R   0.437518 0.495879 0.133389 -0.192103
C4    C     C_R   0.480791 0.325054 0.891932 -0.142881
C5    C     C_R   0.312229 0.531333 0.105741 -0.139354
C6    C     C_R   0.610082 0.297085 0.919655 -0.153446
C7    C     C_2   0.092944 0.869605 0.510571 -0.294208
C8    C     C_2   0.925725 0.136722 0.530463 -0.293449
C9    C     C_2   0.012103 0.940135 0.548941 -0.126655
C10   C     C_2   0.031342 0.074650 0.546632 -0.174269
C11   C     C_2   0.434069 0.509993 0.519789 0.265978
C12   C     C_2   0.568567 0.469884 0.519515 0.292195
C13   C     C_R   0.092304 0.512115 0.686761 0.914768
C14   C     C_R   0.905232 0.481707 0.313143 0.884207
C15   C     C_R   0.134060 0.506912 0.796832 -0.120822
C16   C     C_R   0.846940 0.448870 0.203957 -0.132398
C17   C     C_R   0.132575 0.570313 0.973920 -0.206058
C18   C     C_R   0.820885 0.322120 0.041053 -0.190735
C19   C     C_R   0.078212 0.571381 0.870651 0.274797
C20   C     C_R   0.898593 0.368103 0.137365 0.261680
C21   C     C_R   0.235285 0.435143 0.828104 -0.217950
C22   C     C_R   0.720994 0.482791 0.171473 -0.263539
C23   C     C_R   0.300685 0.445138 0.930323 0.103774
C24   C     C_R   0.636017 0.423263 0.082433 0.105348
C25   C     C_R   0.247176 0.513993 0.003818 0.117337
C26   C     C_R   0.689322 0.347444 0.013810 0.098218
C27   C     C_R   0.425229 0.401040 0.959643 0.086617
C28   C     C_R   0.500363 0.440632 0.059401 0.077377
H1    H     H_    0.269404 0.578596 0.163539 0.162316
H2    H     H_    0.648992 0.237881 0.866305 0.182205
H3    H     H_    0.688742 0.554005 0.219064 0.165173
H4    H     H_    0.267847 0.379671 0.769576 0.171956
H5    H     H_    0.091135 0.621620 0.030484 0.176307
H6    H     H_    0.861211 0.261911 0.989339 0.180300
H7    H     H_    0.483289 0.512504 0.213575 0.145197
H8    H     H_    0.426086 0.283432 0.817689 0.149266
H9    H     H_    0.132152 0.120392 0.547776 0.217839
H10   H     H_    0.922593 0.898268 0.572770 0.210061
H11   H     H_    0.825243 0.090394 0.529307 0.207805
H12   H     H_    0.182151 0.912042 0.486787 0.188632
H13   H     H_    0.661825 0.643942 0.523014 0.193362
H14   H     H_    0.334214 0.380450 0.404096 0.202372
N1    N     N_2   0.322180 0.446120 0.460900 -0.217136
N2    N     N_2   0.677820 0.553880 0.539100 -0.198912
O1    O     O_R   0.935190 0.693030 0.507870 -0.623775
O2    O     O_R   0.064810 0.306970 0.492130 -0.612297
O3    O     O_R   0.142080 0.658430 0.482770 -0.557774
O4    O     O_R   0.857920 0.341570 0.517230 -0.512594
O5    O     O_R   0.969700 0.527180 0.651960 -0.567676
O6    O     O_R   0.030300 0.472820 0.348040 -0.575043
O7    O     O_R   0.176600 0.492580 0.626860 -0.544947
O8    O     O_R   0.823400 0.507420 0.373140 -0.617483
Zn1   Zn    Zn3+2 0.861850 0.523100 0.516760 1.049419
Zn2   Zn    Zn3+2 0.138150 0.476900 0.483240 1.048204
Br1   Br    Br    0.067909 0.309167 0.173705 -0.502616
Br2   Br    Br    0.935584 0.670155 0.837555 -0.468781
S1    S     S_3+6 0.574435 0.306378 0.530113 0.055130
O9    O     O_2   0.608613 0.245800 0.435311 -0.269694
O10   O     O_2   0.676456 0.289761 0.622545 -0.285150
O11   O     O_3   0.425578 0.231843 0.543025 -0.553222
H15   H     H_    0.414833 0.264294 0.611834 0.351775
S2    S     S_3+6 0.441715 0.620052 0.631301 0.057072
O12   O     O_2   0.334237 0.702303 0.623009 -0.231688
O13   O     O_2   0.435157 0.543240 0.719735 -0.336287
O14   O     O_3   0.585845 0.721173 0.662802 -0.551865
H16   H     H_    0.639414 0.689850 0.722647 0.402230

loop_
_geom_bond_atom_site_label_1
_geom_bond_atom_site_label_2
_ccdc_geom_bond_type
C19   Br2   S    
C13   O5    A    
S2    O13   D    
C11   C12   S    
C4    H8    S    
C14   O8    A    
C11   N1    D    
S2    O12   D    
C8    H11   S    
C23   C27   A    
C9    C10   S    
N1    Zn2   S    
C18   C20   A    
C18   C26   A    
C13   C15   S    
C3    H7    S    
C16   C20   A    
O7    Zn2   S    
C17   C25   A    
H13   N2    S    
C11   S2    S    
C23   C25   A    
C6    C26   A    
O1    Zn1   S    
C12   N2    D    
C14   O6    A    
C2    O2    A    
C15   C19   A    
C18   H6    S    
O2    Zn2   S    
S1    O9    D    
O6    Zn2   S    
C17   H5    S    
C1    C7    S    
C10   H9    S    
O5    Zn1   S    
C12   S1    S    
C22   C24   A    
C8    C10   D    
C3    C28   A    
C17   C19   A    
C24   C26   A    
C5    H1    S    
C21   C23   A    
C1    O3    A    
O4    Zn1   S    
C21   H4    S    
C5    C25   A    
S1    O10   D    
C20   Br1   S    
C22   H3    S    
C15   C21   A    
C4    C27   A    
O8    Zn1   S    
C4    C6    A    
O14   H16   S    
H14   N1    S    
C1    O1    A    
C27   C28   A    
C7    C9    D    
O3    Zn2   S    
C9    H10   S    
S1    O11   S    
C16   C22   A    
S2    O14   S    
C2    O4    A    
C14   C16   S    
C13   O7    A    
C7    H12   S    
N2    Zn1   S    
C6    H2    S    
C2    C8    S    
C24   C28   A    
O11   H15   S    
C3    C5    A    
