data_mof_unit_23694.cif
_audit_creation_date              2012-12-11T17:09:34-0500
_audit_creation_method            fapswitch 2.2
_symmetry_space_group_name_H-M    P1
_symmetry_Int_Tables_number       1
_space_group_crystal_system       triclinic
_cell_length_a                    14.802244
_cell_length_b                    6.914005
_cell_length_c                    13.504631
_cell_angle_alpha                 89.998969
_cell_angle_beta                  99.81942
_cell_angle_gamma                 89.999856
_cell_volume                      1361.85402073

loop_
_atom_site_label
_atom_site_type_symbol
_atom_type_description
_atom_site_fract_x
_atom_site_fract_y
_atom_site_fract_z
_atom_type_partial_charge
O1    O     O_R   0.586930 0.505770 0.416350 -0.550866
O2    O     O_R   0.413070 0.005770 0.583650 -0.550906
O3    O     O_R   0.397900 0.173100 0.389630 -0.527892
O4    O     O_R   0.602100 0.673100 0.610370 -0.527899
C1    C     C_R   0.364285 0.345447 0.362739 0.729994
C2    C     C_R   0.635714 0.845445 0.637261 0.730009
O5    O     O_R   0.585280 0.175870 0.404330 -0.529474
O6    O     O_R   0.414720 0.675870 0.595670 -0.529456
O7    O     O_R   0.601790 0.008380 0.598460 -0.541494
O8    O     O_R   0.398210 0.508380 0.401540 -0.541470
C3    C     C_R   0.614285 0.344728 0.382441 0.713010
C4    C     C_R   0.385714 0.844727 0.617558 0.713056
O9    O     O_3   0.505200 0.340120 0.563670 -0.357706
O10   O     O_3   0.494800 0.840120 0.436330 -0.357631
V1    V     V_3+5 0.499040 0.064180 0.488190 1.505764
V2    V     V_3+5 0.500960 0.564180 0.511810 1.505798
C5    C     C_R   0.324405 0.982424 0.765488 0.050071
C6    C     C_R   0.675584 0.482398 0.234496 0.049925
C7    C     C_R   0.317826 0.850985 0.686090 -0.122427
C8    C     C_R   0.682173 0.350985 0.313909 -0.122460
C9    C     C_R   0.245168 0.716946 0.675577 -0.210268
C10   C     C_R   0.754836 0.216954 0.324429 -0.210299
H1    H     H_    0.239899 0.610673 0.615871 0.154005
H2    H     H_    0.760111 0.110688 0.384141 0.153982
C11   C     C_R   0.174290 0.730973 0.734102 -0.038275
C12   C     C_R   0.825709 0.230976 0.265898 -0.038257
C13   C     C_R   0.179831 0.875586 0.810769 -0.201211
C14   C     C_R   0.820165 0.375583 0.189226 -0.201199
C15   C     C_R   0.258608 0.991686 0.827310 0.118307
C16   C     C_R   0.741381 0.491665 0.172676 0.118358
C17   C     C_3   0.270015 0.205800 0.840748 -0.060243
C18   C     C_3   0.729954 0.705770 0.159210 -0.060248
C19   C     C_3   0.342490 0.195094 0.771651 -0.198309
C20   C     C_3   0.657475 0.695056 0.228303 -0.198268
H3    H     H_    0.207494 0.289058 0.809347 0.150051
H4    H     H_    0.792467 0.789059 0.190604 0.150068
H5    H     H_    0.320092 0.269634 0.698518 0.112521
H6    H     H_    0.679863 0.769629 0.301427 0.112569
C21   C     C_1   0.783396 0.877109 0.782963 -0.154026
C22   C     C_1   0.216604 0.377107 0.217037 -0.154008
C23   C     C_1   0.716116 0.860144 0.716931 -0.149200
C24   C     C_1   0.283884 0.360147 0.283069 -0.149188
O11   O     O_R   0.101720 0.231700 0.098560 -0.528764
O12   O     O_R   0.898280 0.731700 0.901440 -0.528760
O13   O     O_R   0.914700 0.558980 0.095690 -0.550737
O14   O     O_R   0.085300 0.058980 0.904310 -0.550741
C25   C     C_R   0.887296 0.389346 0.119493 0.753390
C26   C     C_R   0.112701 0.889347 0.880503 0.753426
O15   O     O_R   0.102080 0.561590 0.110390 -0.542273
O16   O     O_R   0.897920 0.061590 0.889610 -0.542276
O17   O     O_R   0.086950 0.728940 0.916330 -0.532067
O18   O     O_R   0.913050 0.228940 0.083670 -0.532076
C27   C     C_R   0.136141 0.391903 0.137466 0.749254
C28   C     C_R   0.863858 0.891905 0.862534 0.749256
O19   O     O_3   0.994770 0.394510 0.936380 -0.365005
O20   O     O_3   0.005230 0.894510 0.063620 -0.365010
V3    V     V_3+5 0.000970 0.670520 0.011800 1.479763
V4    V     V_3+5 0.999030 0.170520 0.988200 1.479758
C29   C     C_2   0.092239 0.605446 0.705158 0.744312
O21   O     O_2   0.017118 0.656597 0.721594 -0.559070
O22   O     O_R   0.100075 0.431747 0.654154 -0.681009
H7    H     H_    0.039704 0.359745 0.637710 0.299849
C30   C     C_2   0.907753 0.105426 0.294828 0.744358
O23   O     O_2   0.982880 0.156593 0.278427 -0.559076
O24   O     O_R   0.899899 0.931652 0.345752 -0.681018
H8    H     H_    0.960261 0.859610 0.362166 0.299845
N1    N     N_3   0.306790 0.255983 0.944968 -0.595443
H9    H     H_    0.318740 0.405113 0.947572 0.232758
H10   H     H_    0.255345 0.230837 0.987675 0.224194
N2    N     N_3   0.693183 0.755906 0.054982 -0.595325
H11   H     H_    0.681211 0.905028 0.052359 0.232762
H12   H     H_    0.744637 0.730777 0.012286 0.224177
C31   C     C_2   0.439843 0.241152 0.819559 0.860990
O25   O     O_2   0.479893 0.375139 0.786884 -0.554167
O26   O     O_R   0.484189 0.131176 0.900488 -0.629309
H13   H     H_    0.549124 0.176957 0.925625 0.300892
C32   C     C_2   0.560114 0.741042 0.180392 0.860826
O27   O     O_2   0.519992 0.874805 0.213174 -0.554186
O28   O     O_R   0.515839 0.631243 0.099347 -0.629217
H14   H     H_    0.450890 0.676956 0.074222 0.300916

loop_
_geom_bond_atom_site_label_1
_geom_bond_atom_site_label_2
_ccdc_geom_bond_type
C13   C26   S    
C1    C24   S    
C30   O24   S    
C14   C25   S    
C13   C15   A    
C5    C15   A    
C31   O25   D    
O1    C3    A    
O26   H13   S    
O2    C4    A    
C2    O7    A    
C21   C23   T    
C32   O27   D    
O5    C3    A    
O13   V3    S    
O16   C28   A    
C18   H4    S    
C10   H2    S    
C7    C9    A    
C20   C32   S    
C21   C28   S    
O15   V3    S    
O20   V3    S    
O13   C25   A    
C17   H3    S    
O11   V4    S    
O11   C27   A    
C26   O17   A    
C2    C23   S    
C17   C19   S    
N2    H11   S    
C6    C16   A    
C22   C24   T    
C29   O21   D    
O6    V2    S    
O14   V4    S    
C31   O26   S    
C5    C19   S    
C32   O28   S    
C9    H1    S    
O14   C26   A    
C3    C8    S    
C29   O22   S    
N1    H9    S    
O16   V4    S    
O4    C2    A    
C18   N2    S    
O5    V1    S    
C19   H5    S    
O28   H14   S    
N1    H10   S    
C18   C20   S    
O4    V2    S    
C17   N1    S    
C12   C30   S    
O12   V3    S    
O6    C4    A    
O1    V2    S    
O2    V1    S    
C6    C20   S    
O18   V4    S    
O17   V3    S    
C19   C31   S    
C8    C10   A    
C22   C27   S    
O19   V3    S    
O10   V2    S    
O9    V2    S    
O3    V1    S    
C9    C11   A    
C20   H6    S    
O3    C1    A    
C25   O18   A    
C11   C13   A    
C12   C14   A    
O9    V1    S    
O7    V1    S    
C1    O8    A    
C15   C17   S    
O8    V2    S    
C16   C18   S    
O15   C27   A    
C4    C7    S    
C14   C16   A    
C5    C7    A    
O20   V4    S    
C6    C8    A    
O22   H7    S    
C30   O23   D    
O12   C28   A    
O24   H8    S    
C10   C12   A    
O19   V4    S    
O10   V1    S    
N2    H12   S    
C11   C29   S    
