data_mof_unit_16251.cif
_audit_creation_date              2012-12-11T14:25:00-0500
_audit_creation_method            fapswitch 2.2
_symmetry_space_group_name_H-M    P1
_symmetry_Int_Tables_number       1
_space_group_crystal_system       triclinic
_cell_length_a                    19.040937
_cell_length_b                    11.003591
_cell_length_c                    18.634939
_cell_angle_alpha                 90.198912
_cell_angle_beta                  91.528925
_cell_angle_gamma                 90.03993
_cell_volume                      3902.95311626

loop_
_atom_site_label
_atom_site_type_symbol
_atom_type_description
_atom_site_fract_x
_atom_site_fract_y
_atom_site_fract_z
_atom_type_partial_charge
C1    C     C_R   0.729669 0.373351 0.145171 0.535791
C2    C     C_R   0.271553 0.371617 0.855904 0.546233
C3    C     C_R   0.229668 0.873357 0.145174 0.549193
C4    C     C_R   0.771550 0.871623 0.855904 0.533713
C5    C     C_3   0.460343 0.075633 0.030036 -0.115605
C6    C     C_3   0.516886 0.053527 0.973777 -0.106381
C7    C     C_3   0.960323 0.575659 0.030037 -0.116635
C8    C     C_3   0.016861 0.553510 0.973778 -0.105466
C9    C     C_R   0.759159 0.892309 0.932670 0.006081
C10   C     C_R   0.245820 0.900294 0.070188 -0.001733
C11   C     C_R   0.259161 0.392321 0.932664 0.003394
C12   C     C_R   0.745821 0.400261 0.070179 0.000466
C13   C     C_R   0.699237 0.847511 0.968630 0.004398
C14   C     C_R   0.298409 0.837622 0.030654 -0.000973
C15   C     C_R   0.199228 0.347552 0.968612 0.003583
C16   C     C_R   0.798390 0.337551 0.030629 0.000248
C17   C     C_R   0.701664 0.842831 0.044670 -0.033321
C18   C     C_R   0.293633 0.838780 0.954527 -0.033148
C19   C     C_R   0.201645 0.342873 0.044649 -0.032402
C20   C     C_R   0.793607 0.338728 0.954500 -0.033645
C21   C     C_R   0.816603 0.934695 0.047587 -0.160685
C22   C     C_R   0.192309 0.971106 0.959748 -0.152426
C23   C     C_R   0.316598 0.434696 0.047586 -0.159195
C24   C     C_R   0.692317 0.471125 0.959750 -0.153466
C25   C     C_R   0.818339 0.928100 0.974091 -0.156897
C26   C     C_R   0.193649 0.965076 0.032845 -0.157921
C27   C     C_R   0.318342 0.428095 0.974091 -0.157995
C28   C     C_R   0.693663 0.465082 0.032847 -0.157109
C29   C     C_R   0.637921 0.803963 0.932602 -0.169687
C30   C     C_R   0.354602 0.771819 0.063020 -0.148396
C31   C     C_R   0.137914 0.304015 0.932570 -0.169812
C32   C     C_R   0.854579 0.271712 0.062975 -0.148215
C33   C     C_R   0.086641 0.241756 0.970008 -0.128629
C34   C     C_R   0.897566 0.198321 0.021812 -0.098534
C35   C     C_R   0.586651 0.741720 0.970058 -0.127407
C36   C     C_R   0.397587 0.698395 0.021881 -0.099488
C37   C     C_R   0.594432 0.724835 0.043781 0.347379
C38   C     C_R   0.389092 0.693799 0.947771 0.342338
C39   C     C_R   0.094411 0.224870 0.043730 0.347817
C40   C     C_R   0.889063 0.193756 0.947701 0.341334
C41   C     C_R   0.650849 0.776014 0.080913 -0.048645
C42   C     C_R   0.337295 0.762638 0.914265 -0.047507
C43   C     C_R   0.150817 0.276065 0.080876 -0.047245
C44   C     C_R   0.837253 0.262585 0.914216 -0.049258
C45   C     C_R   0.531388 0.155509 0.144970 0.556283
C46   C     C_R   0.468010 0.155567 0.855474 0.548369
C47   C     C_R   0.031391 0.655509 0.144965 0.548453
C48   C     C_R   0.968010 0.655566 0.855471 0.556045
C49   C     C_R   0.755952 0.903217 0.082796 -0.006121
C50   C     C_R   0.244656 0.915575 0.920221 -0.003035
C51   C     C_R   0.255940 0.403234 0.082786 -0.003002
C52   C     C_R   0.744646 0.415566 0.920211 -0.006178
C53   C     C_R   0.489346 0.160224 0.572191 0.004829
C54   C     C_R   0.545405 0.147226 0.436030 0.004047
C55   C     C_R   0.954375 0.647091 0.563947 0.003401
C56   C     C_R   0.010689 0.661089 0.427930 0.005097
C57   C     C_R   0.470185 0.063820 0.525069 0.020614
C58   C     C_R   0.508107 0.045148 0.463582 0.044846
C59   C     C_R   0.992228 0.545849 0.536149 0.044489
C60   C     C_R   0.030278 0.565314 0.474898 0.020904
C61   C     C_R   0.561523 0.246256 0.481007 -0.149833
C62   C     C_R   0.537223 0.248386 0.550836 -0.147599
C63   C     C_R   0.962303 0.748402 0.449473 -0.147541
C64   C     C_R   0.937883 0.745877 0.519280 -0.149414
C65   C     C_R   0.416800 0.980079 0.539936 -0.073498
C66   C     C_R   0.504318 0.926201 0.431781 -0.084767
C67   C     C_R   0.996379 0.426985 0.567434 -0.085387
C68   C     C_R   0.084095 0.482618 0.459896 -0.072135
C69   C     C_R   0.041815 0.339755 0.543964 -0.146734
C70   C     C_R   0.083242 0.366185 0.487928 -0.113966
C71   C     C_R   0.417646 0.863974 0.510947 -0.115183
C72   C     C_R   0.459062 0.838422 0.454701 -0.146109
C73   C     C_R   0.738007 0.964515 0.591293 -0.008245
C74   C     C_R   0.207676 0.833950 0.442066 -0.010690
C75   C     C_R   0.292193 0.334008 0.557730 -0.010561
C76   C     C_R   0.762296 0.464990 0.408705 -0.008191
C77   C     C_R   0.781005 0.056350 0.563736 0.036194
C78   C     C_R   0.152523 0.894368 0.480302 0.027733
C79   C     C_R   0.347357 0.394764 0.519796 0.028186
C80   C     C_R   0.719428 0.556837 0.436553 0.036488
C81   C     C_R   0.785001 0.070201 0.488474 0.029742
C82   C     C_R   0.159986 0.906611 0.555922 0.042689
C83   C     C_R   0.339876 0.407516 0.444231 0.042940
C84   C     C_R   0.715223 0.570385 0.511846 0.029859
C85   C     C_R   0.679174 0.948118 0.476621 -0.150810
C86   C     C_R   0.265583 0.791254 0.557865 -0.162054
C87   C     C_R   0.234716 0.290923 0.441532 -0.161716
C88   C     C_R   0.821105 0.448615 0.523306 -0.151368
C89   C     C_R   0.743018 0.964596 0.150921 0.549571
C90   C     C_R   0.257097 0.966805 0.849752 0.532705
C91   C     C_R   0.243013 0.464611 0.150909 0.535272
C92   C     C_R   0.757093 0.466795 0.849742 0.546841
C93   C     C_R   0.681366 0.924258 0.549799 -0.144558
C94   C     C_R   0.258376 0.770109 0.483466 -0.157624
C95   C     C_R   0.241682 0.269873 0.515909 -0.157266
C96   C     C_R   0.818910 0.424702 0.450051 -0.144531
C97   C     C_R   0.826000 0.123948 0.609868 -0.057185
C98   C     C_R   0.089703 0.941791 0.448076 -0.104194
C99   C     C_R   0.410292 0.441825 0.552264 -0.103688
C100  C     C_R   0.674517 0.624238 0.390609 -0.057662
C101  C     C_R   0.885669 0.176452 0.583590 -0.126539
C102  C     C_R   0.036607 0.990869 0.489047 -0.152493
C103  C     C_R   0.463429 0.491081 0.511579 -0.152065
C104  C     C_R   0.614613 0.675953 0.416924 -0.126661
C105  C     C_R   0.894676 0.180719 0.510078 -0.176906
C106  C     C_R   0.041445 0.987283 0.563191 -0.121265
C107  C     C_R   0.458541 0.487978 0.437425 -0.122168
C108  C     C_R   0.605348 0.679989 0.490416 -0.176539
C109  C     C_R   0.843288 0.135519 0.463005 -0.110294
C110  C     C_R   0.102166 0.944040 0.596552 -0.068577
C111  C     C_R   0.397731 0.445142 0.403823 -0.069458
C112  C     C_R   0.656698 0.635130 0.537451 -0.110235
C113  C     C_R   0.732519 0.013182 0.443551 -0.013535
C114  C     C_R   0.225300 0.880124 0.589654 -0.006950
C115  C     C_R   0.274665 0.380616 0.410276 -0.006896
C116  C     C_R   0.767699 0.513453 0.556572 -0.014009
C117  C     C_R   0.734320 0.389815 0.348628 0.522930
C118  C     C_R   0.290721 0.328176 0.638211 0.562528
C119  C     C_R   0.209188 0.828250 0.361637 0.564280
C120  C     C_R   0.765745 0.889618 0.651314 0.522409
C121  C     C_R   0.564565 0.151116 0.360765 0.537949
C122  C     C_R   0.464717 0.156704 0.645486 0.523863
C123  C     C_R   0.035152 0.656997 0.354491 0.523384
C124  C     C_R   0.935349 0.650828 0.639250 0.537213
C125  C     C_R   0.728953 0.025036 0.364110 0.545427
C126  C     C_R   0.252566 0.958866 0.649887 0.512222
C127  C     C_R   0.247414 0.458994 0.350118 0.511189
C128  C     C_R   0.771134 0.525046 0.636032 0.545993
C129  C     C_3   0.539179 0.249965 0.970235 -0.114807
C130  C     C_3   0.482662 0.272374 0.027141 -0.109642
C131  C     C_3   0.039194 0.749934 0.970226 -0.114959
C132  C     C_3   0.982683 0.772387 0.027131 -0.109494
C133  C     C_3   0.567724 0.140692 0.014011 -0.110158
C134  C     C_3   0.431801 0.184744 0.986496 -0.119599
C135  C     C_3   0.067717 0.640649 0.014006 -0.108650
C136  C     C_3   0.931803 0.684782 0.986491 -0.121002
C137  C     C_3   0.510537 0.162802 0.069549 0.048347
C138  C     C_3   0.488885 0.162488 0.931038 0.046193
C139  C     C_3   0.010536 0.662802 0.069545 0.049580
C140  C     C_3   0.988882 0.662484 0.931035 0.045069
Cr1   Cr    Cr6+3 0.772820 0.169820 0.252640 0.991493
Cr2   Cr    Cr6+3 0.227180 0.169820 0.747360 1.009244
Cr3   Cr    Cr6+3 0.272820 0.669820 0.252640 1.007859
Cr4   Cr    Cr6+3 0.727180 0.669820 0.747360 0.992922
Cr5   Cr    Cr6+3 0.615040 0.323610 0.249150 1.025271
Cr6   Cr    Cr6+3 0.384960 0.323610 0.750850 1.037785
Cr7   Cr    Cr6+3 0.115040 0.823610 0.249150 1.024355
Cr8   Cr    Cr6+3 0.884960 0.823610 0.750850 1.037940
Cr9   Cr    Cr6+3 0.616720 0.011130 0.250660 1.004989
Cr10  Cr    Cr6+3 0.383280 0.011130 0.749340 1.013036
Cr11  Cr    Cr6+3 0.116720 0.511130 0.250660 1.015426
Cr12  Cr    Cr6+3 0.883280 0.511130 0.749340 1.002471
H1    H     H_    0.623966 0.122010 0.027049 0.128306
H2    H     H_    0.375389 0.199848 0.973091 0.126489
H3    H     H_    0.123955 0.621932 0.027043 0.128457
H4    H     H_    0.875394 0.699912 0.973083 0.126890
H5    H     H_    0.593705 0.320494 0.462475 0.142102
H6    H     H_    0.553691 0.320555 0.587206 0.127949
H7    H     H_    0.945506 0.820172 0.413302 0.127481
H8    H     H_    0.905329 0.819593 0.538031 0.141970
H9    H     H_    0.042380 0.249600 0.567032 0.116542
H10   H     H_    0.109761 0.292509 0.464426 0.119836
H11   H     H_    0.390858 0.789921 0.533617 0.119585
H12   H     H_    0.458539 0.748532 0.430934 0.116148
H13   H     H_    0.638390 0.907852 0.444688 0.142741
H14   H     H_    0.304176 0.743618 0.590668 0.127974
H15   H     H_    0.196474 0.242565 0.408405 0.127276
H16   H     H_    0.861896 0.408493 0.555121 0.142711
H17   H     H_    0.818819 0.125833 0.667364 0.136071
H18   H     H_    0.076328 0.938722 0.392091 0.175653
H19   H     H_    0.423795 0.438133 0.608188 0.176145
H20   H     H_    0.681840 0.626120 0.333141 0.133257
H21   H     H_    0.924884 0.211219 0.620960 0.095375
H22   H     H_    0.989168 0.023201 0.462521 0.118303
H23   H     H_    0.510959 0.523020 0.538288 0.118191
H24   H     H_    0.575423 0.710239 0.379568 0.093931
H25   H     H_    0.939991 0.223535 0.488033 0.117115
H26   H     H_    0.997978 0.016744 0.595024 0.130098
H27   H     H_    0.502067 0.517360 0.405745 0.129362
H28   H     H_    0.559836 0.722372 0.512473 0.117782
H29   H     H_    0.853070 0.153775 0.407861 0.165585
H30   H     H_    0.103443 0.938690 0.654586 0.140669
H31   H     H_    0.396529 0.439907 0.345768 0.139855
H32   H     H_    0.646660 0.653162 0.592639 0.165802
H33   H     H_    0.571156 0.320081 0.943678 0.133748
H34   H     H_    0.469146 0.361612 0.050867 0.140592
H35   H     H_    0.071183 0.820025 0.943660 0.133107
H36   H     H_    0.969181 0.861639 0.050849 0.141153
H37   H     H_    0.427922 0.005405 0.056007 0.132068
H38   H     H_    0.530060 0.965009 0.949469 0.139769
H39   H     H_    0.927885 0.505455 0.056010 0.130586
H40   H     H_    0.030011 0.464979 0.949471 0.140283
H41   H     H_    0.861916 0.970425 0.076858 0.140148
H42   H     H_    0.151230 0.025147 0.934471 0.165264
H43   H     H_    0.361912 0.470418 0.076862 0.139361
H44   H     H_    0.651249 0.525199 0.934484 0.165561
H45   H     H_    0.627851 0.817962 0.876018 0.154917
H46   H     H_    0.367837 0.776688 0.119481 0.167670
H47   H     H_    0.127848 0.318030 0.875986 0.157252
H48   H     H_    0.867811 0.276537 0.119437 0.166602
H49   H     H_    0.867969 0.947497 0.950124 0.216099
H50   H     H_    0.151078 0.008238 0.060041 0.204692
H51   H     H_    0.367976 0.447477 0.950129 0.215514
H52   H     H_    0.651106 0.508268 0.060051 0.204747
H53   H     H_    0.042024 0.204069 0.941139 0.206271
H54   H     H_    0.935399 0.140329 0.047982 0.211430
H55   H     H_    0.542030 0.704035 0.941199 0.206651
H56   H     H_    0.435413 0.640410 0.048068 0.211111
H57   H     H_    0.656342 0.757548 0.137801 0.148499
H58   H     H_    0.330042 0.752188 0.856801 0.152653
H59   H     H_    0.156298 0.257603 0.137763 0.152276
H60   H     H_    0.829991 0.252147 0.856749 0.148558
O1    O     O_R   0.788190 0.043000 0.172520 -0.512001
O2    O     O_R   0.211810 0.043000 0.827480 -0.523908
O3    O     O_R   0.288190 0.543000 0.172520 -0.522291
O4    O     O_R   0.711810 0.543000 0.827480 -0.513186
O5    O     O_R   0.556550 0.253260 0.323480 -0.491160
O6    O     O_R   0.443450 0.253260 0.676520 -0.539551
O7    O     O_R   0.056550 0.753260 0.323480 -0.540137
O8    O     O_R   0.943450 0.753260 0.676520 -0.490478
O9    O     O_R   0.545830 0.051610 0.330160 -0.538931
O10   O     O_R   0.454170 0.051610 0.669840 -0.521873
O11   O     O_R   0.045830 0.551610 0.330160 -0.521310
O12   O     O_R   0.954170 0.551610 0.669840 -0.538702
O13   O     O_R   0.681920 0.959720 0.327070 -0.525101
O14   O     O_R   0.318080 0.959720 0.672930 -0.523122
O15   O     O_R   0.181920 0.459720 0.327070 -0.523595
O16   O     O_R   0.818080 0.459720 0.672930 -0.523888
O17   O     O_3   0.668190 0.168190 0.250820 -0.284757
O18   O     O_3   0.331810 0.168190 0.749180 -0.277923
O19   O     O_3   0.168190 0.668190 0.250820 -0.274817
O20   O     O_3   0.831810 0.668190 0.749180 -0.288646
O21   O     O_R   0.766240 0.292300 0.176860 -0.513521
O22   O     O_R   0.233760 0.292300 0.823140 -0.506588
O23   O     O_R   0.266240 0.792300 0.176860 -0.507702
O24   O     O_R   0.733760 0.792300 0.823140 -0.512258
O25   O     O_R   0.670310 0.409160 0.168720 -0.506571
O26   O     O_R   0.329690 0.409160 0.831280 -0.478957
O27   O     O_R   0.170310 0.909160 0.168720 -0.497741
O28   O     O_R   0.829690 0.909160 0.831280 -0.488083
O29   O     O_R   0.556160 0.251900 0.173380 -0.488819
O30   O     O_R   0.443840 0.251900 0.826620 -0.488197
O31   O     O_R   0.056160 0.751900 0.173380 -0.492272
O32   O     O_R   0.943840 0.751900 0.826620 -0.484698
O33   O     O_R   0.545410 0.050140 0.168240 -0.503654
O34   O     O_R   0.454590 0.050140 0.831760 -0.513845
O35   O     O_R   0.045410 0.550140 0.168240 -0.505419
O36   O     O_R   0.954590 0.550140 0.831760 -0.512147
O37   O     O_R   0.681530 0.958350 0.176970 -0.505491
O38   O     O_R   0.318470 0.958350 0.823030 -0.504741
O39   O     O_R   0.181530 0.458350 0.176970 -0.507519
O40   O     O_R   0.818470 0.458350 0.823030 -0.502614
O41   O     O_R   0.788610 0.044480 0.334450 -0.530301
O42   O     O_R   0.211390 0.044480 0.665550 -0.538660
O43   O     O_R   0.288610 0.544480 0.334450 -0.539935
O44   O     O_R   0.711390 0.544480 0.665550 -0.529220
O45   O     O_R   0.766630 0.293670 0.326970 -0.529620
O46   O     O_R   0.233370 0.293670 0.673030 -0.484608
O47   O     O_R   0.266630 0.793670 0.326970 -0.484735
O48   O     O_R   0.733370 0.793670 0.673030 -0.530186
O49   O     O_R   0.670730 0.410640 0.330640 -0.534342
O50   O     O_R   0.329270 0.410640 0.669360 -0.532542
O51   O     O_R   0.170730 0.910640 0.330640 -0.534683
O52   O     O_R   0.829270 0.910640 0.669360 -0.533758
H61   H     H_    0.376406 0.004102 0.575219 0.168253
H62   H     H_    0.538299 0.892001 0.391886 0.145248
H63   H     H_    0.962422 0.392368 0.607088 0.144924
H64   H     H_    0.124502 0.507640 0.424902 0.167320
H65   H     H_    0.641896 0.867699 0.573220 0.131457
H66   H     H_    0.294555 0.708721 0.457948 0.149959
H67   H     H_    0.205547 0.208150 0.541055 0.149237
H68   H     H_    0.858281 0.367905 0.426482 0.131188
F1    F     F_    0.049703 0.153798 0.079821 -0.687469
F2    F     F_    0.930110 0.120655 0.907836 -0.677100
F3    F     F_    0.549728 0.653771 0.079884 -0.689326
F4    F     F_    0.430133 0.620658 0.907927 -0.674477

loop_
_geom_bond_atom_site_label_1
_geom_bond_atom_site_label_2
_ccdc_geom_bond_type
C24   C52   A    
Cr11  O15   S    
C124  O8    A    
C133  C137  S    
Cr10  O14   S    
C129  H33   S    
C128  O16   A    
C100  H20   S    
Cr9   O13   S    
C14   C18   A    
C89   O1    A    
C119  O47   A    
C74   C94   A    
C86   H14   S    
C73   C93   A    
C48   O32   A    
Cr4   O20   S    
C132  H36   S    
C15   C31   A    
C88   C96   A    
Cr6   O18   S    
C9    C25   A    
C7    C8    S    
C112  H32   S    
C130  C134  S    
C34   H54   S    
C132  C139  S    
C135  C139  S    
C74   C119  S    
Cr4   O44   S    
C88   H16   S    
C7    C136  S    
C33   C39   A    
C50   C90   S    
C71   H11   S    
C12   C28   A    
C37   C41   A    
C34   C40   A    
C82   C110  A    
C13   C29   A    
C26   H50   S    
C69   H9    S    
C117  O45   A    
C38   C42   A    
C6    C133  S    
C55   C59   A    
C53   C122  S    
C18   C42   A    
Cr11  O35   S    
C5    C6    S    
C136  H4    S    
C132  C136  S    
Cr2   O18   S    
C99   H19   S    
C24   H44   S    
Cr1   O17   S    
C94   H66   S    
C100  C104  A    
C98   H18   S    
C115  C127  S    
C108  H28   S    
Cr2   O46   S    
Cr3   O23   S    
C9    C13   A    
C97   C101  A    
C91   O3    A    
C131  C140  S    
C86   C94   A    
C51   C91   S    
Cr12  O16   S    
C85   C93   A    
C2    O22   A    
C87   H15   S    
C129  C138  S    
C12   C16   A    
C1    O21   A    
C120  O52   A    
Cr5   O25   S    
C67   H63   S    
C78   C98   A    
Cr9   O33   S    
C76   C80   A    
C31   C33   A    
C124  O12   A    
Cr8   O20   S    
C11   C27   A    
C74   C78   A    
Cr12  O40   S    
C43   H59   S    
Cr6   O50   S    
C87   C115  A    
C61   C62   A    
C42   H58   S    
Cr5   O5    S    
C136  C140  S    
C119  O51   A    
C46   C138  S    
C41   H57   S    
C10   C26   A    
C104  C108  A    
C47   C139  S    
C122  O10   A    
C65   H61   S    
C59   C60   A    
C84   C116  A    
C73   C120  S    
Cr3   O43   S    
C80   C100  A    
C8    C135  S    
Cr9   O37   S    
C4    O24   A    
C7    H39   S    
C40   F2    S    
C126  O14   A    
C1    C12   S    
Cr7   O19   S    
C14   C30   A    
Cr1   O21   S    
C125  O13   A    
C2    C11   S    
C70   H10   S    
C11   C15   A    
C31   H47   S    
C20   C44   A    
C58   C66   A    
Cr10  O38   S    
C92   O40   A    
C101  C105  A    
C5    C134  S    
Cr11  O19   S    
C49   C89   S    
C101  H21   S    
Cr4   O24   S    
Cr2   O2    S    
C75   C95   A    
C3    O23   A    
C28   H52   S    
C56   C123  S    
C83   C115  A    
C66   C72   A    
C88   C116  A    
C82   C114  A    
C104  H24   S    
C99   C103  A    
C10   C14   A    
C135  H3    S    
C17   C49   A    
C80   C84   A    
Cr4   O4    S    
C53   C57   A    
C106  H26   S    
C2    O26   A    
Cr11  O39   S    
C19   C43   A    
C1    O25   A    
C98   C102  A    
C123  O11   A    
C123  O7    A    
C108  C112  A    
Cr12  O20   S    
C87   C95   A    
C67   C69   A    
C32   C34   A    
C6    C138  S    
C15   C19   A    
C30   C36   A    
C63   H7    S    
C103  H23   S    
C61   H5    S    
C90   O38   A    
C53   C62   A    
C78   C82   A    
C59   C67   A    
C23   C51   A    
C118  O50   A    
C77   C81   A    
C16   C20   A    
C48   C140  S    
C33   H53   S    
C55   C64   A    
Cr6   O30   S    
C111  H31   S    
C4    O28   A    
C56   C63   A    
Cr3   O47   S    
C126  O42   A    
C84   C112  A    
Cr8   O52   S    
C125  O41   A    
Cr8   O8    S    
C46   O34   A    
Cr10  O10   S    
C22   C26   A    
C89   O37   A    
Cr9   O9    S    
C129  C133  S    
C21   C49   A    
C91   O39   A    
C35   H55   S    
C30   H46   S    
C54   C121  S    
C81   C109  A    
Cr7   O31   S    
C23   C27   A    
C85   C113  A    
C72   H12   S    
Cr5   O49   S    
C54   C58   A    
Cr12  O36   S    
C127  O43   A    
C7    C139  S    
C96   H68   S    
C46   O30   A    
Cr7   O51   S    
C131  C132  S    
Cr3   O19   S    
C45   O29   A    
C90   O2    A    
C6    H38   S    
C18   C50   A    
Cr3   O3    S    
C45   C137  S    
C106  C110  A    
C36   H56   S    
C79   C99   A    
Cr10  O34   S    
C21   C25   A    
C55   C124  S    
C133  H1    S    
Cr1   O45   S    
C122  O6    A    
C75   C79   A    
C35   C37   A    
C86   C114  A    
Cr8   O28   S    
C107  C111  A    
C131  C135  S    
Cr5   O29   S    
C75   C118  S    
C24   C28   A    
C105  H25   S    
C63   C64   A    
C66   H62   S    
C134  C138  S    
C39   C43   A    
C130  H34   S    
C39   F1    S    
C95   H67   S    
C102  H22   S    
C79   C83   A    
C54   C61   A    
Cr7   O27   S    
Cr9   O17   S    
C16   C32   A    
C121  O5    A    
C29   C35   A    
C22   H42   S    
C107  H27   S    
C64   H8    S    
Cr10  O18   S    
C22   C50   A    
C8    C140  S    
C60   C68   A    
C85   H13   S    
Cr12  O12   S    
C129  C130  S    
C97   H17   S    
C117  O49   A    
C71   C72   A    
C32   H48   S    
C3    C10   S    
C120  O48   A    
C5    C137  S    
C76   C96   A    
C36   C38   A    
C47   O31   A    
C38   F4    S    
C57   C58   A    
C134  H2    S    
C25   H49   S    
C105  C109  A    
C127  O15   A    
C19   C51   A    
C114  C126  S    
C44   H60   S    
C109  H29   S    
C128  O44   A    
C93   H65   S    
Cr11  O11   S    
C62   H6    S    
C92   O4    A    
C83   C111  A    
C65   C71   A    
Cr1   O1    S    
Cr6   O26   S    
C69   C70   A    
C8    H40   S    
C76   C117  S    
C17   C41   A    
C68   H64   S    
Cr7   O7    S    
Cr4   O48   S    
C5    H37   S    
C13   C17   A    
Cr6   O6    S    
C56   C60   A    
Cr2   O42   S    
C40   C44   A    
C29   H45   S    
C113  C125  S    
Cr1   O41   S    
C110  H30   S    
C73   C77   A    
C20   C52   A    
C118  O46   A    
C116  C128  S    
C102  C106  A    
C81   C113  A    
Cr2   O22   S    
Cr8   O32   S    
C68   C70   A    
C121  O9    A    
C47   O35   A    
C48   O36   A    
C103  C107  A    
C77   C97   A    
C21   H41   S    
C4    C9    S    
C130  C137  S    
Cr5   O17   S    
C45   O33   A    
C52   C92   S    
C37   F3    S    
C23   H43   S    
C27   H51   S    
C3    O27   A    
C57   C65   A    
C131  H35   S    
