data_mof_unit_23521.cif
_audit_creation_date              2013-03-05T15:51:40-0500
_audit_creation_method            fapswitch 2.2
_symmetry_space_group_name_H-M    P1
_symmetry_Int_Tables_number       1
_space_group_crystal_system       triclinic
_cell_length_a                    11.523503
_cell_length_b                    11.544736
_cell_length_c                    19.55879
_cell_angle_alpha                 90.20339
_cell_angle_beta                  89.681587
_cell_angle_gamma                 59.747137
_cell_volume                      2247.55569501

loop_
_atom_site_label
_atom_site_type_symbol
_atom_site_description
_atom_site_fract_x
_atom_site_fract_y
_atom_site_fract_z
_atom_type_partial_charge
O1    O     O_R   0.267750 0.231960 0.575440 -0.488401
O2    O     O_R   0.527290 0.186640 0.570530 -0.483582
C1    C     C_R   0.640362 0.117334 0.599330 0.557598
O3    O     O_R   0.728110 0.003450 0.576380 -0.496401
O4    O     O_R   0.682980 0.789190 0.570500 -0.485741
C2    C     C_R   0.612521 0.745757 0.598630 0.556329
O5    O     O_R   0.499300 0.771880 0.575540 -0.493980
O6    O     O_R   0.285350 0.030870 0.569740 -0.492509
C3    C     C_R   0.240658 0.145368 0.598151 0.553975
O7    O     O_R   0.270960 0.227070 0.423890 -0.499871
O8    O     O_R   0.530270 0.182120 0.430040 -0.475899
C4    C     C_R   0.619044 0.080017 0.394912 0.540076
O9    O     O_R   0.731320 0.998570 0.424830 -0.505955
O10   O     O_R   0.685950 0.784660 0.430010 -0.499520
C5    C     C_R   0.618191 0.738324 0.402886 0.571885
O11   O     O_R   0.502510 0.767000 0.423980 -0.481172
O12   O     O_R   0.288320 0.026340 0.429250 -0.503876
C6    C     C_R   0.247882 0.138811 0.400269 0.559481
Cr1   Cr    Cr6+3 0.404720 0.198220 0.499960 1.095570
Cr2   Cr    Cr6+3 0.698290 0.897110 0.500380 1.075456
Cr3   Cr    Cr6+3 0.396970 0.904720 0.499610 1.084340
O13   O     O_3   0.499990 0.000020 0.499980 -0.307572
C7    C     C_1   0.670790 0.646560 0.860086 0.005484
C8    C     C_1   0.654755 0.683461 0.728393 -0.027733
C9    C     C_1   0.663750 0.666614 0.799633 -0.029381
C10   C     C_1   0.641054 0.703621 0.667980 0.011180
C11   C     C_1   0.127062 0.199029 0.859310 0.005102
C12   C     C_1   0.171317 0.170245 0.727743 -0.027552
C13   C     C_1   0.150332 0.182428 0.798955 -0.029148
C14   C     C_1   0.194910 0.160802 0.667383 0.009256
C15   C     C_1   0.678681 0.191505 0.860734 0.004525
C16   C     C_1   0.658314 0.167286 0.729044 -0.027374
C17   C     C_1   0.665672 0.181087 0.800340 -0.028579
C18   C     C_1   0.652656 0.149685 0.668690 0.007240
C19   C     C_R   0.655490 0.668384 0.192594 0.012794
C20   C     C_R   0.562049 0.653836 0.232250 -0.002006
C21   C     C_R   0.559683 0.665649 0.301536 0.046072
C22   C     C_R   0.737171 0.718525 0.294772 -0.120309
C23   C     C_R   0.739190 0.707721 0.223777 -0.176970
C24   C     C_3   0.538162 0.537417 0.236103 -0.224636
C25   C     C_3   0.535735 0.551564 0.312969 0.090385
C26   C     C_R   0.650902 0.691057 0.334032 0.047408
H1    H     H_    0.802889 0.747491 0.318910 0.157477
H2    H     H_    0.811361 0.721004 0.194196 0.125673
H3    H     H_    0.626430 0.442420 0.217912 0.132855
H4    H     H_    0.440596 0.561106 0.213201 0.165561
H5    H     H_    0.619761 0.464558 0.339265 0.151211
C27   C     C_R   0.153990 0.193004 0.189143 0.025281
C28   C     C_R   0.169519 0.286105 0.227616 -0.020361
C29   C     C_R   0.193825 0.267817 0.296100 0.008073
C30   C     C_R   0.211558 0.051414 0.289829 -0.152221
C31   C     C_R   0.184556 0.070290 0.219545 -0.157369
C32   C     C_3   0.079329 0.434821 0.236434 -0.239047
C33   C     C_3   0.107913 0.413748 0.312429 0.092384
C34   C     C_R   0.206199 0.155896 0.329575 0.051234
H6    H     H_    0.232435 0.958005 0.313061 0.186241
H7    H     H_    0.178685 0.993463 0.190433 0.137535
H8    H     H_    0.973746 0.468570 0.222652 0.188075
H9    H     H_    0.122147 0.492084 0.212078 0.109187
H10   H     H_    0.165898 0.459542 0.332564 0.153237
C35   C     C_R   0.664824 0.168228 0.188063 0.011695
C36   C     C_R   0.758713 0.047589 0.219148 0.026507
C37   C     C_R   0.740758 0.016991 0.284657 -0.009354
C38   C     C_R   0.522021 0.216019 0.288347 -0.138799
C39   C     C_R   0.540451 0.247268 0.221056 -0.168526
C40   C     C_3   0.906779 0.988660 0.229063 -0.250339
C41   C     C_3   0.886558 0.955938 0.301275 -0.242872
C42   C     C_R   0.627714 0.105475 0.322496 0.010506
H11   H     H_    0.429321 0.283223 0.314966 0.160574
H12   H     H_    0.462286 0.337226 0.197319 0.124740
H13   H     H_    0.938040 0.065295 0.226941 0.163711
H14   H     H_    0.967133 0.898078 0.196675 0.144058
H15   H     H_    0.936619 0.846405 0.310636 0.157168
H16   H     H_    0.906193 0.014035 0.340389 0.183082
O14   O     O_R   0.821590 0.119350 0.952850 -0.504298
O15   O     O_R   0.037230 0.162540 0.957390 -0.494039
C43   C     C_R   0.082033 0.231168 0.928620 0.546164
O16   O     O_R   0.056530 0.344750 0.951370 -0.503615
O17   O     O_R   0.798000 0.560370 0.957490 -0.493327
C44   C     C_R   0.683929 0.604669 0.929497 0.545732
O18   O     O_R   0.596230 0.579400 0.952760 -0.504110
O19   O     O_R   0.639160 0.321170 0.958690 -0.492680
C45   C     C_R   0.708389 0.206792 0.930063 0.547363
O20   O     O_R   0.821370 0.124220 0.104400 -0.517111
O21   O     O_R   0.037020 0.167050 0.097880 -0.509106
C46   C     C_R   0.084266 0.235258 0.124700 0.548186
O22   O     O_R   0.056310 0.349620 0.102920 -0.518717
O23   O     O_R   0.797790 0.564880 0.097980 -0.508450
C47   C     C_R   0.681566 0.612459 0.125084 0.548314
O24   O     O_R   0.596000 0.584270 0.104310 -0.519875
O25   O     O_R   0.638950 0.325690 0.099180 -0.510483
C48   C     C_R   0.707042 0.209201 0.126383 0.537210
Cr4   Cr    Cr6+3 0.926290 0.152010 0.028150 1.026927
Cr5   Cr    Cr6+3 0.921440 0.451830 0.027490 1.027240
Cr6   Cr    Cr6+3 0.626370 0.446880 0.028730 1.026596
O26   O     O_3   0.824700 0.350240 0.028120 -0.252726
N1    N     N_R   0.989815 0.443508 0.354003 0.078577
O27   O     O_R   0.965216 0.513381 0.410012 -0.322944
O28   O     O_R   0.912888 0.395261 0.337720 -0.375233
N2    N     N_R   0.403760 0.594269 0.343409 0.085696
O29   O     O_R   0.295619 0.697361 0.319952 -0.376116
O30   O     O_R   0.393964 0.527871 0.394526 -0.328340

loop_
_geom_bond_atom_site_label_1
_geom_bond_atom_site_label_2
_geom_bond_distance
_ccdc_geom_bond_type
O11   Cr3   2.051837 S    
C11   C13   1.202190 T    
Cr6   O26   1.974460 S    
N1    O27   1.300374 A    
C32   H9    1.111630 S    
O24   Cr6   2.059560 S    
O4    Cr2   1.922302 S    
C33   H10   1.112875 S    
C32   C33   1.517981 S    
C24   H4    1.111817 S    
C4    O9    1.298831 A    
C4    C42   1.460635 S    
O8    Cr1   1.924354 S    
C29   C33   1.494148 S    
C38   C42   1.416718 A    
C20   C21   1.360257 A    
C8    C10   1.200956 T    
C22   C26   1.410442 A    
O4    C2    1.273018 A    
O18   Cr6   2.038517 S    
C28   C32   1.501830 S    
C5    O11   1.266909 A    
O22   Cr5   2.043120 S    
C15   C45   1.432269 S    
C30   H6    1.081913 S    
C21   C26   1.382672 A    
O21   Cr4   1.938885 S    
C40   H14   1.111810 S    
C19   C20   1.401097 A    
O6    C3    1.275518 A    
C15   C17   1.204730 T    
C33   N1    1.464878 S    
C41   H15   1.110455 S    
C7    C44   1.425842 S    
C35   C48   1.464657 S    
C43   O16   1.268817 A    
C40   C41   1.510187 S    
Cr3   O13   1.983931 S    
N1    O28   1.302643 A    
O6    Cr3   1.932756 S    
O23   Cr5   1.930286 S    
C2    C10   1.425843 S    
C24   H3    1.110468 S    
O7    C6    1.262317 A    
C37   C41   1.496569 S    
O1    Cr1   2.042784 S    
C36   C40   1.498891 S    
C30   C31   1.404484 A    
O10   Cr2   1.943041 S    
C20   C24   1.503701 S    
Cr1   O13   1.977308 S    
O1    C3    1.268951 A    
O15   C43   1.273978 A    
O17   Cr5   1.925051 S    
O25   C48   1.286000 A    
C46   O22   1.267014 A    
C1    C18   1.432408 S    
O21   C46   1.274310 A    
O12   Cr3   1.922058 S    
C16   C18   1.204770 T    
C19   C23   1.398011 A    
C36   C37   1.372288 A    
O15   Cr4   1.924229 S    
C40   H13   1.111515 S    
O7    Cr1   2.052354 S    
C32   H8    1.109746 S    
N2    O30   1.300487 A    
O12   C6    1.273934 A    
C25   H5    1.113651 S    
C25   N2    1.463822 S    
C41   H16   1.112438 S    
C38   H11   1.081647 S    
C8    C9    1.404736 S    
Cr5   O26   1.983887 S    
C2    O5    1.268155 A    
C3    C14   1.427914 S    
C6    C34   1.447516 S    
C24   C25   1.510252 S    
Cr2   O13   1.974328 S    
C28   C29   1.365192 A    
Cr4   O26   1.976925 S    
C27   C46   1.446690 S    
C1    O3    1.266379 A    
C19   C47   1.429934 S    
O14   Cr4   2.059392 S    
C37   C42   1.389690 A    
C12   C13   1.406693 S    
O19   Cr6   1.942343 S    
O9    Cr2   2.038544 S    
O2    Cr1   1.936670 S    
C5    C26   1.426649 S    
C44   O18   1.267419 A    
C11   C43   1.428017 S    
O8    C4    1.295910 A    
C23   H2    1.083375 S    
C29   C34   1.392806 A    
C16   C17   1.410840 S    
C12   C14   1.202161 T    
O2    C1    1.271266 A    
C22   H1    1.079936 S    
O5    Cr3   2.039943 S    
C38   C39   1.408863 A    
O14   C45   1.265750 A    
C22   C23   1.392742 A    
O16   Cr5   2.046994 S    
C27   C28   1.393937 A    
N2    O29   1.302181 A    
C30   C34   1.407427 A    
O20   Cr4   2.040363 S    
C7    C9    1.200954 T    
C21   C25   1.492811 S    
C35   C36   1.405308 A    
C31   H7    1.082938 S    
O25   Cr6   1.920599 S    
O17   C44   1.273504 A    
O3    Cr2   2.062194 S    
C35   C39   1.403885 A    
C27   C31   1.410745 A    
O23   C47   1.274856 A    
O19   C45   1.273524 A    
O10   C5    1.265216 A    
O20   C48   1.253553 A    
C47   O24   1.253023 A    
C39   H12   1.082085 S    
