data_mof_unit_46854.cif
_audit_creation_date              2012-10-26T18:37:58-0400
_audit_creation_method            fapswitch 2.2
_symmetry_space_group_name_H-M    P1
_symmetry_Int_Tables_number       1
_space_group_crystal_system       triclinic
_cell_length_a                    14.670526
_cell_length_b                    15.908767
_cell_length_c                    17.280181
_cell_angle_alpha                 89.615205
_cell_angle_beta                  86.210941
_cell_angle_gamma                 90.982809
_cell_volume                      4023.48878793

loop_
_atom_site_label
_atom_site_type_symbol
_atom_type_description
_atom_site_fract_x
_atom_site_fract_y
_atom_site_fract_z
_atom_type_partial_charge
C1    C     C_R   0.500805 0.660233 0.499568 0.550250
C2    C     C_R   0.517693 0.484783 0.265787 0.014010
C3    C     C_3   0.469560 0.949950 0.417556 -0.187784
C4    C     C_R   0.488429 0.500304 0.650379 0.542155
C5    C     C_3   0.598410 0.955189 0.504580 -0.228865
C6    C     C_3   0.593786 0.052347 0.505137 -0.227025
C7    C     C_1   0.497755 0.250226 0.500585 -0.037926
C8    C     C_3   0.501786 0.917370 0.496275 0.050098
C9    C     C_3   0.447169 0.046760 0.421016 0.037038
C10   C     C_3   0.493950 0.082587 0.496544 0.075050
C11   C     C_3   0.439680 0.045622 0.570044 -0.222835
C12   C     C_R   0.400313 0.480205 0.777190 -0.136506
C13   C     C_3   0.438354 0.948201 0.565793 -0.217246
C14   C     C_1   0.495835 0.174752 0.499368 -0.072576
C15   C     C_1   0.503588 0.825333 0.497014 -0.078958
C16   C     C_R   0.499294 0.339789 0.500657 0.551447
C17   C     C_1   0.502826 0.749857 0.498184 -0.036665
C18   C     C_3   0.942770 0.411645 0.496065 -0.198166
C19   C     C_3   0.941088 0.538870 0.580062 -0.092198
C20   C     C_3   0.048002 0.543898 0.576876 -0.252006
C21   C     C_3   0.907440 0.502727 0.502818 -0.009733
C22   C     C_3   0.050384 0.406961 0.498754 0.201234
C23   C     C_R   0.444398 0.451476 0.148285 -0.128329
C24   C     C_3   0.091846 0.500491 0.502143 0.034176
C25   C     C_3   0.059150 0.551335 0.429914 -0.094264
C26   C     C_3   0.951940 0.553107 0.432705 -0.222702
C27   C     C_1   0.195272 0.499278 0.499616 0.148381
C28   C     C_R   0.511563 0.497118 0.349675 0.544622
C29   C     C_1   0.804547 0.502077 0.502092 0.116420
C30   C     C_R   0.482791 0.500392 0.734984 0.000862
C31   C     C_R   0.560737 0.520400 0.773957 -0.138088
C32   C     C_R   0.557064 0.518497 0.854115 -0.112084
C33   C     C_R   0.476424 0.493978 0.896748 0.036190
C34   C     C_R   0.438439 0.466703 0.227434 -0.124534
C35   C     C_R   0.396013 0.476854 0.858379 0.002756
C36   C     C_R   0.486172 0.088229 0.342609 0.025633
C37   C     C_R   0.429125 0.124750 0.288463 -0.101955
C38   C     C_R   0.465640 0.165174 0.221009 -0.110088
C39   C     C_R   0.559480 0.166963 0.203219 -0.097481
C40   C     C_R   0.616609 0.125470 0.251380 -0.110993
C41   C     C_R   0.580447 0.085211 0.319031 -0.097864
C42   C     C_R   0.341138 0.061962 0.432743 0.021168
C43   C     C_R   0.274290 0.996712 0.445830 -0.110063
C44   C     C_R   0.181591 0.014169 0.459098 -0.128360
C45   C     C_R   0.603133 0.485788 0.224168 -0.130350
C46   C     C_R   0.152477 0.096788 0.461395 -0.095263
C47   C     C_R   0.216155 0.162229 0.450870 -0.088537
C48   C     C_R   0.308586 0.145390 0.436296 -0.113817
C49   C     C_R   0.074033 0.344810 0.563936 0.071793
C50   C     C_R   0.033316 0.263393 0.564979 -0.092718
C51   C     C_R   0.052260 0.203584 0.620984 -0.126695
C52   C     C_R   0.113668 0.222643 0.676623 -0.102464
C53   C     C_R   0.156401 0.301482 0.676203 -0.113612
C54   C     C_R   0.137509 0.361808 0.620541 -0.094335
C55   C     C_R   0.894958 0.620682 0.605236 0.034940
C56   C     C_R   0.609003 0.470906 0.144822 -0.112326
C57   C     C_R   0.822204 0.617803 0.662778 -0.087717
C58   C     C_R   0.776010 0.690840 0.684856 -0.101993
C59   C     C_R   0.801899 0.767828 0.650168 -0.100720
C60   C     C_R   0.874253 0.771949 0.593533 -0.116544
C61   C     C_R   0.920573 0.699073 0.571095 -0.096287
C62   C     C_R   0.100738 0.639070 0.410672 0.004214
C63   C     C_R   0.077729 0.677618 0.340923 -0.105485
C64   C     C_R   0.114890 0.755897 0.317595 -0.106659
C65   C     C_R   0.176700 0.796961 0.362860 -0.110051
C66   C     C_R   0.201161 0.759858 0.431637 -0.111353
C67   C     C_R   0.529543 0.455037 0.106235 0.031927
C68   C     C_R   0.163771 0.681902 0.455589 -0.077947
C69   C     C_R   0.599097 0.387996 0.983267 0.056495
C70   C     C_R   0.690617 0.411571 0.964275 -0.104882
C71   C     C_R   0.750892 0.354249 0.928708 -0.114257
C72   C     C_R   0.720470 0.272928 0.912501 -0.102496
C73   C     C_R   0.629786 0.248754 0.932054 -0.116053
C74   C     C_R   0.569279 0.305966 0.967500 -0.086445
C75   C     C_R   0.307317 0.455099 0.900902 0.026146
C76   C     C_R   0.300477 0.389435 0.955959 -0.101212
C77   C     C_R   0.216448 0.368933 0.994991 -0.117542
C78   C     C_2   0.476103 0.493521 0.981507 -0.147822
C79   C     C_R   0.138366 0.413192 0.978958 -0.100592
C80   C     C_R   0.144185 0.477977 0.923781 -0.115015
C81   C     C_R   0.228157 0.498847 0.884787 -0.105569
C82   C     C_2   0.534400 0.448055 0.021371 -0.031044
Cl1   Cl    Cl    0.094202 0.358323 0.409991 -0.723640
Cu1   Cu    Cu3+1 0.410070 0.500090 0.500100 0.987450
Cu2   Cu    Cu3+1 0.589930 0.499910 0.499900 0.980810
H1    H     H_    0.624476 0.538408 0.742522 0.122624
H2    H     H_    0.368850 0.069356 0.576887 0.135173
H3    H     H_    0.371891 0.463791 0.258558 0.147881
H4    H     H_    0.415283 0.910085 0.394917 0.095924
H5    H     H_    0.472165 0.065643 0.623551 0.108147
H6    H     H_    0.907076 0.374015 0.543794 0.084860
H7    H     H_    0.920799 0.491292 0.625982 0.105484
H8    H     H_    0.070548 0.515087 0.630598 0.090525
H9    H     H_    0.071643 0.609805 0.580409 0.113699
H10   H     H_    0.928616 0.525664 0.378130 0.112291
H11   H     H_    0.665347 0.498598 0.252753 0.127780
H12   H     H_    0.675311 0.474269 0.113613 0.105928
H13   H     H_    0.926268 0.618281 0.433945 0.127063
H14   H     H_    0.081044 0.515109 0.377497 0.187850
H15   H     H_    0.920006 0.383522 0.441621 0.163049
H16   H     H_    0.382412 0.437764 0.119622 0.112879
H17   H     H_    0.339751 0.465142 0.746945 0.119411
H18   H     H_    0.425827 0.532652 0.012224 0.124058
H19   H     H_    0.617209 0.537451 0.882986 0.110969
H20   H     H_    0.355624 0.121500 0.295824 0.122443
H21   H     H_    0.420675 0.194173 0.181799 0.107615
H22   H     H_    0.587552 0.197924 0.150736 0.116069
H23   H     H_    0.525592 0.937734 0.372837 0.107139
H24   H     H_    0.689132 0.122921 0.235507 0.106196
H25   H     H_    0.626852 0.047938 0.349583 0.092629
H26   H     H_    0.290710 0.931559 0.448969 0.089588
H27   H     H_    0.132243 0.963155 0.468724 0.106253
H28   H     H_    0.080635 0.109993 0.471728 0.116236
H29   H     H_    0.194266 0.226464 0.453736 0.199619
H30   H     H_    0.354073 0.198565 0.424783 0.133555
H31   H     H_    0.986679 0.245650 0.521637 0.126482
H32   H     H_    0.019787 0.141988 0.620689 0.098420
H33   H     H_    0.128679 0.176100 0.719727 0.105985
H34   H     H_    0.625859 0.932453 0.559365 0.117631
H35   H     H_    0.204893 0.315949 0.719022 0.110649
H36   H     H_    0.174614 0.420319 0.623344 0.101970
H37   H     H_    0.800131 0.558686 0.689917 0.089464
H38   H     H_    0.719827 0.687638 0.728712 0.097642
H39   H     H_    0.765932 0.824307 0.667197 0.097313
H40   H     H_    0.894451 0.831732 0.566822 0.099271
H41   H     H_    0.976383 0.704645 0.527335 0.114957
H42   H     H_    0.030981 0.646499 0.303989 0.097613
H43   H     H_    0.096241 0.784389 0.263958 0.104974
H44   H     H_    0.206064 0.857200 0.344275 0.108367
H45   H     H_    0.646475 0.934819 0.456075 0.111462
H46   H     H_    0.249948 0.790943 0.466529 0.099136
H47   H     H_    0.186692 0.656681 0.508637 0.104496
H48   H     H_    0.715068 0.474423 0.976329 0.085388
H49   H     H_    0.821192 0.372868 0.913736 0.101352
H50   H     H_    0.767215 0.228586 0.885025 0.103859
H51   H     H_    0.606420 0.185601 0.919917 0.100346
H52   H     H_    0.499555 0.286102 0.983077 0.090082
H53   H     H_    0.359794 0.353571 0.968183 0.103288
H54   H     H_    0.211810 0.318431 0.037429 0.107926
H55   H     H_    0.073320 0.397125 0.009106 0.107818
H56   H     H_    0.644347 0.082062 0.462908 0.110687
H57   H     H_    0.083612 0.512083 0.911231 0.101128
H58   H     H_    0.231564 0.549458 0.842395 0.100308
H59   H     H_    0.617378 0.074337 0.561679 0.112842
H60   H     H_    0.367483 0.924221 0.561163 0.116761
H61   H     H_    0.461620 0.922293 0.621009 0.113029
N1    N     N_1   0.275150 0.498610 0.498410 -0.191762
N2    N     N_1   0.724850 0.501380 0.501620 -0.195426
O1    O     O_R   0.424030 0.620640 0.500090 -0.496732
O2    O     O_R   0.575910 0.620490 0.499920 -0.485907
O3    O     O_R   0.415250 0.500090 0.613690 -0.510745
O4    O     O_R   0.567140 0.499950 0.613520 -0.499749
O5    O     O_R   0.424090 0.379510 0.500080 -0.485918
O6    O     O_R   0.575970 0.379360 0.499910 -0.491174
O7    O     O_R   0.432860 0.500050 0.386480 -0.491360
O8    O     O_R   0.584750 0.499910 0.386310 -0.503337

loop_
_geom_bond_atom_site_label_1
_geom_bond_atom_site_label_2
_ccdc_geom_bond_type
C47   H29   S    
C66   C68   A    
C20   H8    S    
C8    C13   S    
C18   C21   S    
C73   C74   A    
C19   C20   S    
Cu2   N2    S    
C13   H60   S    
C43   C44   A    
C29   N2    T    
C53   H35   S    
C23   H16   S    
C53   C54   A    
C39   H22   S    
C35   C75   S    
C9    C42   S    
C62   C63   A    
C43   H26   S    
C5    H34   S    
C18   H6    S    
C56   H12   S    
C60   H40   S    
C19   C21   S    
C30   C31   A    
Cu1   O7    S    
C33   C78   S    
C49   C54   A    
C59   H39   S    
C23   C67   A    
C68   H47   S    
Cu2   O2    S    
C19   H7    S    
C51   H32   S    
C57   H37   S    
C25   H14   S    
C7    C14   T    
C20   C24   S    
C45   C56   A    
C11   H2    S    
C64   H43   S    
C70   H48   S    
C24   C27   S    
C1    O1    A    
C70   C71   A    
C69   C82   S    
C9    C10   S    
C72   C73   A    
Cu1   O1    S    
C2    C34   A    
C79   H55   S    
C59   C60   A    
C31   H1    S    
C36   C41   A    
C18   H15   S    
C13   H61   S    
C71   H49   S    
C12   H17   S    
C21   C26   S    
C44   C46   A    
C76   C77   A    
C77   C79   A    
C2    C45   A    
C38   C39   A    
C4    O4    A    
C74   H52   S    
C51   C52   A    
C69   C74   A    
Cu1   Cu2   S    
C3    C8    S    
C10   C14   S    
C39   C40   A    
C75   C81   A    
C72   H50   S    
C42   C48   A    
C25   C26   S    
C21   C29   S    
C63   C64   A    
C60   C61   A    
C12   C35   A    
Cu2   O8    S    
C38   H21   S    
C75   C76   A    
C37   H20   S    
C37   C38   A    
C3    C9    S    
C9    C36   S    
Cu1   O5    S    
C78   C82   D    
C47   C48   A    
C73   H51   S    
C23   C34   A    
C32   H19   S    
C50   C51   A    
C58   H38   S    
C1    O2    A    
C34   H3    S    
C24   C25   S    
C6    H56   S    
C61   H41   S    
C26   H13   S    
C48   H30   S    
C44   H27   S    
C40   C41   A    
C54   H36   S    
C65   C66   A    
C8    C15   S    
C80   H57   S    
C41   H25   S    
C22   C49   S    
C16   O6    A    
C22   C24   S    
C42   C43   A    
C6    H59   S    
C52   C53   A    
C66   H46   S    
Cu1   N1    S    
C19   C55   S    
C26   H10   S    
C15   C17   T    
C4    O3    A    
C20   H9    S    
C46   C47   A    
C36   C37   A    
C46   H28   S    
C12   C30   A    
C78   H18   S    
C18   C22   S    
C31   C32   A    
C7    C16   S    
C77   H54   S    
C80   C81   A    
C6    C10   S    
C5    C8    S    
C65   H44   S    
C40   H24   S    
C76   H53   S    
C3    H23   S    
C56   C67   A    
C25   C62   S    
C1    C17   S    
C62   C68   A    
C3    H4    S    
C64   C65   A    
C55   C57   A    
C58   C59   A    
Cu2   O4    S    
C71   C72   A    
C28   O7    A    
C32   C33   A    
C22   Cl1   S    
C11   C13   S    
C11   H5    S    
C57   C58   A    
C5    C6    S    
C55   C61   A    
C33   C35   A    
C50   H31   S    
Cu2   O6    S    
C69   C70   A    
C4    C30   S    
C10   C11   S    
C79   C80   A    
Cu1   O3    S    
C5    H45   S    
C81   H58   S    
C67   C82   S    
C27   N1    T    
C49   C50   A    
C16   O5    A    
C28   O8    A    
C2    C28   S    
C45   H11   S    
C63   H42   S    
C52   H33   S    
