data_mof_unit_59306.cif
_audit_creation_date              2013-03-05T16:18:24-0500
_audit_creation_method            fapswitch 2.2
_symmetry_space_group_name_H-M    P1
_symmetry_Int_Tables_number       1
_space_group_crystal_system       triclinic
_cell_length_a                    10.609124
_cell_length_b                    9.883345
_cell_length_c                    10.553416
_cell_angle_alpha                 88.09672
_cell_angle_beta                  90.089159
_cell_angle_gamma                 90.024918
_cell_volume                      1105.95211068

loop_
_atom_site_label
_atom_site_type_symbol
_atom_site_description
_atom_site_fract_x
_atom_site_fract_y
_atom_site_fract_z
_atom_type_partial_charge
O1    O     O_R   0.314910 0.616040 0.499970 -0.643277
O2    O     O_R   0.314910 0.383960 0.499970 -0.645396
C1    C     C_R   0.258249 0.499853 0.497742 0.815446
O3    O     O_R   0.500080 0.616020 0.313900 -0.620768
O4    O     O_R   0.500080 0.383980 0.313900 -0.620492
C2    C     C_R   0.500249 0.502092 0.257814 0.951770
Zn1   Zn    Zn3+2 0.500150 0.654960 0.499940 0.903969
Zn2   Zn    Zn3+2 0.500150 0.345040 0.499940 0.904631
O5    O     O_R   0.685320 0.616040 0.499930 -0.643535
O6    O     O_R   0.685320 0.383960 0.499930 -0.645769
O7    O     O_R   0.500150 0.616060 0.686000 -0.616068
O8    O     O_R   0.500150 0.383940 0.686000 -0.612398
C3    C     C_R   0.741968 0.499881 0.497719 0.829546
C4    C     C_R   0.500498 0.497862 0.741822 0.939649
C5    C     C_3   0.502475 0.629452 0.031027 0.120575
C6    C     C_3   0.396652 0.439635 0.044470 0.113693
C7    C     C_3   0.397043 0.564490 0.952159 -0.341736
H1    H     H_    0.312718 0.616313 0.911267 0.178110
C8    C     C_3   0.500273 0.494190 0.876161 -0.295573
C9    C     C_3   0.604177 0.559543 0.953557 0.594493
C10   C     C_3   0.498516 0.370224 0.966749 0.634849
C11   C     C_3   0.602572 0.435627 0.045178 -0.027351
C12   C     C_3   0.500650 0.505446 0.122725 -0.182572
C13   C     C_3   0.072647 0.539614 0.627790 -0.422250
C14   C     C_3   0.071617 0.355732 0.466616 -0.399991
H2    H     H_    0.107456 0.642150 0.650871 0.168955
H3    H     H_    0.106487 0.324513 0.372457 0.171220
H4    H     H_    0.107960 0.467203 0.702770 0.160305
H5    H     H_    0.105390 0.279628 0.539149 0.175668
C15   C     C_3   0.927977 0.539826 0.627715 -0.366522
C16   C     C_3   0.928391 0.355693 0.466787 -0.403313
H6    H     H_    0.892602 0.467701 0.702819 0.181264
H7    H     H_    0.894961 0.279762 0.539570 0.175968
H8    H     H_    0.893535 0.642527 0.650523 0.187000
H9    H     H_    0.893024 0.324181 0.372791 0.171830
H10   H     H_    0.106348 0.705527 0.411570 0.174715
H11   H     H_    0.107509 0.574329 0.298099 0.156567
H12   H     H_    0.893428 0.705330 0.410955 0.174770
H13   H     H_    0.892349 0.573640 0.297909 0.163332
C17   C     C_3   0.072230 0.601452 0.393077 -0.394498
C18   C     C_3   0.121590 0.499163 0.496203 0.195974
C19   C     C_3   0.878607 0.499190 0.496179 0.171570
C20   C     C_3   0.927693 0.601265 0.392885 -0.397598
C21   C     C_3   0.382280 0.078424 0.556769 0.113421
C22   C     C_3   0.382197 0.917502 0.556961 0.158914
H14   H     H_    0.301917 0.110672 0.494344 0.108584
H15   H     H_    0.301722 0.889964 0.494525 0.107511
H16   H     H_    0.416340 0.124591 0.311928 0.177306
H17   H     H_    0.415335 0.888569 0.313401 0.171620
C23   C     C_3   0.499526 0.085309 0.365798 -0.367690
C24   C     C_3   0.499237 0.923746 0.366040 -0.398375
C25   C     C_3   0.617354 0.078629 0.556783 0.114338
C26   C     C_3   0.617666 0.917782 0.556462 0.102253
N1    N     N_3   0.499750 0.138610 0.497240 -0.059667
N2    N     N_3   0.499750 0.861390 0.497240 -0.056871
H18   H     H_    0.697583 0.111271 0.494582 0.112086
H19   H     H_    0.697726 0.890610 0.493616 0.109237
H20   H     H_    0.582801 0.124213 0.312114 0.177600
H21   H     H_    0.582495 0.888340 0.312882 0.176116
C27   C     C_3   0.341213 0.137368 0.684310 -0.758398
H22   H     H_    0.400525 0.103638 0.764677 0.282033
H23   H     H_    0.331431 0.247104 0.681470 0.283983
H24   H     H_    0.243450 0.104954 0.706610 0.172374
C28   C     C_3   0.339806 0.849486 0.684467 -0.820447
H25   H     H_    0.402229 0.869850 0.764782 0.237764
H26   H     H_    0.244727 0.886241 0.709701 0.185783
H27   H     H_    0.322296 0.741055 0.679343 0.273956
C29   C     C_3   0.658392 0.137452 0.684593 -0.762027
H28   H     H_    0.668687 0.247157 0.681602 0.285406
H29   H     H_    0.598812 0.104142 0.764785 0.279986
H30   H     H_    0.756023 0.104867 0.707416 0.173111
C30   C     C_3   0.660895 0.849728 0.683581 -0.711075
H31   H     H_    0.598717 0.869740 0.763922 0.240048
H32   H     H_    0.678158 0.741404 0.678003 0.299740
H33   H     H_    0.756119 0.886508 0.708725 0.186987
C31   C     C_3   0.506079 0.778153 0.061443 -0.788881
H34   H     H_    0.507621 0.840657 0.972380 0.238114
H35   H     H_    0.420551 0.803879 0.115526 0.226420
H36   H     H_    0.592545 0.799189 0.116331 0.239406
C32   C     C_3   0.278359 0.370681 0.096018 -0.852234
H37   H     H_    0.220605 0.334563 0.016150 0.244656
H38   H     H_    0.304527 0.283150 0.159077 0.244244
H39   H     H_    0.222629 0.443630 0.150393 0.215887
F1    F     F_    0.711684 0.620068 0.904036 -0.696315
F2    F     F_    0.496195 0.236168 0.934612 -0.699924
C33   C     C_3   0.719547 0.363718 0.096595 -0.818005
H40   H     H_    0.691692 0.276426 0.159059 0.239753
H41   H     H_    0.776405 0.326777 0.016633 0.252220
H42   H     H_    0.776874 0.434994 0.151576 0.222292

loop_
_geom_bond_atom_site_label_1
_geom_bond_atom_site_label_2
_geom_bond_distance
_ccdc_geom_bond_type
C14   C16   1.519509 S    
C6    C10   1.533638 S    
C16   C19   1.554647 S    
C8    C9    1.526799 S    
C31   H36   1.107445 S    
Zn1   N2    2.039479 S    
C21   C22   1.590385 S    
Zn1   O7    1.988283 S    
C23   N1    1.500086 S    
C27   H24   1.108697 S    
C8    C10   1.528933 S    
C13   H2    1.112869 S    
H11   C17   1.111635 S    
C30   H33   1.108334 S    
O4    C2    1.291177 A    
O7    C4    1.290743 A    
C33   H41   1.109739 S    
C27   H23   1.088977 S    
O5    C3    1.296973 A    
C29   H28   1.089107 S    
C17   C20   1.533403 S    
C21   H14   1.116706 S    
C6    C7    1.546598 S    
H17   C24   1.110336 S    
C16   H7    1.114131 S    
C25   C29   1.548204 S    
C22   H15   1.116751 S    
C5    C31   1.515150 S    
C10   C11   1.534169 S    
C13   C18   1.548297 S    
C32   H39   1.107958 S    
C3    C19   1.449759 S    
C25   N1    1.508790 S    
C7    H1    1.110603 S    
C26   N2    1.512055 S    
C14   H5    1.114096 S    
C5    C9    1.533268 S    
C10   F2    1.378713 S    
C15   H8    1.112904 S    
C23   H20   1.111819 S    
C28   H27   1.090659 S    
H10   C17   1.113518 S    
C31   H34   1.107604 S    
C30   H32   1.089767 S    
C14   C18   1.554454 S    
C26   H19   1.116790 S    
C33   H40   1.108521 S    
C32   H37   1.109733 S    
H13   C20   1.112070 S    
O3    Zn1   2.013225 S    
O6    C3    1.293058 A    
C27   H22   1.098264 S    
O1    C1    1.296800 A    
C28   H26   1.108120 S    
Zn2   O8    2.013346 S    
C23   C24   1.596700 S    
H16   C23   1.112140 S    
C32   H38   1.108934 S    
C17   C18   1.551241 S    
C9    C11   1.535096 S    
C6    C12   1.534493 S    
C9    F1    1.382865 S    
C16   H9    1.114035 S    
O3    C2    1.289367 A    
C24   H21   1.110055 S    
C19   C20   1.550988 S    
Zn2   N1    2.041367 S    
C25   C26   1.589824 S    
Zn1   O5    2.001960 S    
C1    C18   1.449905 S    
O1    Zn1   2.002360 S    
C4    C8    1.416995 S    
O2    Zn2   2.002692 S    
C13   H4    1.113721 S    
C31   H35   1.106887 S    
C30   H31   1.098246 S    
C33   H42   1.108380 S    
O4    Zn2   1.988138 S    
C5    C7    1.545335 S    
C14   H3    1.114048 S    
C22   C28   1.551250 S    
C28   H25   1.098620 S    
O2    C1    1.293305 A    
O8    C4    1.287961 A    
H12   C20   1.113515 S    
C15   H6    1.113721 S    
C21   C27   1.547586 S    
C29   H30   1.108562 S    
C2    C12   1.424946 S    
C5    C12   1.536300 S    
C7    C8    1.538132 S    
C24   N2    1.496754 S    
C11   C33   1.520750 S    
C13   C15   1.534824 S    
C21   N1    1.509513 S    
C22   N2    1.512076 S    
Zn2   O6    2.001631 S    
C29   H29   1.098688 S    
C11   C12   1.534938 S    
C15   C19   1.548292 S    
C6    C32   1.520562 S    
C26   C30   1.549474 S    
C25   H18   1.116646 S    
