data_mof_unit_28162.cif
_audit_creation_date              2012-12-10T17:32:24-0500
_audit_creation_method            fapswitch 2.2
_symmetry_space_group_name_H-M    P1
_symmetry_Int_Tables_number       1
_space_group_crystal_system       triclinic
_cell_length_a                    15.558223
_cell_length_b                    15.384184
_cell_length_c                    15.574973
_cell_angle_alpha                 92.211902
_cell_angle_beta                  71.195232
_cell_angle_gamma                 111.819213
_cell_volume                      3262.06879202

loop_
_atom_site_label
_atom_site_type_symbol
_atom_type_description
_atom_site_fract_x
_atom_site_fract_y
_atom_site_fract_z
_atom_type_partial_charge
C1    C     C_R   0.461433 0.257290 0.463762 0.572905
C2    C     C_R   0.502997 0.521227 0.122528 0.182448
C3    C     C_R   0.674865 0.604837 0.106746 0.320050
C4    C     C_R   0.534869 0.741424 0.536409 0.534682
C5    C     C_R   0.417806 0.437839 0.841885 -0.030807
C6    C     C_R   0.307532 0.002791 0.480184 0.300863
C7    C     C_R   0.437780 0.156989 0.453695 -0.014750
C8    C     C_R   0.644662 0.898621 0.556206 -0.113239
C9    C     C_R   0.672110 0.995707 0.554726 0.241713
C10   C     C_R   0.613318 0.036900 0.535973 -0.060784
C11   C     C_R   0.523788 0.981644 0.522298 -0.050505
C12   C     C_R   0.287466 0.430413 0.981049 0.357381
C13   C     C_R   0.488063 0.882670 0.541854 -0.063964
C14   C     C_R   0.466542 0.021456 0.494147 -0.085042
C15   C     C_R   0.367430 0.963581 0.502856 -0.096874
C16   C     C_R   0.756487 0.550612 0.463177 0.564122
C17   C     C_R   0.328638 0.868961 0.537569 0.407757
C18   C     C_R   0.387159 0.828736 0.557596 0.292075
C19   C     C_R   0.503791 0.116615 0.457100 0.184576
C20   C     C_R   0.340679 0.099796 0.463393 0.321624
C21   C     C_R   0.553746 0.841431 0.548482 -0.024162
C22   C     C_R   0.019906 0.607916 0.330711 0.430029
C23   C     C_R   0.356120 0.470162 0.025008 -0.039119
C24   C     C_R   0.859829 0.568558 0.444479 -0.017069
C25   C     C_R   0.073839 0.389853 0.645100 -0.118910
C26   C     C_R   0.979558 0.389753 0.676386 -0.146806
C27   C     C_R   0.947831 0.432580 0.622367 -0.086972
C28   C     C_R   0.242802 0.448206 0.535363 0.483486
C29   C     C_R   0.009004 0.473477 0.532951 0.049292
C30   C     C_R   0.103391 0.468195 0.499337 -0.018232
C31   C     C_R   0.980118 0.519919 0.475972 -0.081912
C32   C     C_R   0.046066 0.559569 0.386704 -0.006592
C33   C     C_R   0.135046 0.546694 0.353287 0.422606
C34   C     C_R   0.456524 0.485567 0.981539 -0.033314
C35   C     C_R   0.161382 0.499337 0.407737 -0.078921
C36   C     C_R   0.886830 0.526149 0.503498 -0.193030
C37   C     C_R   0.927040 0.611263 0.359234 0.387627
C38   C     C_R   0.137698 0.431288 0.557965 0.034388
C39   C     C_R   0.553131 0.551498 0.258761 0.595531
C40   C     C_R   0.449196 0.449062 0.742037 0.485499
C41   C     C_R   0.702793 0.592963 0.014111 0.283508
C42   C     C_R   0.576199 0.566364 0.160996 0.015488
C43   C     C_R   0.317826 0.413181 0.890300 -0.100685
C44   C     C_3   0.209605 0.902809 0.406510 0.072348
C45   C     C_R   0.487142 0.470028 0.888022 -0.056941
C46   C     C_3   0.205964 0.964619 0.334014 -0.299163
C47   C     C_3   0.188814 0.910224 0.253119 -0.439386
C48   C     C_3   0.643394 0.179728 0.333525 0.028581
C49   C     C_3   0.679337 0.099789 0.302509 -0.271782
C50   C     C_3   0.731020 0.111342 0.199711 -0.467059
C51   C     C_3   0.755716 0.061271 0.652986 0.016775
C52   C     C_3   0.745297 0.154456 0.680772 -0.268507
C53   C     C_3   0.749055 0.172044 0.776821 -0.480855
C54   C     C_3   0.320858 0.731696 0.688936 0.020340
C55   C     C_3   0.279113 0.628652 0.726456 -0.256975
C56   C     C_R   0.528275 0.520246 0.026265 -0.081587
C57   C     C_3   0.257727 0.619196 0.829133 -0.464350
C58   C     C_3   0.836820 0.553342 0.974678 0.076006
C59   C     C_3   0.936894 0.573892 0.901561 -0.228194
C60   C     C_3   0.976424 0.498040 0.907770 -0.483187
C61   C     C_3   0.395768 0.375080 0.189572 -0.008769
C62   C     C_3   0.297109 0.322015 0.262611 -0.242019
C63   C     C_3   0.275775 0.217022 0.270779 -0.448145
C64   C     C_R   0.630128 0.550530 0.973072 -0.041783
C65   C     C_R   0.657414 0.533632 0.880881 0.390532
C66   C     C_R   0.586801 0.489322 0.841229 -0.071572
F1    F     F_    0.745117 0.646796 0.145554 -0.575683
F2    F     F_    0.232325 0.814177 0.554876 -0.583780
F3    F     F_    0.900660 0.652349 0.301667 -0.557550
F4    F     F_    0.196507 0.577581 0.266502 -0.549455
F5    F     F_    0.082282 0.648615 0.246496 -0.531831
F6    F     F_    0.752701 0.557361 0.828065 -0.623672
F7    F     F_    0.191502 0.414390 0.025086 -0.611443
F8    F     F_    0.276609 0.138775 0.459273 -0.629402
H1    H     H_    0.695500 0.868293 0.561929 0.162286
H2    H     H_    0.612010 0.471988 0.772017 0.154381
H3    H     H_    0.141818 0.837931 0.425255 0.197347
H4    H     H_    0.272254 0.879402 0.377804 0.134718
H5    H     H_    0.145783 0.990495 0.364300 0.214548
H6    H     H_    0.276560 0.026130 0.309345 0.159593
H7    H     H_    0.248515 0.884116 0.221435 0.183785
H8    H     H_    0.187896 0.957227 0.201361 0.161230
H9    H     H_    0.117200 0.849631 0.275416 0.221321
H10   H     H_    0.707397 0.247670 0.312115 0.176576
H11   H     H_    0.592015 0.181957 0.298240 0.117109
H12   H     H_    0.637726 0.112037 0.536893 0.193593
H13   H     H_    0.731184 0.099199 0.337441 0.198718
H14   H     H_    0.616003 0.031240 0.320992 0.170806
H15   H     H_    0.680000 0.110708 0.163365 0.144917
H16   H     H_    0.755866 0.052351 0.179393 0.177067
H17   H     H_    0.796106 0.178509 0.179435 0.166915
H18   H     H_    0.825116 0.062361 0.659577 0.177411
H19   H     H_    0.695130 0.001398 0.701027 0.121220
H20   H     H_    0.805629 0.213257 0.632154 0.189994
H21   H     H_    0.674218 0.153117 0.678462 0.152536
H22   H     H_    0.688299 0.114897 0.826851 0.155435
H23   H     H_    0.830999 0.493291 0.567605 0.136787
H24   H     H_    0.741178 0.239897 0.794779 0.146409
H25   H     H_    0.820358 0.175677 0.780677 0.156062
H26   H     H_    0.265110 0.762945 0.720487 0.167482
H27   H     H_    0.387889 0.769791 0.707544 0.110904
H28   H     H_    0.210187 0.590376 0.711251 0.179202
H29   H     H_    0.332647 0.595784 0.692543 0.163105
H30   H     H_    0.326652 0.653029 0.845341 0.168532
H31   H     H_    0.224903 0.543622 0.854399 0.175739
H32   H     H_    0.205109 0.652412 0.864601 0.170178
H33   H     H_    0.786122 0.481900 0.967248 0.115865
H34   H     H_    0.098384 0.361303 0.690960 0.137871
H35   H     H_    0.845180 0.553478 0.043023 0.191798
H36   H     H_    0.929965 0.576991 0.833020 0.233785
H37   H     H_    0.989916 0.643200 0.909614 0.192608
H38   H     H_    0.990043 0.497506 0.973472 0.196110
H39   H     H_    0.046448 0.512433 0.851087 0.153235
H40   H     H_    0.923408 0.427743 0.902148 0.143836
H41   H     H_    0.454658 0.366392 0.210157 0.125195
H42   H     H_    0.395627 0.343845 0.123905 0.139051
H43   H     H_    0.298077 0.350137 0.329297 0.171208
H44   H     H_    0.237675 0.332735 0.245089 0.198432
H45   H     H_    0.875145 0.432539 0.653083 0.125914
H46   H     H_    0.269880 0.186578 0.206095 0.139628
H47   H     H_    0.205273 0.180734 0.326269 0.203070
H48   H     H_    0.335307 0.204982 0.286735 0.174738
H49   H     H_    0.931702 0.359148 0.744537 0.115761
H50   H     H_    0.227837 0.486457 0.376097 0.168850
H51   H     H_    0.263958 0.388625 0.855753 0.148756
H52   H     H_    0.328851 0.491596 0.091589 0.238858
O1    O     O_3   0.500000 0.500000 0.500000 -0.466828
O2    O     O_R   0.588830 0.499590 0.285390 -0.535252
O3    O     O_R   0.395900 0.395880 0.699370 -0.549851
O4    O     O_R   0.493280 0.582590 0.315890 -0.502613
O5    O     O_R   0.521980 0.521940 0.699340 -0.539370
O6    O     O_3   0.211424 0.949373 0.486589 -0.453111
O7    O     O_3   0.602832 0.172473 0.429700 -0.579185
O8    O     O_3   0.762671 0.051734 0.560495 -0.559073
O9    O     O_3   0.342896 0.735709 0.593530 -0.506389
O10   O     O_3   0.801760 0.623541 0.963813 -0.454778
O11   O     O_3   0.409334 0.470856 0.181336 -0.561608
O12   O     O_R   0.708210 0.582550 0.530770 -0.529516
O13   O     O_R   0.270260 0.395900 0.573760 -0.539989
O14   O     O_R   0.537060 0.322180 0.411040 -0.544925
O15   O     O_R   0.484470 0.699370 0.484430 -0.480390
O16   O     O_R   0.404710 0.279110 0.530840 -0.497128
O17   O     O_R   0.573760 0.699350 0.573690 -0.554811
O18   O     O_R   0.714470 0.499570 0.411000 -0.499255
O19   O     O_R   0.307050 0.521980 0.484470 -0.521328
Zn1   Zn    Zn3+2 0.574690 0.574670 0.574650 0.958913
Zn2   Zn    Zn3+2 0.583640 0.456100 0.403530 0.989122
Zn3   Zn    Zn3+2 0.447120 0.574690 0.447120 1.007583
Zn4   Zn    Zn3+2 0.394550 0.394550 0.574700 0.961846

loop_
_geom_bond_atom_site_label_1
_geom_bond_atom_site_label_2
_ccdc_geom_bond_type
O17   Zn1   S    
C57   H31   S    
C40   O3    A    
C3    C42   A    
C34   C56   A    
C63   H46   S    
C37   F3    S    
C27   C29   A    
C58   H35   S    
C49   H13   S    
C54   H27   S    
C60   H40   S    
C63   H48   S    
C4    O17   A    
C53   H25   S    
C12   C23   A    
C26   C27   A    
C29   C30   A    
C22   C32   A    
C13   C18   A    
C52   H21   S    
O16   Zn4   S    
C35   H50   S    
C16   O18   A    
O12   Zn1   S    
C12   C43   A    
C31   C36   A    
C46   H5    S    
C25   C38   A    
C51   O8    S    
C55   H29   S    
C59   H36   S    
C30   C38   A    
O5    Zn1   S    
C58   H33   S    
C47   H8    S    
C62   H43   S    
C1    O16   A    
O15   Zn3   S    
C33   C35   A    
C6    C15   A    
C46   C47   S    
C50   H16   S    
C3    C41   A    
C8    C9    A    
C61   H41   S    
C59   H37   S    
C56   C64   A    
C52   H20   S    
C36   H23   S    
C47   H9    S    
C9    C10   A    
O1    Zn3   S    
C9    O8    S    
C57   H32   S    
C5    C43   A    
C59   C60   S    
C16   C24   S    
C12   F7    S    
C53   H22   S    
C49   H14   S    
C54   H26   S    
C60   H39   S    
C28   O13   A    
O18   Zn2   S    
O14   Zn2   S    
C63   H47   S    
C44   C46   S    
C24   C37   A    
C39   C42   S    
C16   O12   A    
O4    Zn3   S    
C51   C52   S    
C48   O7    S    
C6    O6    S    
C4    O15   A    
C58   O10   S    
C25   C26   A    
C22   C37   A    
C5    C45   A    
O13   Zn4   S    
C8    H1    S    
C48   H10   S    
O3    Zn4   S    
C62   C63   S    
C60   H38   S    
C51   H18   S    
C50   H15   S    
C31   C32   A    
C55   H28   S    
C28   C38   S    
C23   C34   A    
C66   H2    S    
C61   H42   S    
C17   C18   A    
C28   O19   A    
C13   C21   A    
C18   O9    S    
C34   C45   A    
C24   C36   A    
C7    C20   A    
C1    O14   A    
C33   F4    S    
C51   H19   S    
C23   H52   S    
C30   C35   A    
C48   C49   S    
C40   O5    A    
C65   C66   A    
C7    C19   A    
C55   C57   S    
C19   O7    S    
C26   H49   S    
C22   F5    S    
O19   Zn3   S    
C52   C53   S    
C15   C17   A    
C57   H30   S    
C54   C55   S    
C10   H12   S    
C17   F2    S    
C39   O2    A    
C1    C7    S    
C2    O11   S    
C14   C19   A    
C48   H11   S    
C3    F1    S    
C8    C21   A    
O2    Zn2   S    
C20   F8    S    
C39   O4    A    
C27   H45   S    
C53   H24   S    
C44   O6    S    
C65   F6    S    
C6    C20   A    
C64   C65   A    
C44   H4    S    
C58   C59   S    
C29   C31   A    
C2    C56   A    
C32   C33   A    
C46   H6    S    
C4    C21   S    
C11   C13   A    
C61   O11   S    
C44   H3    S    
C2    C42   A    
C54   O9    S    
C11   C14   A    
C43   H51   S    
C47   H7    S    
C61   C62   S    
C62   H44   S    
C10   C11   A    
O1    Zn1   S    
C50   H17   S    
C49   C50   S    
C5    C40   S    
C45   C66   A    
C14   C15   A    
C41   C64   A    
C41   O10   S    
O1    Zn4   S    
C25   H34   S    
O1    Zn2   S    
