data_mof_unit_49763.cif
_audit_creation_date              2012-10-26T21:21:02-0400
_audit_creation_method            fapswitch 2.2
_symmetry_space_group_name_H-M    P1
_symmetry_Int_Tables_number       1
_space_group_crystal_system       triclinic
_cell_length_a                    10.775429
_cell_length_b                    10.93228
_cell_length_c                    9.727986
_cell_angle_alpha                 90.230145
_cell_angle_beta                  90.059208
_cell_angle_gamma                 90.142038
_cell_volume                      1145.94342865

loop_
_atom_site_label
_atom_site_type_symbol
_atom_type_description
_atom_site_fract_x
_atom_site_fract_y
_atom_site_fract_z
_atom_type_partial_charge
C1    C     C_R   0.501645 0.265487 0.499892 0.534025
C2    C     C_2   0.508409 0.133557 0.502090 -0.125291
C3    C     C_2   0.430098 0.429080 0.924398 0.036117
C4    C     C_R   0.262706 0.496045 0.499985 0.534938
C5    C     C_2   0.416675 0.443589 0.077834 -0.028139
C6    C     C_R   0.498599 0.734559 0.500296 0.554655
C7    C     C_R   0.737293 0.496305 0.500003 0.533475
C8    C     C_R   0.128915 0.298942 0.639290 -0.134601
C9    C     C_R   0.063957 0.206415 0.706462 -0.106131
C10   C     C_R   0.934089 0.205388 0.705983 0.116774
C11   C     C_R   0.869971 0.298581 0.638455 -0.064809
C12   C     C_R   0.065335 0.394326 0.571639 0.016966
C13   C     C_R   0.934163 0.394281 0.571475 -0.002982
C14   C     C_R   0.128896 0.487745 0.499783 0.009045
C15   C     C_R   0.064186 0.575386 0.424690 -0.149802
C16   C     C_R   0.936170 0.575524 0.424806 -0.147044
C17   C     C_R   0.871064 0.487920 0.499863 0.003921
C18   C     C_2   0.502317 0.932651 0.387471 -0.162016
C19   C     C_2   0.492586 0.866633 0.502805 -0.120930
C20   C     C_2   0.496672 0.066599 0.387212 -0.157473
Cu1   Cu    Cu3+1 0.500020 0.500020 0.638630 0.978012
Cu2   Cu    Cu3+1 0.499980 0.499980 0.361370 0.930283
H1    H     H_    0.113210 0.645806 0.368219 0.126612
H2    H     H_    0.477163 0.907992 0.602518 0.105236
H3    H     H_    0.484218 0.110793 0.288337 0.153353
H4    H     H_    0.379170 0.354733 0.876107 0.103979
H5    H     H_    0.619621 0.619429 0.926783 0.218552
H6    H     H_    0.463440 0.651070 0.964429 0.229432
H7    H     H_    0.926099 0.048720 0.820452 0.227843
H8    H     H_    0.818097 0.060809 0.697000 0.224710
H9    H     H_    0.525817 0.093017 0.601498 0.104115
H10   H     H_    0.336645 0.402459 0.127060 0.140495
H11   H     H_    0.583452 0.515605 0.109297 0.225233
H12   H     H_    0.229031 0.293207 0.638940 0.132118
H13   H     H_    0.115288 0.134528 0.757292 0.104733
H14   H     H_    0.769780 0.293297 0.637014 0.147620
H15   H     H_    0.887469 0.646051 0.368426 0.125216
H16   H     H_    0.512711 0.887607 0.288416 0.152582
N1    N     N_2   0.498640 0.498660 0.846910 -0.144031
N2    N     N_2   0.498610 0.498630 0.153040 -0.359465
N3    N     N_3   0.527487 0.616618 0.893421 -0.486677
N4    N     N_3   0.865490 0.110115 0.773063 -0.628213
O1    O     O_R   0.500020 0.321960 0.617040 -0.519388
O2    O     O_R   0.499980 0.321920 0.382900 -0.490658
O3    O     O_R   0.319670 0.500020 0.617100 -0.498700
O4    O     O_R   0.319630 0.499980 0.382950 -0.500387
O5    O     O_R   0.500020 0.678080 0.617100 -0.458149
O6    O     O_R   0.499980 0.678040 0.382960 -0.495800
O7    O     O_R   0.680370 0.500020 0.617050 -0.487749
O8    O     O_R   0.680330 0.499980 0.382900 -0.501603

loop_
_geom_bond_atom_site_label_1
_geom_bond_atom_site_label_2
_ccdc_geom_bond_type
Cu2   O6    S    
H7    N4    S    
C10   N4    S    
C9    C10   A    
H5    N3    S    
C1    O2    A    
C18   C20   S    
Cu1   N1    S    
C13   C17   A    
C16   H15   S    
Cu2   O8    S    
C5    H10   S    
Cu2   N2    S    
C15   H1    S    
C19   H2    S    
C18   H16   S    
C3    N1    D    
N1    N3    S    
C4    O4    A    
Cu1   Cu2   S    
C6    C19   S    
C11   C13   A    
C6    O6    A    
Cu1   O7    S    
C11   H14   S    
Cu2   O4    S    
C12   C14   A    
C1    C2    S    
Cu1   O3    S    
C4    O3    A    
C2    H9    S    
C4    C14   S    
H11   N2    S    
C10   C11   A    
C2    C20   D    
C15   C16   A    
C6    O5    A    
H6    N3    S    
C12   C13   A    
C7    O7    A    
C18   C19   D    
C20   H3    S    
C5    N2    D    
C9    H13   S    
C14   C15   A    
C8    C9    A    
C8    H12   S    
Cu1   O5    S    
Cu1   O1    S    
H8    N4    S    
C1    O1    A    
C3    H4    S    
Cu2   O2    S    
C8    C12   A    
C7    O8    A    
C16   C17   A    
C3    C5    S    
C7    C17   S    
