data_mof_unit_61241.cif
_audit_creation_date              2012-12-10T16:43:35-0500
_audit_creation_method            fapswitch 2.2
_symmetry_space_group_name_H-M    P1
_symmetry_Int_Tables_number       1
_space_group_crystal_system       triclinic
_cell_length_a                    18.455747
_cell_length_b                    18.455185
_cell_length_c                    18.450392
_cell_angle_alpha                 119.72832
_cell_angle_beta                  90.409076
_cell_angle_gamma                 119.797615
_cell_volume                      4459.52981016

loop_
_atom_site_label
_atom_site_type_symbol
_atom_type_description
_atom_site_fract_x
_atom_site_fract_y
_atom_site_fract_z
_atom_type_partial_charge
C1    C     C_R   0.361395 0.999818 0.138464 0.502281
C2    C     C_2   0.809179 0.004601 0.696976 -0.094267
C3    C     C_2   0.724109 0.943161 0.780390 -0.156209
C4    C     C_R   0.638232 0.999788 0.861166 0.513788
C5    C     C_2   0.691159 0.998880 0.803411 -0.092577
C6    C     C_2   0.281010 0.443877 0.723525 -0.156706
C7    C     C_2   0.192254 0.387729 0.691146 -0.092079
C8    C     C_2   0.337166 0.556217 0.777286 -0.156973
C9    C     C_2   0.304511 0.612263 0.808880 -0.091863
C10   C     C_2   0.280969 0.058396 0.337141 -0.159177
C11   C     C_2   0.192182 0.001386 0.304517 -0.094928
C12   C     C_R   0.113405 0.028799 0.808384 -0.156336
C13   C     C_2   0.337108 0.060659 0.280930 -0.160183
C14   C     C_2   0.304462 0.996357 0.192225 -0.104619
C15   C     C_2   0.780107 0.942306 0.218119 -0.155463
C16   C     C_R   0.638795 0.277053 0.138571 0.511095
C17   C     C_2   0.799592 0.995021 0.306110 -0.089401
C18   C     C_2   0.720057 0.938169 0.162168 -0.155927
C19   C     C_2   0.700404 0.006508 0.195411 -0.088868
C20   C     C_2   0.778786 0.556233 0.219064 -0.156184
C21   C     C_2   0.803336 0.612252 0.307796 -0.092503
C22   C     C_2   0.720215 0.443896 0.162844 -0.156460
C23   C     C_R   0.180195 0.016333 0.781677 0.013864
C24   C     C_2   0.696553 0.387730 0.195435 -0.093187
C25   C     C_R   0.138418 0.277047 0.638256 0.512514
C26   C     C_R   0.861127 0.722939 0.361611 0.514381
C27   C     C_R   0.861845 0.000458 0.638989 0.509053
C28   C     C_R   0.361399 0.722953 0.861789 0.514685
C29   C     C_R   0.138404 0.000289 0.361418 0.513826
C30   C     C_R   0.859598 0.999271 0.360434 0.515718
C31   C     C_R   0.139987 0.001779 0.641906 0.495085
C32   C     C_R   0.640363 0.000753 0.139619 0.516559
C33   C     C_R   0.359869 0.001684 0.861706 0.490896
C34   C     C_R   0.234761 0.016524 0.836375 -0.012392
C35   C     C_R   0.220941 0.029697 0.916219 -0.099694
C36   C     C_R   0.153398 0.041487 0.941784 0.295704
C37   C     C_R   0.099639 0.039214 0.886122 -0.080044
C38   C     C_3   0.207048 0.095311 0.087042 -0.119084
C39   C     C_R   0.303697 0.006989 0.811048 0.030224
C40   C     C_R   0.320515 0.003263 0.735982 -0.142482
C41   C     C_R   0.267318 0.003340 0.682756 -0.145054
C42   C     C_R   0.195994 0.007015 0.703299 0.036802
C43   C     C_2   0.777861 0.940668 0.721814 -0.159205
H1    H     H_    0.701011 0.044695 0.779268 0.107248
H2    H     H_    0.807560 0.899280 0.185377 0.161330
H3    H     H_    0.263028 0.031985 0.959154 0.122409
H4    H     H_    0.770013 0.034448 0.340458 0.107296
H5    H     H_    0.692732 0.878076 0.091655 0.159107
H6    H     H_    0.729875 0.070356 0.264453 0.107661
H7    H     H_    0.801408 0.593613 0.185350 0.158042
H8    H     H_    0.780439 0.578294 0.343853 0.107842
H9    H     H_    0.696858 0.406651 0.091804 0.158342
H10   H     H_    0.720170 0.421579 0.265402 0.108337
H11   H     H_    0.047221 0.047575 0.904242 0.138077
H12   H     H_    0.314778 0.406614 0.709543 0.157251
H13   H     H_    0.071883 0.032544 0.770755 0.140264
H14   H     H_    0.280566 0.997881 0.623745 0.129392
H15   H     H_    0.792699 0.884471 0.699422 0.157512
H16   H     H_    0.798163 0.063534 0.719810 0.108946
H17   H     H_    0.710563 0.895975 0.804256 0.157611
H18   H     H_    0.374007 0.997729 0.717222 0.130356
H19   H     H_    0.266997 0.164418 0.097381 0.105924
H20   H     H_    0.220245 0.038642 0.075767 0.128096
H21   H     H_    0.191058 0.120226 0.149202 0.149157
H22   H     H_    0.156160 0.421594 0.701458 0.109183
H23   H     H_    0.408237 0.593574 0.791944 0.156365
H24   H     H_    0.234520 0.578320 0.797904 0.109316
H25   H     H_    0.314781 0.106549 0.408216 0.157075
H26   H     H_    0.155986 0.954506 0.234509 0.108870
H27   H     H_    0.408197 0.116881 0.314652 0.158765
H28   H     H_    0.234433 0.937723 0.156095 0.109188
O1    O     O_3   0.500000 0.000000 0.000000 -0.442591
O2    O     O_R   0.054120 0.939900 0.325040 -0.539596
O3    O     O_R   0.884120 0.060070 0.444330 -0.539693
O4    O     O_R   0.325020 0.939940 0.054210 -0.547743
O5    O     O_R   0.175860 0.060090 0.615830 -0.543208
O6    O     O_R   0.884120 0.939900 0.324160 -0.541953
O7    O     O_R   0.055710 0.939940 0.615850 -0.545781
O8    O     O_R   0.885720 0.939940 0.614980 -0.545959
O9    O     O_R   0.174930 0.060060 0.445830 -0.541332
O10   O     O_R   0.054120 0.229160 0.614300 -0.539305
O11   O     O_R   0.885050 0.770830 0.325070 -0.540347
O12   O     O_R   0.614240 0.229150 0.054160 -0.539907
O13   O     O_R   0.614240 0.060060 0.885070 -0.540271
O14   O     O_R   0.614900 0.229170 0.174980 -0.542035
O15   O     O_R   0.445840 0.770840 0.885740 -0.541923
O16   O     O_R   0.615830 0.060100 0.175880 -0.539837
O17   O     O_R   0.324090 0.939910 0.884220 -0.546451
O18   O     O_R   0.615830 0.939930 0.055710 -0.542489
O19   O     O_R   0.444240 0.060060 0.884190 -0.542682
O20   O     O_3   0.133198 0.049974 0.017146 -0.560875
O21   O     O_R   0.325020 0.770840 0.885120 -0.535117
O22   O     O_R   0.445840 0.060100 0.175010 -0.538833
O23   O     O_R   0.614900 0.939900 0.885710 -0.540812
O24   O     O_3   0.999960 0.000000 0.500040 -0.443271
O25   O     O_R   0.174930 0.229160 0.614920 -0.541118
O26   O     O_R   0.885720 0.770850 0.445880 -0.537767
O27   O     O_R   0.885050 0.060100 0.614330 -0.539394
Zn1   Zn    Zn3+2 0.542440 0.085830 0.956610 0.936789
Zn2   Zn    Zn3+2 0.543390 0.085850 0.129220 0.938311
Zn3   Zn    Zn3+2 0.543390 0.914160 0.957530 0.938351
Zn4   Zn    Zn3+2 0.370780 0.914160 0.956640 0.937268
Zn5   Zn    Zn3+2 0.957510 0.914170 0.543430 0.935501
Zn6   Zn    Zn3+2 0.956570 0.085840 0.542520 0.943614
Zn7   Zn    Zn3+2 0.956570 0.914150 0.370820 0.941716
Zn8   Zn    Zn3+2 0.129180 0.085840 0.543400 0.935171

loop_
_geom_bond_atom_site_label_1
_geom_bond_atom_site_label_2
_ccdc_geom_bond_type
C15   C18   S    
C21   C26   S    
C27   O27   A    
C8    H23   S    
C31   C42   S    
C41   C42   A    
C35   C36   A    
C6    H12   S    
C12   C23   A    
C3    C43   S    
C33   C39   S    
C23   C42   A    
C22   H9    S    
C36   C37   A    
C33   O17   A    
C18   C19   D    
C27   O8    A    
C30   O3    A    
C29   O2    A    
C13   H27   S    
O9    Zn8   S    
C34   C35   A    
C14   H28   S    
O11   Zn7   S    
C12   C37   A    
C20   H7    S    
O24   Zn7   S    
C43   H15   S    
C38   H20   S    
C30   O6    A    
O23   Zn3   S    
C8    C9    D    
O4    Zn4   S    
C2    C27   S    
O21   Zn4   S    
C3    H17   S    
C16   C24   S    
O12   Zn1   S    
C13   C14   D    
C25   O10   A    
C17   C30   S    
O8    Zn5   S    
C19   C32   S    
O24   Zn5   S    
C26   O11   A    
C38   H21   S    
C34   C39   A    
C1    O4    A    
C39   C40   A    
C2    H16   S    
C6    C8    S    
C24   H10   S    
C32   O16   A    
C38   O20   S    
C16   O12   A    
C40   H18   S    
C9    H24   S    
O24   Zn8   S    
C7    H22   S    
C19   H6    S    
O2    Zn7   S    
C32   O18   A    
C4    O13   A    
C2    C43   D    
C23   C34   A    
C28   O21   A    
O26   Zn5   S    
O22   Zn2   S    
C12   H13   S    
C4    O23   A    
C37   H11   S    
C36   O20   S    
C40   C41   A    
C5    H1    S    
C20   C22   S    
C28   O15   A    
C16   O14   A    
C22   C24   D    
C15   H2    S    
O19   Zn1   S    
C21   H8    S    
O24   Zn6   S    
C31   O7    A    
O3    Zn6   S    
O16   Zn2   S    
O1    Zn2   S    
C15   C17   D    
O25   Zn8   S    
O5    Zn8   S    
O18   Zn3   S    
O7    Zn5   S    
O13   Zn1   S    
C17   H4    S    
C4    C5    S    
C3    C5    D    
C10   C13   S    
C18   H5    S    
O17   Zn4   S    
C11   H26   S    
C6    C7    D    
C10   H25   S    
C7    C25   S    
O6    Zn7   S    
C41   H14   S    
O14   Zn2   S    
C33   O19   A    
C35   H3    S    
C31   O5    A    
C29   O9    A    
O1    Zn4   S    
O27   Zn6   S    
C10   C11   D    
C26   O26   A    
C20   C21   D    
C11   C29   S    
C25   O25   A    
C1    O22   A    
O1    Zn3   S    
C1    C14   S    
O15   Zn3   S    
O1    Zn1   S    
C9    C28   S    
C38   H19   S    
O10   Zn6   S    
