data_mof_unit_59936.cif
_audit_creation_date              2012-12-10T17:15:52-0500
_audit_creation_method            fapswitch 2.2
_symmetry_space_group_name_H-M    P1
_symmetry_Int_Tables_number       1
_space_group_crystal_system       triclinic
_cell_length_a                    10.285713
_cell_length_b                    11.279218
_cell_length_c                    11.02187
_cell_angle_alpha                 87.023718
_cell_angle_beta                  91.508273
_cell_angle_gamma                 82.597044
_cell_volume                      1265.62727647

loop_
_atom_site_label
_atom_site_type_symbol
_atom_type_description
_atom_site_fract_x
_atom_site_fract_y
_atom_site_fract_z
_atom_type_partial_charge
C1    C     C_R   0.446087 0.506290 0.268770 0.881708
C2    C     C_R   0.630648 0.057885 0.462886 0.123462
C3    C     C_R   0.504789 0.129425 0.478864 -0.097627
C4    C     C_R   0.390954 0.074133 0.490414 -0.229230
C5    C     C_R   0.397994 0.949954 0.491705 -0.185183
C6    C     C_R   0.518986 0.874488 0.491456 -0.111698
C7    C     C_2   0.412760 0.502073 0.140159 -0.229974
C8    C     C_2   0.511261 0.471525 0.065254 -0.246054
C9    C     C_2   0.582134 0.478148 0.860598 -0.473488
C10   C     C_2   0.489238 0.451509 0.936820 0.567442
C11   C     C_2   0.074044 0.504933 0.479818 0.168837
C12   C     C_R   0.498198 0.261090 0.492686 0.872807
C13   C     C_2   0.932983 0.488061 0.519521 -0.180150
C14   C     C_R   0.553293 0.488769 0.731108 0.961104
C15   C     C_R   0.505534 0.740840 0.499599 0.832947
C16   C     C_R   0.748151 0.110176 0.426843 -0.138791
C17   C     C_R   0.869461 0.058626 0.490218 -0.265506
C18   C     C_R   0.886929 0.934716 0.513581 0.008487
C19   C     C_R   0.775866 0.873454 0.495801 -0.127025
C20   C     C_R   0.641985 0.931439 0.484235 0.033192
H1    H     H_    0.295284 0.127466 0.497547 0.156584
H2    H     H_    0.903680 0.511323 0.610610 0.203133
H3    H     H_    0.111309 0.485467 0.384203 0.117886
H4    H     H_    0.955801 0.107123 0.480502 0.122998
H5    H     H_    0.306099 0.912059 0.496043 0.176253
H6    H     H_    0.613050 0.461926 0.098793 0.214227
H7    H     H_    0.678747 0.496509 0.894021 0.147181
N1    N     N_2   0.157290 0.551390 0.551110 0.092847
N2    N     N_2   0.842740 0.448550 0.448960 -0.175327
O1    O     O_R   0.568950 0.489660 0.307530 -0.551814
O2    O     O_R   0.348880 0.522640 0.340350 -0.659136
O3    O     O_R   0.610060 0.300270 0.483590 -0.625814
O4    O     O_R   0.389990 0.333260 0.516410 -0.637584
O5    O     O_R   0.651120 0.477360 0.659650 -0.642123
O6    O     O_R   0.431050 0.510340 0.692470 -0.591734
O7    O     O_R   0.610010 0.666740 0.483590 -0.635269
O8    O     O_R   0.389940 0.699730 0.516410 -0.615441
Zn1   Zn    Zn3+2 0.646940 0.477980 0.478090 1.008318
Zn2   Zn    Zn3+2 0.353060 0.522020 0.521910 1.017337
C21   C     C_2   0.269019 0.521477 0.102582 0.528170
H8    H     H_    0.198992 0.484975 0.162536 0.090008
O9    O     O_2   0.227105 0.580489 0.009427 -0.546382
C22   C     C_2   0.897527 0.388396 0.341178 0.632231
H9    H     H_    0.934277 0.289508 0.357856 -0.062597
O10   O     O_2   0.937231 0.444714 0.250119 -0.576838
O11   O     O_3   0.094754 0.599955 0.648953 -0.574411
C23   C     C_3   0.178733 0.664805 0.714836 0.006712
H10   H     H_    0.221141 0.732880 0.655881 0.152035
H11   H     H_    0.250690 0.603227 0.773298 0.238715
H12   H     H_    0.118388 0.715545 0.783736 0.138665
C24   C     C_2   0.750939 0.168652 0.289746 0.366830
H13   H     H_    0.763437 0.205307 0.378104 0.176642
O12   O     O_2   0.689529 0.262942 0.237899 -0.586507
C25   C     C_2   0.028955 0.875807 0.521964 0.367087
H14   H     H_    0.103403 0.920420 0.569195 0.023427
O13   O     O_2   0.066621 0.785600 0.467687 -0.541559
C26   C     C_2   0.810627 0.759713 0.452443 0.629216
H15   H     H_    0.834142 0.688801 0.523377 0.063944
O14   O     O_2   0.811651 0.743828 0.342287 -0.511768
O15   O     O_3   0.371521 0.415789 0.893085 -0.558587
C27   C     C_3   0.367325 0.294330 0.934236 -0.245215
H16   H     H_    0.377059 0.281357 0.037147 0.152799
H17   H     H_    0.443798 0.233762 0.887129 0.157277
H18   H     H_    0.268720 0.270568 0.905515 0.192321

loop_
_geom_bond_atom_site_label_1
_geom_bond_atom_site_label_2
_ccdc_geom_bond_type
N2    Zn1   S    
C14   O5    A    
C27   H18   S    
C10   O15   S    
C9    C14   S    
C24   H13   S    
O3    Zn1   S    
C2    C16   A    
C9    C10   D    
C25   H14   S    
O6    Zn2   S    
C19   C20   A    
N1    Zn2   S    
C16   C24   S    
C7    C21   S    
O7    Zn1   S    
C17   C18   A    
C12   O4    A    
C7    C8    D    
C23   H11   S    
O5    Zn1   S    
C12   O3    A    
C4    H1    S    
C11   C13   S    
N1    O11   S    
C26   H15   S    
C5    C6    A    
C11   N1    D    
C5    H5    S    
C4    C5    A    
C19   C26   S    
C21   O9    D    
C21   H8    S    
C11   H3    S    
O2    Zn2   S    
C13   H2    S    
C2    C3    A    
C23   H12   S    
C22   H9    S    
C27   H16   S    
C25   O13   D    
C26   O14   D    
C17   H4    S    
C16   C17   A    
C8    H6    S    
C2    C20   A    
C3    C4    A    
C15   O7    A    
C1    O2    A    
C6    C20   A    
C9    H7    S    
C15   O8    A    
O8    Zn2   S    
C18   C19   A    
C13   N2    D    
C14   O6    A    
C27   H17   S    
C18   C25   S    
O11   C23   S    
C1    O1    A    
C3    C12   S    
O1    Zn1   S    
C6    C15   S    
C1    C7    S    
C22   O10   D    
O4    Zn2   S    
C8    C10   S    
N2    C22   S    
C23   H10   S    
O15   C27   S    
C24   O12   D    
