data_mof_unit_47521.cif
_audit_creation_date              2013-03-05T15:57:24-0500
_audit_creation_method            fapswitch 2.2
_symmetry_space_group_name_H-M    P1
_symmetry_Int_Tables_number       1
_space_group_crystal_system       triclinic
_cell_length_a                    12.931257
_cell_length_b                    13.003597
_cell_length_c                    15.349895
_cell_angle_alpha                 116.256831
_cell_angle_beta                  64.165895
_cell_angle_gamma                 96.881646
_cell_volume                      2074.93596506

loop_
_atom_site_label
_atom_site_type_symbol
_atom_site_description
_atom_site_fract_x
_atom_site_fract_y
_atom_site_fract_z
_atom_type_partial_charge
C1    C     C_R   0.000403 0.832826 0.053191 -0.121278
H1    H     H_    0.029357 0.895069 0.111012 0.094900
N1    N     N_R   0.037320 0.720000 0.995830 -0.045326
C2    C     C_R   0.680616 0.456402 0.219947 0.334705
N2    N     N_R   0.790770 0.446140 0.151990 -0.084392
C3    C     C_R   0.755254 0.520642 0.893214 -0.178881
H2    H     H_    0.777666 0.549700 0.831652 0.110908
N3    N     N_R   0.824900 0.517970 0.936430 -0.045907
C4    C     C_R   0.011491 0.699436 0.303576 -0.151580
H3    H     H_    0.987394 0.665090 0.361592 0.087710
N4    N     N_R   0.003190 0.648180 0.211390 -0.034747
C5    C     C_R   0.677250 0.421236 0.988791 -0.111495
H4    H     H_    0.633193 0.355345 0.011432 0.165219
N5    N     N_R   0.774330 0.457010 0.995830 -0.056884
C6    C     C_R   0.093323 0.800954 0.209916 -0.129463
H5    H     H_    0.145101 0.861534 0.182327 0.099063
N6    N     N_R   0.053760 0.709130 0.151980 -0.041419
C7    C     C_R   0.782489 0.554139 0.314138 -0.168930
H6    H     H_    0.807718 0.602104 0.378613 0.124513
N7    N     N_R   0.853840 0.498830 0.211390 -0.056596
C8    C     C_R   0.901288 0.747823 0.955098 -0.149682
H7    H     H_    0.838075 0.731452 0.923289 0.100401
N8    N     N_R   0.974250 0.667320 0.936430 -0.040127
C9    C     C_R   0.913009 0.852167 0.030590 0.128263
C10   C     C_R   0.673539 0.526327 0.322000 -0.108959
C11   C     C_R   0.662689 0.459869 0.924937 0.143530
C12   C     C_R   0.067637 0.795058 0.304317 0.054253
C13   C     C_R   0.338167 0.516390 0.950881 -0.105424
H8    H     H_    0.396818 0.555813 0.901648 0.095555
N9    N     N_R   0.225670 0.542990 0.004170 -0.045884
C14   C     C_R   0.975130 0.179645 0.782996 -0.098814
H9    H     H_    0.947118 0.110386 0.805775 0.089207
N10   N     N_R   0.946240 0.290870 0.848020 -0.038842
C15   C     C_R   0.199854 0.507685 0.695195 -0.112912
H10   H     H_    0.167673 0.481191 0.634839 0.102072
N11   N     N_R   0.146160 0.501170 0.788610 -0.042277
C16   C     C_R   0.052257 0.255544 0.088386 -0.130926
H11   H     H_    0.090092 0.275095 0.143707 0.097293
N12   N     N_R   0.025750 0.332680 0.063570 -0.040833
C17   C     C_R   0.950468 0.172255 0.995472 -0.077739
H12   H     H_    0.893529 0.115011 0.965656 0.104267
N13   N     N_R   0.962680 0.280000 0.004170 -0.042551
C18   C     C_R   0.299030 0.594559 0.792600 -0.167378
H13   H     H_    0.357269 0.649582 0.822425 0.113875
N14   N     N_R   0.209230 0.553860 0.848010 -0.040080
C19   C     C_R   0.259712 0.416262 0.047655 -0.153341
H14   H     H_    0.249955 0.362003 0.086824 0.107254
N15   N     N_R   0.175100 0.482030 0.063570 -0.042553
C20   C     C_R   0.052329 0.278906 0.685210 -0.133939
H15   H     H_    0.092133 0.301855 0.618828 0.103389
N16   N     N_R   0.996810 0.351820 0.788610 -0.042264
Ni1   Ni    Ni4+2 0.130310 0.630310 0.000000 0.209190
Ni2   Ni    Ni4+2 0.869690 0.369690 0.000000 0.263193
Ni3   Ni    Ni4+2 0.985660 0.509480 0.863750 0.209911
Ni4   Ni    Ni4+2 0.014340 0.490520 0.136250 0.212273
C21   C     C_R   0.362021 0.434639 0.974966 0.144568
C22   C     C_R   0.039326 0.170097 0.680723 0.042974
C23   C     C_R   0.295434 0.565486 0.697024 0.060926
C24   C     C_R   0.007823 0.152398 0.045649 0.022655
H16   H     H_    0.593909 0.739187 0.093110 0.117888
C25   C     C_R   0.426370 0.708210 0.192460 -0.105340
H17   H     H_    0.447820 0.616490 0.157836 0.135456
C26   C     C_R   0.316431 0.757434 0.273982 -0.127186
H18   H     H_    0.254329 0.702620 0.302057 0.114014
C27   C     C_R   0.287595 0.876671 0.319686 0.114231
C28   C     C_R   0.371489 0.945594 0.283077 -0.161457
H19   H     H_    0.351544 0.037537 0.317016 0.124742
C29   C     C_R   0.481408 0.895948 0.201486 -0.094951
H20   H     H_    0.545435 0.949472 0.173424 0.129316
C30   C     C_R   0.508770 0.777369 0.156118 -0.101766
C31   C     C_R   0.159840 0.024151 0.502427 -0.237131
H21   H     H_    0.235809 0.062499 0.511734 0.135414
C32   C     C_R   0.050046 0.068667 0.586874 0.071290
C33   C     C_R   0.949545 0.020061 0.578697 0.012878
C34   C     C_R   0.960797 0.928780 0.484232 -0.264215
H22   H     H_    0.883586 0.893155 0.475460 0.141486
C35   C     C_R   0.069257 0.885033 0.399397 0.066310
C36   C     C_R   0.171096 0.929379 0.407149 0.026795
C37   C     C_R   0.778663 0.028502 0.744034 -0.185834
H23   H     H_    0.827546 0.972639 0.750720 0.089914
C38   C     C_R   0.662034 0.060079 0.815094 -0.081793
H24   H     H_    0.622276 0.030718 0.877368 0.125825
C39   C     C_R   0.595764 0.125646 0.803025 -0.095199
H25   H     H_    0.504602 0.146756 0.855893 0.111076
C40   C     C_R   0.646783 0.162596 0.721871 -0.088618
H26   H     H_    0.595107 0.212628 0.712052 0.123673
C41   C     C_R   0.764087 0.133535 0.652285 -0.153104
H27   H     H_    0.802207 0.160629 0.588327 0.118522
C42   C     C_R   0.830680 0.065739 0.662613 0.135008
H28   H     H_    0.994830 0.343001 0.423234 0.134752
C43   C     C_R   0.864050 0.315047 0.365953 -0.108089
H29   H     H_    0.908406 0.235671 0.296425 0.121911
C44   C     C_R   0.758229 0.356597 0.384041 -0.180430
H30   H     H_    0.721279 0.308452 0.327875 0.163550
C45   C     C_R   0.701245 0.460744 0.473503 -0.045552
C46   C     C_R   0.751325 0.522309 0.545498 0.576744
C47   C     C_R   0.856647 0.478569 0.527340 -0.296105
H31   H     H_    0.894662 0.524687 0.582981 0.138476
C48   C     C_R   0.913130 0.375824 0.437379 -0.168364
C49   C     C_R   0.495537 0.522851 0.584217 -0.148884
H32   H     H_    0.502587 0.493081 0.637489 0.136768
C50   C     C_R   0.390550 0.570459 0.607171 0.029812
C51   C     C_R   0.378202 0.608703 0.539553 -0.000357
C52   C     C_R   0.474421 0.593583 0.445269 -0.149442
H33   H     H_    0.469205 0.623287 0.391295 0.142425
C53   C     C_R   0.578171 0.540980 0.420314 0.086251
C54   C     C_R   0.590712 0.507675 0.491192 0.067694
C55   C     C_R   0.223564 0.626994 0.488877 -0.166247
H34   H     H_    0.267822 0.555529 0.410723 0.150402
C56   C     C_R   0.120706 0.680352 0.512917 -0.127392
H35   H     H_    0.086549 0.650013 0.453724 0.103656
C57   C     C_R   0.062024 0.772572 0.613189 -0.083431
H36   H     H_    0.982883 0.814038 0.631138 0.087600
C58   C     C_R   0.105668 0.811196 0.690089 -0.111106
H37   H     H_    0.060145 0.882786 0.767769 0.105438
C59   C     C_R   0.208311 0.757733 0.666643 -0.129557
H38   H     H_    0.241644 0.789471 0.726696 0.112786
C60   C     C_R   0.268160 0.664859 0.565724 0.119132
C61   C     C_2   0.475517 0.394949 0.948210 -0.237144
H39   H     H_    0.478531 0.351260 0.992989 0.151155
C62   C     C_2   0.567916 0.437899 0.895464 -0.201668
H40   H     H_    0.565764 0.478008 0.847560 0.138860
C63   C     C_2   0.833333 0.956513 0.086491 -0.218404
H41   H     H_    0.781765 0.964926 0.049633 0.142167
C64   C     C_2   0.815887 0.037512 0.184418 -0.133468
H42   H     H_    0.861507 0.032216 0.227389 0.121647
N17   N     N_R   0.601382 0.374448 0.195099 0.214318
O1    O     O_R   0.640164 0.268602 0.124273 -0.455002
O2    O     O_R   0.490640 0.402192 0.247183 -0.455064
O3    O     O_3   0.694299 0.622393 0.636576 -0.656792
C65   C     C_3   0.745203 0.719727 0.622198 0.249068
H43   H     H_    0.829043 0.700075 0.549356 0.053473
H44   H     H_    0.762952 0.775082 0.692758 0.118167
C66   C     C_3   0.660689 0.788075 0.618376 -0.911146
H45   H     H_    0.579938 0.816321 0.694137 0.261838
H46   H     H_    0.699455 0.864537 0.607336 0.227840
H47   H     H_    0.639784 0.735234 0.549649 0.249830

loop_
_geom_bond_atom_site_label_1
_geom_bond_atom_site_label_2
_geom_bond_distance
_ccdc_geom_bond_type
C25   C30   1.396963 A    
N15   Ni4   1.871657 S    
C28   C29   1.399541 A    
C41   H27   1.083334 S    
C26   C27   1.408337 A    
C44   H30   1.083197 S    
C32   C33   1.406893 A    
C3    H2    1.082009 S    
N1    N8    1.388290 A    
C45   C46   1.413605 A    
C18   H13   1.081772 S    
C65   C66   1.523988 S    
C66   H47   1.104898 S    
C57   C58   1.397238 A    
C47   H31   1.082985 S    
C13   C21   1.373917 A    
C63   H41   1.085262 S    
N2    N7    1.388307 A    
C35   C36   1.405274 A    
C55   H34   1.083040 S    
C3    N3    1.341991 A    
C33   C42   1.480168 S    
N9    N15   1.372217 A    
C13   H8    1.076660 S    
C1    H1    1.079069 S    
N13   Ni2   1.810940 S    
C63   C64   1.334302 D    
C53   C54   1.408909 A    
C6    H5    1.081602 S    
C20   C22   1.379074 A    
C59   H38   1.082994 S    
C15   H10   1.081406 S    
C22   C32   1.422235 S    
C25   C26   1.398437 A    
C56   H35   1.080359 S    
C52   H33   1.085466 S    
C18   C23   1.364535 A    
C47   C48   1.395638 A    
N12   Ni4   1.839077 S    
C39   H25   1.081790 S    
C59   C60   1.407476 A    
C29   H20   1.082504 S    
C20   N16   1.331181 A    
C14   N10   1.324718 A    
C23   C50   1.414444 S    
C11   C62   1.439860 S    
C4    H3    1.079985 S    
C7    N7    1.320288 A    
C17   N13   1.343736 A    
C28   H19   1.083072 S    
C44   C45   1.405196 A    
C17   C24   1.389131 A    
C8    H7    1.079845 S    
C25   H17   1.082526 S    
C7    C10   1.377895 A    
N7    Ni4   1.872624 S    
N6    Ni1   1.894101 S    
C52   C53   1.398129 A    
C57   H36   1.081214 S    
C38   C39   1.396005 A    
C10   C53   1.419319 S    
C2    C10   1.387005 A    
N12   N13   1.388289 A    
C61   C62   1.338714 D    
N10   Ni2   1.894102 S    
C19   N15   1.339648 A    
C33   C34   1.366500 A    
C40   C41   1.397428 A    
C55   C60   1.406200 A    
N3    Ni3   1.871658 S    
C43   H29   1.080317 S    
C31   C32   1.400065 A    
C7    H6    1.077686 S    
C66   H46   1.106432 S    
N14   Ni1   1.894399 S    
C65   H44   1.109563 S    
C40   H26   1.082230 S    
C9    C63   1.474195 S    
C38   H24   1.082321 S    
C37   H23   1.081824 S    
C5    C11   1.366640 A    
C1    N1    1.346922 A    
C34   H22   1.086628 S    
N17   O2    1.300319 A    
C16   H11   1.079983 S    
C43   C44   1.398161 A    
C18   N14   1.319908 A    
C6    C12   1.374289 A    
C14   H9    1.074532 S    
H16   C30   1.082647 S    
C61   H39   1.082075 S    
C46   C47   1.403787 A    
C49   C50   1.393562 A    
N11   N14   1.388308 A    
C34   C35   1.389403 A    
C62   H40   1.083578 S    
C16   C24   1.387372 A    
C45   C54   1.487723 S    
C17   H12   1.080090 S    
C39   C40   1.398314 A    
C5    N5    1.318260 A    
C20   H15   1.080472 S    
C4    N4    1.318653 A    
C64   H42   1.084832 S    
C21   C61   1.434461 S    
C51   C60   1.486856 S    
N17   O1    1.301592 A    
H28   C48   1.082416 S    
N4    Ni4   1.840627 S    
C4    C12   1.360784 A    
N8    Ni3   1.839077 S    
C46   O3    1.383355 S    
N2    Ni2   1.894398 S    
C6    N6    1.337518 A    
N9    Ni1   1.811803 S    
C19   H14   1.078473 S    
N4    N6    1.372220 A    
C49   C54   1.367442 A    
N3    N5    1.372218 A    
C27   C36   1.487368 S    
C2    N17   1.431880 S    
C2    N2    1.327527 A    
C12   C35   1.417492 S    
C58   C59   1.399284 A    
N1    Ni1   1.810940 S    
C58   H37   1.082759 S    
C66   H45   1.110556 S    
N10   N16   1.372221 A    
C37   C38   1.396888 A    
N16   Ni3   1.840627 S    
C14   C22   1.373139 A    
C8    N8    1.343058 A    
O3    C65   1.415935 S    
C31   H21   1.084447 S    
C16   N12   1.342744 A    
C3    C11   1.378476 A    
C13   N9    1.318380 A    
C49   H32   1.086443 S    
C55   C56   1.397693 A    
C15   N11   1.330807 A    
C50   C51   1.403667 A    
C56   C57   1.396407 A    
C37   C42   1.404870 A    
N11   Ni3   1.872624 S    
C26   H18   1.082429 S    
N5    Ni2   1.811803 S    
C5    H4    1.073980 S    
C1    C9    1.395639 A    
C29   C30   1.397744 A    
C27   C28   1.406149 A    
C8    C9    1.385440 A    
C19   C21   1.387788 A    
C51   C52   1.385200 A    
C15   C23   1.371968 A    
C41   C42   1.403003 A    
C43   C48   1.396073 A    
C31   C36   1.393421 A    
C65   H43   1.117132 S    
