data_mof_unit_6585.cif
_audit_creation_date              2013-03-05T16:49:09-0500
_audit_creation_method            fapswitch 2.2
_symmetry_space_group_name_H-M    P1
_symmetry_Int_Tables_number       1
_space_group_crystal_system       triclinic
_cell_length_a                    11.169556
_cell_length_b                    10.631505
_cell_length_c                    9.523762
_cell_angle_alpha                 89.997387
_cell_angle_beta                  90.813729
_cell_angle_gamma                 89.526125
_cell_volume                      1130.78628079

loop_
_atom_site_label
_atom_site_type_symbol
_atom_site_description
_atom_site_fract_x
_atom_site_fract_y
_atom_site_fract_z
_atom_type_partial_charge
O1    O     O_R   0.500060 0.316850 0.620870 -0.564357
O2    O     O_R   0.499940 0.683150 0.379130 -0.564472
O3    O     O_R   0.500000 0.316860 0.379090 -0.597237
O4    O     O_R   0.500000 0.683140 0.620910 -0.597199
C1    C     C_R   0.499903 0.260052 0.499775 0.886820
C2    C     C_R   0.500090 0.739946 0.500225 0.886786
O5    O     O_R   0.319670 0.500010 0.620890 -0.573407
O6    O     O_R   0.680330 0.499990 0.379110 -0.573446
O7    O     O_R   0.319620 0.500010 0.379110 -0.579916
O8    O     O_R   0.680380 0.499990 0.620890 -0.579828
C3    C     C_R   0.262304 0.496891 0.498187 0.837190
C4    C     C_R   0.737696 0.503115 0.501814 0.837190
Cu1   Cu    Cu3+1 0.500030 0.499990 0.643150 1.001472
Cu2   Cu    Cu3+1 0.499970 0.500010 0.356850 1.001380
H1    H     H_    0.163780 0.543662 0.841151 0.174706
H2    H     H_    0.836208 0.456391 0.158857 0.174701
C5    C     C_R   0.135743 0.655980 0.021986 -0.187047
C6    C     C_R   0.864273 0.344066 0.978037 -0.187103
H3    H     H_    0.144129 0.743374 0.964803 0.198382
H4    H     H_    0.855896 0.256675 0.035228 0.198369
C7    C     C_R   0.113852 0.658066 0.165406 -0.021723
C8    C     C_R   0.886176 0.341973 0.834621 -0.021510
H5    H     H_    0.100819 0.747166 0.218179 0.219041
H6    H     H_    0.899241 0.252871 0.781866 0.219085
C9    C     C_R   0.103191 0.544729 0.238122 0.039725
C10   C     C_R   0.896815 0.455305 0.761890 0.039760
C11   C     C_R   0.113629 0.429728 0.167583 -0.228984
C12   C     C_R   0.886368 0.570310 0.832420 -0.229022
H7    H     H_    0.103927 0.342569 0.225214 0.193002
H8    H     H_    0.896063 0.657466 0.774782 0.193028
C13   C     C_R   0.134307 0.426467 0.023300 0.357699
C14   C     C_R   0.865692 0.573578 0.976703 0.357720
C15   C     C_R   0.144448 0.541089 0.951105 -0.253026
C16   C     C_R   0.855550 0.458960 0.048906 -0.253062
C17   C     C_R   0.933500 0.553273 0.391968 -0.230089
C18   C     C_R   0.066501 0.446752 0.608040 -0.230137
H9    H     H_    0.883774 0.597149 0.308640 0.208035
H10   H     H_    0.116227 0.402884 0.691372 0.208033
C19   C     C_R   0.872109 0.506033 0.506286 -0.079432
C20   C     C_R   0.127892 0.493984 0.493719 -0.079346
C21   C     C_R   0.941866 0.458390 0.619331 0.084159
C22   C     C_R   0.058136 0.541636 0.380679 0.084188
C23   C     C_3   0.606031 0.039195 0.540390 0.401974
C24   C     C_3   0.393959 0.960799 0.459613 0.401988
C25   C     C_3   0.583958 0.956172 0.410768 -0.254296
C26   C     C_3   0.416032 0.043823 0.589230 -0.254132
H11   H     H_    0.653913 0.918810 0.339953 0.210986
H12   H     H_    0.346079 0.081185 0.660046 0.210957
C27   C     C_3   0.499821 0.876588 0.501092 -0.134937
C28   C     C_3   0.500168 0.123407 0.498908 -0.134963
C29   C     C_3   0.524613 0.958539 0.631989 -0.252591
C30   C     C_3   0.475374 0.041454 0.368010 -0.252698
H13   H     H_    0.546767 0.923599 0.739194 0.186071
H14   H     H_    0.453226 0.076396 0.260803 0.186098
C31   C     C_3   0.504432 0.612901 0.049631 -0.016961
C32   C     C_3   0.495568 0.387099 0.950368 -0.016887
C33   C     C_3   0.409462 0.561759 0.947534 -0.037477
C34   C     C_3   0.590539 0.438241 0.052466 -0.037465
H15   H     H_    0.346785 0.629208 0.896909 0.135064
H16   H     H_    0.653220 0.370795 0.103089 0.135047
H17   H     H_    0.507864 0.709227 0.094427 0.161323
H18   H     H_    0.492137 0.290773 0.905573 0.161336
N1    N     N_3   0.500090 0.499970 0.858290 -0.188969
N2    N     N_3   0.499910 0.500030 0.141710 -0.188975
C35   C     C_3   0.594927 0.551790 0.949966 0.018979
C36   C     C_3   0.405073 0.448210 0.050034 0.018965
H19   H     H_    0.660018 0.612058 0.897553 0.154068
H20   H     H_    0.339980 0.387944 0.102447 0.154087
N3    N     N_R   0.155272 0.307605 0.955094 0.090138
O9    O     O_R   0.235766 0.297983 0.858253 -0.414982
O10   O     O_R   0.112029 0.204829 0.007723 -0.337178
N4    N     N_R   0.844725 0.692442 0.044904 0.090175
O11   O     O_R   0.764238 0.702065 0.141751 -0.414972
O12   O     O_R   0.887969 0.795216 0.992271 -0.337154
N5    N     N_R   0.724559 0.081665 0.583659 0.122232
O13   O     O_R   0.804616 0.000065 0.625940 -0.320383
O14   O     O_R   0.754329 0.198741 0.568514 -0.408225
N6    N     N_R   0.275430 0.918335 0.416364 0.122159
O15   O     O_R   0.195438 0.999901 0.373861 -0.320439
O16   O     O_R   0.245495 0.801337 0.432073 -0.408094

loop_
_geom_bond_atom_site_label_1
_geom_bond_atom_site_label_2
_geom_bond_distance
_ccdc_geom_bond_type
C24   C27   1.524772 S    
O5    Cu1   2.022667 S    
C36   H20   1.098315 S    
N1    C35   1.473548 S    
C11   H7    1.083952 S    
C33   C36   1.553998 S    
N5    O13   1.300495 A    
C19   C21   1.411505 A    
O5    C3    1.325282 A    
O1    C1    1.301813 A    
C8    H6    1.082090 S    
C17   H9    1.067252 S    
N3    O9    1.300559 A    
N6    O16   1.299869 A    
C33   H15   1.104015 S    
C34   H16   1.104018 S    
N3    O10   1.301541 A    
O4    Cu1   1.958635 S    
N5    O14   1.299541 A    
C17   C22   1.402250 A    
C18   C20   1.390900 A    
H2    C16   1.072594 S    
C24   C26   1.535838 S    
C35   H19   1.098310 S    
C28   C30   1.544094 S    
C13   C15   1.405340 A    
O7    C3    1.310730 A    
C24   C30   1.535789 S    
C20   C22   1.411496 A    
Cu1   Cu2   2.726644 S    
C23   N5    1.456297 S    
C18   C21   1.402241 A    
O2    C2    1.301800 A    
C5    C15   1.398968 A    
C31   C35   1.536628 S    
C30   H14   1.110377 S    
C33   N1    1.480583 S    
C25   H11   1.110410 S    
C7    H5    1.082099 S    
C34   N2    1.480586 S    
C26   H12   1.110403 S    
C11   C13   1.397003 A    
C24   N6    1.456251 S    
C12   C14   1.397009 A    
O4    C2    1.298379 A    
N6    O15   1.300389 A    
C25   C30   1.557757 S    
C27   C29   1.544074 S    
C26   C29   1.557745 S    
C5    C7    1.391168 A    
C29   H13   1.110365 S    
C14   C16   1.405338 A    
C17   C19   1.390906 A    
O7    Cu2   2.028547 S    
C23   C25   1.535870 S    
C34   C35   1.553995 S    
Cu1   N1    2.048933 S    
C25   C27   1.541127 S    
O6    C4    1.325290 A    
Cu2   N2    2.048932 S    
C31   N2    1.487853 S    
C32   N1    1.487854 S    
C6    C16   1.398956 A    
O3    Cu2   1.958635 S    
O8    C4    1.310727 A    
N4    O12   1.301542 A    
C31   C33   1.531871 S    
C32   H18   1.110163 S    
C1    C28   1.452746 S    
O1    Cu1   1.958588 S    
C7    C9    1.396532 A    
O6    Cu2   2.022667 S    
C6    C8    1.391159 A    
N4    O11   1.300558 A    
O3    C1    1.298387 A    
O8    Cu1   2.028547 S    
C9    C22   1.455088 S    
C23   C28   1.524791 S    
C9    C11   1.399885 A    
C26   C28   1.541117 S    
C10   C12   1.399891 A    
C4    C19   1.501902 S    
C12   H8    1.083953 S    
C23   C29   1.535809 S    
C32   C36   1.536629 S    
C31   H17   1.110163 S    
C18   H10   1.067245 S    
C5    H3    1.082353 S    
C32   C34   1.531871 S    
C6    H4    1.082352 S    
C2    C27   1.452712 S    
C3    C20   1.501892 S    
O2    Cu2   1.958588 S    
C13   N3    1.439860 S    
C8    C10   1.396533 A    
H1    C15   1.072600 S    
C10   C21   1.455097 S    
N2    C36   1.473548 S    
C14   N4    1.439854 S    
