data_mof_unit_45266.cif
_audit_creation_date              2012-12-10T18:50:46-0500
_audit_creation_method            fapswitch 2.2
_symmetry_space_group_name_H-M    P1
_symmetry_Int_Tables_number       1
_space_group_crystal_system       triclinic
_cell_length_a                    10.621389
_cell_length_b                    9.882025
_cell_length_c                    15.713787
_cell_angle_alpha                 88.779752
_cell_angle_beta                  90.542633
_cell_angle_gamma                 90.799505
_cell_volume                      1648.72816002

loop_
_atom_site_label
_atom_site_type_symbol
_atom_type_description
_atom_site_fract_x
_atom_site_fract_y
_atom_site_fract_z
_atom_type_partial_charge
C1    C     C_R   0.260257 0.499434 0.500160 1.065992
C2    C     C_3   0.625766 0.438480 0.953719 1.200521
C3    C     C_3   0.625262 0.443632 0.051882 -0.476662
C4    C     C_1   0.499798 0.494505 0.825885 0.044695
C5    C     C_1   0.499140 0.503829 0.173959 0.001743
C6    C     C_1   0.499363 0.503751 0.249338 -0.173189
C7    C     C_R   0.064193 0.416139 0.559201 0.436956
C8    C     C_R   0.064858 0.585538 0.443345 0.498977
C9    C     C_R   0.934977 0.416440 0.559184 0.503502
C10   C     C_R   0.935790 0.587530 0.444291 0.475058
C11   C     C_R   0.872014 0.502135 0.501683 -0.504603
C12   C     C_R   0.127890 0.499332 0.500497 -0.522137
C13   C     C_R   0.584927 0.071467 0.548238 -0.186035
C14   C     C_R   0.582322 0.927825 0.550278 -0.191349
C15   C     C_R   0.499748 0.501251 0.338301 0.916532
C16   C     C_R   0.421972 0.928645 0.446313 0.429931
C17   C     C_R   0.411769 0.071306 0.453958 0.422627
C18   C     C_R   0.739671 0.500743 0.500672 1.066158
C19   C     C_R   0.500090 0.498665 0.661682 0.906648
C20   C     C_3   0.483800 0.646460 0.045382 -0.462109
C21   C     C_3   0.389437 0.410466 0.050709 -0.444745
C22   C     C_3   0.386018 0.409856 0.952184 0.232078
C23   C     C_3   0.483138 0.644606 0.946909 0.229954
C24   C     C_1   0.500008 0.495627 0.750548 -0.136417
C25   C     C_3   0.499316 0.501367 0.082516 0.076171
C26   C     C_3   0.499553 0.496002 0.917432 -0.012672
H1    H     H_    0.388016 0.678909 0.924678 0.051091
H2    H     H_    0.297022 0.460939 0.931740 0.072686
H3    H     H_    0.393606 0.688688 0.067499 0.156472
H4    H     H_    0.298245 0.448049 0.074652 0.165070
H5    H     H_    0.400553 0.305741 0.076889 0.221669
H6    H     H_    0.561058 0.713494 0.069085 0.228557
H7    H     H_    0.705193 0.507854 0.074621 0.200072
H8    H     H_    0.638969 0.340234 0.079711 0.191975
H9    H     H_    0.653269 0.125306 0.586703 0.213065
H10   H     H_    0.647881 0.873408 0.590977 0.181640
N1    N     N_R   0.499970 0.857200 0.499980 -0.138848
N2    N     N_R   0.499970 0.142800 0.499980 -0.138290
O1    O     O_R   0.316750 0.614620 0.499990 -0.565247
O2    O     O_R   0.316750 0.385380 0.499990 -0.595395
O3    O     O_R   0.499990 0.614720 0.377140 -0.606242
O4    O     O_R   0.499990 0.385280 0.377140 -0.598479
O5    O     O_R   0.683220 0.614710 0.500000 -0.591781
O6    O     O_R   0.683220 0.385290 0.500000 -0.598185
O7    O     O_R   0.499980 0.614620 0.622860 -0.640609
O8    O     O_R   0.499980 0.385380 0.622860 -0.598974
Zn1   Zn    Zn3+2 0.499980 0.653120 0.500000 1.010995
Zn2   Zn    Zn3+2 0.499980 0.346880 0.500000 1.012801
O9    O     O_3   0.348004 0.861083 0.387598 -0.589973
C27   C     C_3   0.406400 0.865893 0.306665 0.169309
H11   H     H_    0.374361 0.774027 0.272655 0.196515
H12   H     H_    0.511287 0.861224 0.310738 0.121635
C28   C     C_3   0.366949 0.990326 0.253103 -0.366567
H13   H     H_    0.264607 0.007812 0.260477 0.262157
H14   H     H_    0.420262 0.080899 0.274714 0.243689
C29   C     C_3   0.394133 0.972413 0.158857 -0.963856
H15   H     H_    0.494923 0.948660 0.149500 0.272569
H16   H     H_    0.372096 0.067164 0.122926 0.276530
H17   H     H_    0.334062 0.889815 0.133206 0.263872
O10   O     O_3   0.314981 0.137962 0.412071 -0.641472
C30   C     C_3   0.204732 0.132630 0.462603 0.102317
H18   H     H_    0.148609 0.222508 0.443977 0.188239
H19   H     H_    0.225664 0.139963 0.532118 0.180898
C31   C     C_3   0.121801 0.007208 0.446198 -0.348719
H20   H     H_    0.113011 0.990748 0.376695 0.274171
H21   H     H_    0.164437 0.916781 0.477289 0.263251
C32   C     C_3   0.990313 0.023176 0.482982 -0.863125
H22   H     H_    0.996506 0.040240 0.552565 0.280253
H23   H     H_    0.933615 0.929732 0.472165 0.297581
H24   H     H_    0.941715 0.109905 0.451545 0.263804
O11   O     O_3   0.392253 0.273817 0.924559 -0.594048
C33   C     C_3   0.293400 0.241175 0.867130 0.112560
H25   H     H_    0.324420 0.154661 0.828925 0.163108
H26   H     H_    0.273345 0.325159 0.820684 0.150218
C34   C     C_3   0.174445 0.197540 0.915525 -0.416301
H27   H     H_    0.196638 0.110642 0.958937 0.232019
H28   H     H_    0.141316 0.282142 0.954606 0.230585
C35   C     C_3   0.068990 0.155943 0.854382 -0.799453
H29   H     H_    0.044149 0.242102 0.811135 0.307602
H30   H     H_    0.984151 0.125110 0.891148 0.270133
H31   H     H_    0.098579 0.069126 0.815875 0.249750
O12   O     O_3   0.582937 0.728381 0.915241 -0.564403
C36   C     C_3   0.536207 0.842875 0.870555 0.094585
H32   H     H_    0.483284 0.907798 0.914543 0.153836
H33   H     H_    0.473468 0.811194 0.817076 0.126956
C37   C     C_3   0.646852 0.924161 0.833356 -0.290997
H34   H     H_    0.711273 0.955891 0.885645 0.250706
H35   H     H_    0.699981 0.859342 0.789662 0.231006
C38   C     C_3   0.602123 0.049600 0.784202 -0.875928
H36   H     H_    0.535930 0.020542 0.732398 0.238117
H37   H     H_    0.684220 0.104051 0.755811 0.291948
H38   H     H_    0.554062 0.118794 0.827559 0.324312
F1    F     F_    0.727610 0.513199 0.922741 -0.627421
F2    F     F_    0.640985 0.305835 0.929179 -0.657133
F3    F     F_    0.127119 0.337951 0.617180 -0.659161
F4    F     F_    0.128217 0.664498 0.385779 -0.607583
F5    F     F_    0.871356 0.336413 0.616075 -0.627379
F6    F     F_    0.872982 0.668529 0.387789 -0.622379

loop_
_geom_bond_atom_site_label_1
_geom_bond_atom_site_label_2
_ccdc_geom_bond_type
C11   C18   S    
C23   O12   S    
C8    F4    S    
C19   O8    A    
C28   H13   S    
C21   H5    S    
C13   H9    S    
C14   H10   S    
C5    C6    T    
C4    C24   T    
C37   H35   S    
C20   C25   S    
C3    H7    S    
C29   H15   S    
C30   H19   S    
C23   C26   S    
C10   F6    S    
C1    O2    A    
C6    C15   S    
C16   C17   A    
C27   H12   S    
C23   H1    S    
N1    Zn1   S    
N2    Zn2   S    
C16   N1    A    
C28   H14   S    
C22   H2    S    
C21   C22   S    
C1    C12   S    
C33   C34   S    
C20   H3    S    
O7    Zn1   S    
C7    C12   A    
O8    Zn2   S    
C27   C28   S    
C32   H22   S    
C31   C32   S    
C3    C25   S    
C16   O9    S    
C15   O3    A    
C33   H26   S    
C35   H29   S    
C3    H8    S    
O10   C30   S    
C32   H23   S    
C31   H21   S    
C30   C31   S    
C34   H27   S    
C18   O6    A    
C9    C11   A    
C36   H32   S    
C20   C23   S    
C2    F2    S    
C8    C12   A    
C27   H11   S    
O3    Zn1   S    
C2    C26   S    
O4    Zn2   S    
C38   H38   S    
C34   H28   S    
C13   N2    A    
C5    C25   S    
C36   H33   S    
O12   C36   S    
C38   H37   S    
C22   O11   S    
O1    Zn1   S    
C20   H6    S    
C28   C29   S    
O2    Zn2   S    
C21   C25   S    
C9    F5    S    
C37   H34   S    
C2    F1    S    
C15   O4    A    
C33   H25   S    
C37   C38   S    
C4    C26   S    
C19   O7    A    
C7    F3    S    
C21   H4    S    
C29   H17   S    
C32   H24   S    
C31   H20   S    
C2    C3    S    
O11   C33   S    
C18   O5    A    
C14   N1    A    
C35   H31   S    
C29   H16   S    
C19   C24   S    
C35   H30   S    
C17   N2    A    
C30   H18   S    
C34   C35   S    
C10   C11   A    
C1    O1    A    
C17   O10   S    
C7    C9    A    
C36   C37   S    
C8    C10   A    
O9    C27   S    
C22   C26   S    
C38   H36   S    
C13   C14   A    
O5    Zn1   S    
O6    Zn2   S    
