data_mof_unit_24716.cif
_audit_creation_date              2012-10-26T19:20:35-0400
_audit_creation_method            fapswitch 2.2
_symmetry_space_group_name_H-M    P1
_symmetry_Int_Tables_number       1
_space_group_crystal_system       triclinic
_cell_length_a                    10.819246
_cell_length_b                    10.926668
_cell_length_c                    9.80347
_cell_angle_alpha                 110.837593
_cell_angle_beta                  100.456639
_cell_angle_gamma                 89.315652
_cell_volume                      1063.41037127

loop_
_atom_site_label
_atom_site_type_symbol
_atom_type_description
_atom_site_fract_x
_atom_site_fract_y
_atom_site_fract_z
_atom_type_partial_charge
Br1   Br    Br    0.038753 0.309487 0.902777 -0.446858
Br2   Br    Br    0.962186 0.698731 0.099092 -0.437277
Br3   Br    Br    0.268852 0.808099 0.745678 -0.347601
Br4   Br    Br    0.735976 0.195835 0.258129 -0.360097
Br5   Br    Br    0.621499 0.999235 0.766070 -0.338570
Br6   Br    Br    0.462929 0.991637 0.210740 -0.308554
C1    C     C_R   0.483268 0.253357 0.441097 0.604773
C2    C     C_R   0.738487 0.487673 0.499797 0.569081
C3    C     C_R   0.150217 0.686245 0.758681 0.152283
C4    C     C_R   0.852058 0.318949 0.243342 0.158486
C5    C     C_R   0.114644 0.718577 0.896477 -0.022967
C6    C     C_R   0.887389 0.287240 0.105454 -0.029002
C7    C     C_R   0.009888 0.654962 0.909711 0.155667
C8    C     C_R   0.991095 0.352440 0.092071 0.147326
C9    C     C_R   0.934605 0.566400 0.783042 -0.039774
C10   C     C_R   0.065831 0.441565 0.218803 -0.036029
C11   C     C_R   0.962363 0.540640 0.639668 -0.028165
C12   C     C_R   0.508517 0.746714 0.558867 0.605989
C13   C     C_R   0.038371 0.466177 0.362033 -0.029112
C14   C     C_R   0.081346 0.585815 0.631447 0.011098
C15   C     C_R   0.919971 0.420127 0.370284 0.007800
C16   C     C_R   0.875704 0.472922 0.505225 0.014013
C17   C     C_R   0.125342 0.532531 0.496314 0.021294
C18   C     C_2   0.461566 0.113047 0.409636 0.155731
C19   C     C_2   0.508722 0.887291 0.590672 0.175446
C20   C     C_2   0.440535 0.072170 0.518219 0.396824
C21   C     C_2   0.434317 0.933226 0.496373 0.415143
C22   C     C_2   0.510354 0.510313 0.082335 0.031461
C23   C     C_2   0.489096 0.490369 0.917868 0.037687
C24   C     C_R   0.262020 0.514560 0.500835 0.576836
Cu1   Cu    Cu3+1 0.521920 0.521810 0.644910 1.083305
Cu2   Cu    Cu3+1 0.478080 0.478190 0.355090 1.085341
F1    F     F_    0.351980 0.850920 0.377392 -0.591225
F2    F     F_    0.429179 0.159244 0.654459 -0.603565
H1    H     H_    0.166967 0.795516 0.992940 0.214204
H2    H     H_    0.835884 0.209590 0.009194 0.211688
H3    H     H_    0.858227 0.515105 0.800969 0.193772
H4    H     H_    0.142119 0.493664 0.201627 0.203462
H5    H     H_    0.415442 0.419148 0.842871 0.209482
H6    H     H_    0.583425 0.582209 0.157538 0.170397
H7    H     H_    0.624390 0.621366 0.936496 0.242739
H8    H     H_    0.376134 0.378059 0.063345 0.251553
N1    N     N_2   0.445130 0.445420 0.137360 -0.328904
N2    N     N_2   0.554870 0.554580 0.862640 -0.340041
O1    O     O_R   0.511700 0.332340 0.577400 -0.452084
O2    O     O_R   0.488300 0.667660 0.422600 -0.464926
O3    O     O_R   0.474680 0.295500 0.332650 -0.444748
O4    O     O_R   0.525320 0.704500 0.667350 -0.445064
O5    O     O_R   0.338170 0.518410 0.622370 -0.483977
O6    O     O_R   0.661830 0.481590 0.377630 -0.486668
O7    O     O_R   0.301150 0.481570 0.377630 -0.516037
O8    O     O_R   0.698850 0.518430 0.622370 -0.521638

loop_
_geom_bond_atom_site_label_1
_geom_bond_atom_site_label_2
_ccdc_geom_bond_type
C2    C16   S    
C24   O7    A    
Cu2   O7    S    
Br3   C3    S    
C19   C21   D    
C3    C5    A    
C2    O8    A    
C3    C14   A    
C13   C17   A    
Cu1   Cu2   S    
C14   C17   A    
Cu1   O8    S    
Br6   C18   S    
C23   H5    S    
C5    H1    S    
C23   N2    D    
C15   C16   A    
C21   F1    S    
C5    C7    A    
Cu2   O6    S    
C20   C21   S    
C12   C19   S    
C4    C6    A    
Cu1   O5    S    
C10   C13   A    
Br5   C19   S    
C12   O2    A    
C22   C23   S    
Cu2   O3    S    
C24   O5    A    
C6    C8    A    
Cu1   O4    S    
C7    C9    A    
C4    C15   A    
Cu1   O1    S    
H7    N2    S    
C8    C10   A    
C6    H2    S    
Cu1   N2    S    
C22   H6    S    
Br4   C4    S    
C1    C18   S    
C17   C24   S    
C2    O6    A    
C11   C14   A    
H8    N1    S    
C1    O3    A    
C10   H4    S    
C9    C11   A    
Br2   C7    S    
Cu2   N1    S    
C9    H3    S    
Br1   C8    S    
C22   N1    D    
C13   C15   A    
Cu2   O2    S    
C20   F2    S    
C11   C16   A    
C18   C20   D    
C1    O1    A    
C12   O4    A    
