data_mof_unit_41422.cif
_audit_creation_date              2012-12-10T17:54:22-0500
_audit_creation_method            fapswitch 2.2
_symmetry_space_group_name_H-M    P1
_symmetry_Int_Tables_number       1
_space_group_crystal_system       triclinic
_cell_length_a                    27.71216
_cell_length_b                    10.721588
_cell_length_c                    9.870293
_cell_angle_alpha                 89.242095
_cell_angle_beta                  90.047684
_cell_angle_gamma                 91.724978
_cell_volume                      2931.05957814

loop_
_atom_site_label
_atom_site_type_symbol
_atom_type_description
_atom_site_fract_x
_atom_site_fract_y
_atom_site_fract_z
_atom_type_partial_charge
C1    C     C_R   0.502720 0.259761 0.502015 0.864116
C2    C     C_R   0.278187 0.492820 0.374150 -0.103128
C3    C     C_R   0.252822 0.500825 0.495831 0.320763
C4    C     C_R   0.101703 0.511372 0.479081 -0.051783
C5    C     C_R   0.125261 0.399277 0.454638 -0.020477
C6    C     C_R   0.098245 0.291611 0.423466 -0.138422
C7    C     C_R   0.129259 0.619509 0.511113 -0.022209
C8    C     C_R   0.353314 0.498790 0.499076 -0.037748
C9    C     C_R   0.646512 0.502188 0.498741 -0.058637
C10   C     C_R   0.972797 0.411572 0.423144 0.045035
C11   C     C_R   0.976280 0.628866 0.504048 0.045549
C12   C     C_R   0.406021 0.499425 0.499889 0.853803
C13   C     C_R   0.949307 0.521217 0.462692 0.071914
C14   C     C_R   0.944403 0.310433 0.373091 -0.216569
C15   C     C_R   0.894454 0.313543 0.371312 -0.136224
C16   C     C_R   0.870984 0.417767 0.418329 -0.024047
C17   C     C_R   0.898204 0.522625 0.462335 -0.051721
C18   C     C_R   0.874189 0.628281 0.507445 -0.022707
C19   C     C_R   0.823687 0.625626 0.511529 0.508578
C20   C     C_R   0.820597 0.419471 0.423052 0.509312
C21   C     C_R   0.724730 0.439425 0.579897 -0.136473
C22   C     C_R   0.674386 0.429361 0.588946 0.133138
C23   C     C_R   0.495038 0.738886 0.499682 0.890584
C24   C     C_R   0.669426 0.580919 0.402218 -0.258654
C25   C     C_R   0.719350 0.588766 0.394370 -0.098577
C26   C     C_R   0.746939 0.517835 0.482780 0.283483
C27   C     C_R   0.023620 0.406327 0.435019 0.046387
C28   C     C_R   0.050709 0.515239 0.471767 0.071257
C29   C     C_R   0.027409 0.627792 0.501880 0.045407
C30   C     C_R   0.048397 0.294723 0.414060 -0.216976
C31   C     C_R   0.106225 0.731145 0.534262 -0.134754
C32   C     C_R   0.950959 0.733393 0.548697 -0.216269
C33   C     C_R   0.900915 0.732840 0.550201 -0.137751
C34   C     C_R   0.593859 0.498509 0.500160 0.887878
C35   C     C_R   0.056299 0.735579 0.529396 -0.216341
C36   C     C_R   0.507791 0.107306 0.762638 -0.174964
C37   C     C_R   0.491682 0.043862 0.879102 -0.144207
C38   C     C_R   0.466436 0.930655 0.867784 -0.152497
C39   C     C_R   0.461726 0.875293 0.741418 -0.145466
C40   C     C_R   0.482257 0.933684 0.624351 0.100150
C41   C     C_R   0.498542 0.057921 0.631920 0.101056
C42   C     C_R   0.504588 0.125806 0.507798 -0.124984
C43   C     C_R   0.504792 0.064378 0.383798 -0.214572
C44   C     C_R   0.498749 0.937464 0.380799 -0.211931
C45   C     C_R   0.175617 0.397438 0.462730 0.503022
C46   C     C_R   0.488909 0.871306 0.500665 -0.127604
C47   C     C_R   0.436180 0.337156 0.142449 -0.177092
C48   C     C_R   0.404658 0.257476 0.072889 -0.209793
C49   C     C_R   0.404619 0.257800 0.932707 -0.178939
C50   C     C_R   0.436213 0.337525 0.861374 -0.165482
C51   C     C_R   0.468550 0.419796 0.928549 0.149434
C52   C     C_R   0.468553 0.419744 0.073407 0.169096
C53   C     C_R   0.529969 0.577021 0.070590 -0.120485
C54   C     C_R   0.529957 0.576976 0.927181 -0.123714
C55   C     C_R   0.179575 0.613634 0.517518 0.504979
C56   C     C_R   0.277449 0.507001 0.619353 -0.098470
C57   C     C_R   0.327598 0.505760 0.621177 -0.225017
C58   C     C_R   0.328247 0.491814 0.375547 -0.219378
H1    H     H_    0.257677 0.512918 0.713522 0.140668
H2    H     H_    0.126731 0.816098 0.556416 0.192873
H3    H     H_    0.648536 0.636995 0.332840 0.161226
H4    H     H_    0.883236 0.814778 0.586440 0.190688
H5    H     H_    0.736670 0.648961 0.318774 0.151262
H6    H     H_    0.041595 0.826002 0.545418 0.141136
H7    H     H_    0.510267 0.114071 0.288437 0.172178
H8    H     H_    0.497951 0.083957 0.977921 0.145595
H9    H     H_    0.259008 0.488157 0.278618 0.140090
H10   H     H_    0.451939 0.883724 0.957303 0.141502
H11   H     H_    0.502687 0.891237 0.284620 0.168634
H12   H     H_    0.554403 0.639855 0.123879 0.145284
H13   H     H_    0.433970 0.331061 0.249854 0.210594
H14   H     H_    0.380184 0.194919 0.128286 0.164731
H15   H     H_    0.380260 0.195164 0.878710 0.164957
H16   H     H_    0.434557 0.330828 0.754073 0.212157
H17   H     H_    0.554365 0.639818 0.872130 0.157492
H18   H     H_    0.115527 0.203860 0.406413 0.190069
H19   H     H_    0.747092 0.384085 0.646121 0.140658
H20   H     H_    0.959639 0.227647 0.332418 0.143595
H21   H     H_    0.030295 0.206712 0.393576 0.140966
H22   H     H_    0.346142 0.510921 0.717681 0.165179
N1    N     N_R   0.201480 0.503753 0.493291 -0.357871
N2    N     N_R   0.798214 0.521645 0.471113 -0.351540
N3    N     N_R   0.499540 0.498800 0.142780 -0.121530
N4    N     N_R   0.499520 0.498720 0.857170 -0.128433
O1    O     O_R   0.500000 0.316780 0.614690 -0.650450
O2    O     O_2   0.794049 0.319769 0.380632 -0.557372
O3    O     O_2   0.206510 0.716892 0.546457 -0.553730
O4    O     O_2   0.800171 0.725136 0.557318 -0.558429
O5    O     O_R   0.500000 0.316750 0.385360 -0.637393
O6    O     O_R   0.428760 0.500030 0.614650 -0.646623
O7    O     O_R   0.428750 0.500010 0.385320 -0.639219
O8    O     O_R   0.500000 0.683250 0.614640 -0.622767
O9    O     O_R   0.500000 0.683220 0.385310 -0.619778
O10   O     O_R   0.571250 0.499990 0.614680 -0.619685
O11   O     O_R   0.571240 0.499970 0.385350 -0.613234
O12   O     O_2   0.198671 0.290462 0.440486 -0.555558
Zn1   Zn    Zn3+2 0.500000 0.500020 0.653130 0.924145
Zn2   Zn    Zn3+2 0.500000 0.499980 0.346870 0.937679
H23   H     H_    0.347219 0.485886 0.280054 0.166864
H24   H     H_    0.968628 0.816412 0.587172 0.142687
H25   H     H_    0.528849 0.192157 0.778248 0.175262
H26   H     H_    0.441881 0.787026 0.736305 0.161315
C59   C     C_3   0.652397 0.335489 0.689169 -0.423232
C60   C     C_3   0.632168 0.220066 0.617230 -0.811520
H27   H     H_    0.603568 0.245275 0.544227 0.241185
H28   H     H_    0.661433 0.173878 0.561834 0.274494
H29   H     H_    0.616508 0.152929 0.692935 0.243541
H30   H     H_    0.680141 0.304086 0.762513 0.208068
H31   H     H_    0.624133 0.377931 0.751393 0.229238
H32   H     H_    0.874271 0.233021 0.333807 0.191476

loop_
_geom_bond_atom_site_label_1
_geom_bond_atom_site_label_2
_ccdc_geom_bond_type
C10   C27   A    
C21   C26   A    
C24   H3    S    
C20   N2    A    
C41   C42   A    
C12   O7    A    
C57   H22   S    
C7    C55   A    
C54   N4    A    
O11   Zn2   S    
C53   C54   A    
C40   C46   A    
N4    Zn1   S    
C12   O6    A    
C36   C37   A    
C50   H16   S    
C5    C6    A    
C9    C22   A    
C15   C16   A    
C56   C57   A    
C18   C19   A    
C25   H5    S    
C8    C58   A    
C33   H4    S    
N3    Zn2   S    
C20   O2    S    
C3    N1    S    
C35   H6    S    
C8    C12   S    
C55   N1    A    
C19   N2    A    
O6    Zn1   S    
C16   C20   A    
C26   N2    S    
C23   C46   S    
C21   C22   A    
C27   C30   A    
C15   H32   S    
C36   C41   A    
C48   H14   S    
C4    C7    A    
C53   H12   S    
C60   H28   S    
C60   H27   S    
C4    C28   A    
C44   C46   A    
O8    Zn1   S    
C17   C18   A    
C1    O1    A    
C7    C31   A    
C51   C52   A    
C24   C25   A    
C19   O4    S    
C10   C14   A    
C39   C40   A    
C16   C17   A    
O10   Zn1   S    
C25   C26   A    
C5    C45   A    
C22   C59   S    
C32   H24   S    
C36   H25   S    
C31   H2    S    
C52   N3    A    
C43   C44   A    
C37   C38   A    
C8    C57   A    
C3    C56   A    
C47   C48   A    
C43   H7    S    
C37   H8    S    
C50   C51   A    
C44   H11   S    
C34   O11   A    
C47   H13   S    
C59   H30   S    
C30   H21   S    
C40   C41   A    
C6    C30   A    
C38   H10   S    
C11   C32   A    
C2    H9    S    
C9    C34   S    
C31   C35   A    
C42   C43   A    
C59   C60   S    
C39   H26   S    
C28   C29   A    
C1    O5    A    
C14   C15   A    
C45   N1    A    
C58   H23   S    
C34   O10   A    
C4    C5    A    
C10   C13   A    
C2    C58   A    
C9    C24   A    
C6    H18   S    
C47   C52   A    
C29   C35   A    
C56   H1    S    
C13   C17   A    
O5    Zn2   S    
C59   H31   S    
C32   C33   A    
C2    C3    A    
C11   C13   A    
C38   C39   A    
C48   C49   A    
C53   N3    A    
C51   N4    A    
C49   H15   S    
C14   H20   S    
O7    Zn2   S    
C55   O3    S    
C18   C33   A    
O1    Zn1   S    
C54   H17   S    
C23   O9    A    
C1    C42   S    
C11   C29   A    
C49   C50   A    
C21   H19   S    
C27   C28   A    
C23   O8    A    
C45   O12   S    
O9    Zn2   S    
C60   H29   S    
