data_mof_unit_6551.cif
_audit_creation_date              2012-10-26T18:29:31-0400
_audit_creation_method            fapswitch 2.2
_symmetry_space_group_name_H-M    P1
_symmetry_Int_Tables_number       1
_space_group_crystal_system       triclinic
_cell_length_a                    11.705254
_cell_length_b                    12.960174
_cell_length_c                    11.71156
_cell_angle_alpha                 99.825667
_cell_angle_beta                  94.210635
_cell_angle_gamma                 90.819033
_cell_volume                      1745.23190499

loop_
_atom_site_label
_atom_site_type_symbol
_atom_type_description
_atom_site_fract_x
_atom_site_fract_y
_atom_site_fract_z
_atom_type_partial_charge
C1    C     C_R   0.501098 0.299254 0.478635 0.571947
C2    C     C_R   0.458054 0.468292 0.966055 -0.088986
C3    C     C_R   0.283948 0.500605 0.500010 0.548357
C4    C     C_R   0.716084 0.500407 0.500150 0.550862
C5    C     C_1   0.162335 0.501570 0.500152 -0.028238
C6    C     C_1   0.837743 0.501060 0.500378 -0.004825
C7    C     C_1   0.059910 0.501810 0.500250 -0.045116
C8    C     C_1   0.940187 0.501542 0.500350 -0.035535
C9    C     C_R   0.489726 0.813805 0.533371 0.012668
C10   C     C_R   0.508145 0.185971 0.466455 0.027128
C11   C     C_R   0.574551 0.019551 0.371277 -0.123339
C12   C     C_R   0.498069 0.700670 0.521343 0.559224
C13   C     C_R   0.421300 0.979861 0.627904 -0.120945
C14   C     C_R   0.565549 0.128290 0.375579 0.265020
C15   C     C_R   0.432022 0.871234 0.624154 0.253177
C16   C     C_R   0.459960 0.136528 0.549384 -0.178483
C17   C     C_R   0.536742 0.863287 0.450015 -0.181662
C18   C     C_R   0.469239 0.029184 0.544526 -0.005529
C19   C     C_R   0.526927 0.970490 0.454854 -0.004430
C20   C     C_3   0.383224 0.869809 0.813302 -0.014611
C21   C     C_3   0.358628 0.792348 0.893082 -0.361078
C22   C     C_3   0.623356 0.127340 0.188335 -0.008916
C23   C     C_R   0.389242 0.404019 0.020505 0.226437
C24   C     C_3   0.648171 0.204170 0.107965 -0.353088
C25   C     C_3   0.687656 0.735898 0.813332 0.034058
C26   C     C_3   0.807368 0.782497 0.851900 -0.377715
C27   C     C_3   0.211294 0.378677 0.183554 0.008016
C28   C     C_3   0.140517 0.307213 0.243166 -0.369345
C29   C     C_3   0.376712 0.237800 0.913531 -0.012119
C30   C     C_3   0.352748 0.152336 0.983791 -0.376741
C31   C     C_3   0.682024 0.741518 0.110198 -0.042090
C32   C     C_3   0.773594 0.769429 0.210538 -0.375089
C33   C     C_R   0.615674 0.594713 0.979124 0.236860
C34   C     C_R   0.395489 0.416625 0.143942 0.419696
C35   C     C_R   0.604910 0.583958 0.855457 0.437518
C36   C     C_R   0.552904 0.536453 0.157113 -0.014068
C37   C     C_R   0.448078 0.463353 0.843613 -0.011517
C38   C     C_R   0.541821 0.535044 0.034864 -0.089773
Cu1   Cu    Cu3+1 0.508350 0.507730 0.615930 1.007560
Cu2   Cu    Cu3+1 0.491650 0.492270 0.384070 0.998900
H1    H     H_    0.620538 0.973132 0.305010 0.080602
H2    H     H_    0.539297 0.086933 0.157338 0.112347
H3    H     H_    0.692681 0.069353 0.182994 0.120898
H4    H     H_    0.734284 0.241810 0.132975 0.162505
H5    H     H_    0.645857 0.162212 0.016816 0.079048
H6    H     H_    0.583069 0.265872 0.114015 0.173269
H7    H     H_    0.383475 0.412797 0.790075 0.171150
H8    H     H_    0.620089 0.582317 0.211489 0.166652
H9    H     H_    0.624461 0.772387 0.873179 0.083360
H10   H     H_    0.664054 0.758744 0.728046 0.155562
H11   H     H_    0.840825 0.757648 0.933672 0.196024
H12   H     H_    0.373641 0.025834 0.693379 0.086597
H13   H     H_    0.866721 0.755954 0.783672 0.155806
H14   H     H_    0.804851 0.869343 0.866049 0.080054
H15   H     H_    0.177957 0.366584 0.091066 0.175685
H16   H     H_    0.197386 0.461595 0.222441 0.138064
H17   H     H_    0.173363 0.312387 0.335337 0.165055
H18   H     H_    0.049521 0.330405 0.239719 0.106413
H19   H     H_    0.145619 0.224797 0.198487 0.146273
H20   H     H_    0.471224 0.251075 0.913831 0.111954
H21   H     H_    0.345465 0.208794 0.821712 0.137312
H22   H     H_    0.260013 0.130535 0.973678 0.153963
H23   H     H_    0.581010 0.817831 0.380979 0.113831
H24   H     H_    0.402744 0.082405 0.952951 0.061214
H25   H     H_    0.378704 0.179529 0.077055 0.195732
H26   H     H_    0.596771 0.738383 0.146075 0.105657
H27   H     H_    0.680880 0.806269 0.059555 0.119272
H28   H     H_    0.859116 0.774603 0.176293 0.162606
H29   H     H_    0.756153 0.846141 0.263337 0.087577
H30   H     H_    0.774986 0.708887 0.267170 0.151829
H31   H     H_    0.415569 0.182129 0.618218 0.108257
H32   H     H_    0.317129 0.930656 0.823995 0.131375
H33   H     H_    0.470147 0.905901 0.840689 0.100949
H34   H     H_    0.420036 0.727698 0.882312 0.150836
H35   H     H_    0.366989 0.832747 0.985006 0.079737
H36   H     H_    0.270230 0.758827 0.871923 0.166688
N1    N     N_R   0.520920 0.519350 0.790130 -0.262049
N2    N     N_R   0.479080 0.480650 0.209870 -0.257760
O1    O     O_R   0.505930 0.354460 0.582000 -0.531645
O2    O     O_3   0.622727 0.182948 0.303079 -0.538150
O3    O     O_3   0.690315 0.625239 0.799069 -0.501568
O4    O     O_3   0.328256 0.353657 0.198030 -0.522764
O5    O     O_3   0.315629 0.328733 0.953928 -0.586858
O6    O     O_3   0.711681 0.646719 0.040224 -0.553688
O7    O     O_R   0.494070 0.645540 0.418000 -0.529618
O8    O     O_R   0.491820 0.341410 0.386200 -0.413854
O9    O     O_R   0.508180 0.658590 0.613800 -0.460721
O10   O     O_R   0.344250 0.506540 0.597900 -0.497053
O11   O     O_R   0.655750 0.493460 0.402100 -0.510305
O12   O     O_R   0.330140 0.493480 0.402100 -0.480818
O13   O     O_R   0.669860 0.506520 0.597900 -0.441944
O14   O     O_3   0.375804 0.816538 0.697160 -0.539547

loop_
_geom_bond_atom_site_label_1
_geom_bond_atom_site_label_2
_ccdc_geom_bond_type
C31   H26   S    
C30   H24   S    
Cu1   O9    S    
C35   O3    S    
C7    C8    S    
C28   H17   S    
C31   H27   S    
C20   O14   S    
C21   H36   S    
C11   C19   A    
C23   O5    S    
C12   O7    A    
C3    O12   A    
C24   H5    S    
Cu1   N1    S    
C29   O5    S    
C11   C14   A    
C27   H15   S    
C18   C19   A    
Cu2   O8    S    
C25   H10   S    
C17   C19   A    
C15   O14   S    
C22   H3    S    
C11   H1    S    
C14   O2    S    
Cu2   O11   S    
C37   H7    S    
C32   H28   S    
C4    O13   A    
C25   O3    S    
C16   H31   S    
Cu1   O10   S    
C26   H14   S    
Cu1   O13   S    
C9    C12   S    
C29   H21   S    
C4    C6    S    
C10   C14   A    
Cu1   Cu2   S    
C5    C7    T    
C27   H16   S    
C32   H30   S    
C25   C26   S    
C37   N1    A    
C21   H34   S    
C35   N1    A    
C31   O6    S    
Cu1   O1    S    
Cu2   O7    S    
C29   C30   S    
C13   H12   S    
C2    C38   A    
C31   C32   S    
C29   H20   S    
C23   C34   A    
C13   C18   A    
C9    C17   A    
C30   H22   S    
C24   H4    S    
C22   C24   S    
C26   H13   S    
C2    C23   A    
C4    O11   A    
C28   H19   S    
C1    O8    A    
C12   O9    A    
C3    O10   A    
C27   O4    S    
C1    C10   S    
C3    C5    S    
C6    C8    T    
C32   H29   S    
C28   H18   S    
C21   H35   S    
C33   C38   A    
C24   H6    S    
C13   C15   A    
C9    C15   A    
C22   O2    S    
C10   C16   A    
C26   H11   S    
C17   H23   S    
C2    C37   A    
C22   H2    S    
C1    O1    A    
C36   C38   A    
C33   C35   A    
C20   H33   S    
C36   H8    S    
Cu2   N2    S    
C33   O6    S    
C25   H9    S    
C30   H25   S    
C20   C21   S    
C16   C18   A    
C27   C28   S    
C20   H32   S    
C36   N2    A    
C34   O4    S    
Cu2   O12   S    
C34   N2    A    
