data_mof_unit_21947.cif
_audit_creation_date              2012-12-10T17:42:45-0500
_audit_creation_method            fapswitch 2.2
_symmetry_space_group_name_H-M    P1
_symmetry_Int_Tables_number       1
_space_group_crystal_system       triclinic
_cell_length_a                    9.993865
_cell_length_b                    10.695525
_cell_length_c                    13.094303
_cell_angle_alpha                 91.531022
_cell_angle_beta                  70.081037
_cell_angle_gamma                 89.175789
_cell_volume                      1315.03144366

loop_
_atom_site_label
_atom_site_type_symbol
_atom_type_description
_atom_site_fract_x
_atom_site_fract_y
_atom_site_fract_z
_atom_type_partial_charge
C1    C     C_R   0.500874 0.738980 0.494174 0.920083
C2    C     C_R   0.370714 0.485106 0.822026 -0.131202
C3    C     C_R   0.394285 0.872457 0.340479 -0.304492
C4    C     C_R   0.420791 0.493947 0.703802 0.912273
C5    C     C_R   0.347354 0.939074 0.267148 0.395142
C6    C     C_R   0.369409 0.068612 0.258592 0.472417
C7    C     C_R   0.427747 0.129785 0.328276 -0.266676
C8    C     C_R   0.462550 0.065273 0.409151 -0.032936
C9    C     C_R   0.451580 0.934714 0.412405 0.056630
C10   C     C_R   0.499380 0.871563 0.487883 -0.143621
C11   C     C_R   0.549310 0.935540 0.560474 -0.201102
C12   C     C_R   0.436829 0.476774 0.983386 0.086694
C13   C     C_R   0.558050 0.062353 0.559276 0.405021
C14   C     C_R   0.510815 0.127821 0.486164 -0.145945
C15   C     C_R   0.815834 0.702600 0.605885 0.459287
C16   C     C_R   0.502769 0.260653 0.496655 0.879811
C17   C     C_R   0.876746 0.816425 0.618505 -0.494921
C18   C     C_R   0.016228 0.816974 0.616702 0.320093
C19   C     C_R   0.089614 0.701556 0.603475 0.465131
C20   C     C_R   0.049083 0.599522 0.549484 -0.037161
C21   C     C_R   0.905062 0.599713 0.549809 0.065665
C22   C     C_R   0.951612 0.405783 0.452241 -0.133311
C23   C     C_R   0.464004 0.440965 0.874041 0.090701
C24   C     C_R   0.094035 0.405830 0.452249 -0.077051
C25   C     C_R   0.579658 0.497832 0.296231 0.885544
C26   C     C_R   0.762341 0.345763 0.023407 -0.177565
C27   C     C_R   0.629169 0.475839 0.179555 -0.066448
C28   C     C_R   0.236249 0.535310 0.884415 -0.174248
C29   C     C_R   0.198882 0.549533 0.996605 -0.145206
C30   C     C_R   0.299010 0.523089 0.045900 -0.154727
C31   C     C_R   0.546805 0.459847 0.027159 -0.023017
C32   C     C_R   0.663902 0.377794 0.972967 0.127697
C33   C     C_R   0.679482 0.327846 0.870154 -0.196808
C34   C     C_R   0.582946 0.361809 0.820044 -0.140108
C35   C     C_R   0.544580 0.522112 0.123461 0.369314
C36   C     C_R   0.741089 0.390327 0.128826 -0.295425
H1    H     H_    0.384301 0.772367 0.340165 0.213689
H2    H     H_    0.297043 0.084698 0.138503 0.382046
H3    H     H_    0.445966 0.228737 0.317448 0.180518
H4    H     H_    0.696599 0.159197 0.593248 0.333892
H5    H     H_    0.917491 0.328526 0.412860 0.144959
H6    H     H_    0.643299 0.752500 0.725678 0.318060
H7    H     H_    0.809480 0.899149 0.648521 0.189566
H8    H     H_    0.008113 0.995662 0.651511 0.346084
H9    H     H_    0.183209 0.756782 0.705519 0.359170
H10   H     H_    0.463078 0.678352 0.099563 0.351646
H11   H     H_    0.094094 0.585882 0.044981 0.158882
H12   H     H_    0.767819 0.264633 0.827513 0.152959
H13   H     H_    0.599555 0.321727 0.740209 0.201365
H14   H     H_    0.165660 0.328602 0.412748 0.161607
H15   H     H_    0.850400 0.281025 0.983942 0.160432
H16   H     H_    0.161232 0.565887 0.846492 0.191631
H17   H     H_    0.266316 0.536233 0.133215 0.186717
H18   H     H_    0.580023 0.886946 0.620275 0.180338
H19   H     H_    0.808306 0.354967 0.171846 0.177689
H20   H     H_    0.256159 0.794088 0.229629 0.356262
N1    N     N_R   0.856860 0.501200 0.500990 -0.090700
N2    N     N_R   0.142450 0.501280 0.501020 -0.086162
O1    O     O_R   0.385310 0.683220 0.500000 -0.580878
O2    O     O_3   0.334030 0.139492 0.184407 -0.771966
O3    O     O_3   0.605356 0.120628 0.634863 -0.796767
O4    O     O_3   0.676996 0.685087 0.668535 -0.715673
O5    O     O_3   0.074242 0.923402 0.644846 -0.761756
O6    O     O_3   0.175852 0.680241 0.663564 -0.726653
O7    O     O_3   0.466556 0.631084 0.162775 -0.816386
O8    O     O_R   0.614640 0.683250 0.500010 -0.573387
O9    O     O_R   0.328400 0.499950 0.653610 -0.546915
O10   O     O_R   0.557730 0.499970 0.653620 -0.549101
O11   O     O_R   0.385360 0.316750 0.499990 -0.624354
O12   O     O_R   0.614690 0.316780 0.500000 -0.643723
O13   O     O_R   0.442270 0.500030 0.346380 -0.592174
O14   O     O_R   0.671600 0.500050 0.346390 -0.634024
O15   O     O_3   0.280520 0.879757 0.203473 -0.786553
Zn1   Zn    Zn3+2 0.346880 0.499980 0.499990 1.000039
Zn2   Zn    Zn3+2 0.653120 0.500020 0.500010 0.980085

loop_
_geom_bond_atom_site_label_1
_geom_bond_atom_site_label_2
_ccdc_geom_bond_type
C26   C32   A    
C11   C13   A    
C19   C20   A    
C22   N1    A    
C7    C8    A    
O10   Zn2   S    
C12   C23   A    
C29   H11   S    
C28   C29   A    
C1    O1    A    
C5    C6    A    
C18   O5    S    
C22   H5    S    
C35   O7    S    
C17   C18   A    
C18   C19   A    
C8    C9    A    
C25   O13   A    
C9    C10   A    
H6    O4    S    
C13   C14   A    
O14   Zn2   S    
C1    O8    A    
H8    O5    S    
C24   H14   S    
C30   H17   S    
C1    C10   S    
C6    O2    S    
C16   O12   A    
H10   O7    S    
O9    Zn1   S    
C27   C35   A    
H4    O3    S    
C2    C4    S    
C17   H7    S    
C21   N1    A    
C29   C30   A    
C3    C9    A    
C4    O9    A    
C31   C32   A    
C19   O6    S    
C23   C34   A    
C33   C34   A    
O11   Zn1   S    
C25   O14   A    
O1    Zn1   S    
C11   H18   S    
H2    O2    S    
C26   C36   A    
C12   C31   A    
C14   C16   S    
C20   N2    A    
O12   Zn2   S    
N2    Zn1   S    
C4    O10   A    
C15   C17   A    
C34   H13   S    
C8    C14   A    
H20   O15   S    
C12   C30   A    
C16   O11   A    
C3    C5    A    
O13   Zn1   S    
C6    C7    A    
C27   C36   A    
C25   C27   S    
H9    O6    S    
C32   C33   A    
N1    Zn2   S    
C36   H19   S    
C26   H15   S    
C28   H16   S    
O8    Zn2   S    
C31   C35   A    
C15   O4    S    
C22   C24   A    
C5    O15   S    
C10   C11   A    
C15   C21   A    
C13   O3    S    
C20   C21   A    
C3    H1    S    
C24   N2    A    
C2    C23   A    
C33   H12   S    
C7    H3    S    
C2    C28   A    
