data_mof_unit_25085.cif
_audit_creation_date              2013-03-05T15:42:22-0500
_audit_creation_method            fapswitch 2.2
_symmetry_space_group_name_H-M    P1
_symmetry_Int_Tables_number       1
_space_group_crystal_system       triclinic
_cell_length_a                    16.89887
_cell_length_b                    16.731443
_cell_length_c                    19.429024
_cell_angle_alpha                 117.840667
_cell_angle_beta                  62.202722
_cell_angle_gamma                 100.865888
_cell_volume                      4293.98971847

loop_
_atom_site_label
_atom_site_type_symbol
_atom_site_description
_atom_site_fract_x
_atom_site_fract_y
_atom_site_fract_z
_atom_type_partial_charge
C1    C     C_R   0.040935 0.759536 0.010801 -0.137344
H1    H     H_    0.082851 0.807900 0.037667 0.088144
N1    N     N_R   0.036080 0.671900 0.995420 -0.037106
C2    C     C_R   0.764103 0.418627 0.164232 -0.143922
H2    H     H_    0.723105 0.369877 0.136219 0.084083
N2    N     N_R   0.834710 0.454650 0.119760 -0.037213
C3    C     C_R   0.804735 0.559617 0.960504 -0.133310
H3    H     H_    0.816130 0.600956 0.928243 0.091664
N3    N     N_R   0.867430 0.509300 0.948100 -0.038687
C4    C     C_R   0.954261 0.672410 0.249284 -0.131837
H4    H     H_    0.912863 0.650032 0.298589 0.095516
N4    N     N_R   0.003360 0.617250 0.167070 -0.040974
C5    C     C_R   0.738270 0.483101 0.039781 -0.131391
H5    H     H_    0.690771 0.455445 0.083098 0.095581
N5    N     N_R   0.825450 0.461270 0.995400 -0.040497
C6    C     C_R   0.024045 0.753282 0.174807 -0.126409
H6    H     H_    0.049614 0.808958 0.158457 0.087454
N6    N     N_R   0.045340 0.665280 0.119770 -0.039447
C7    C     C_R   0.842556 0.487222 0.240089 -0.145166
H7    H     H_    0.873598 0.501504 0.282029 0.084843
N7    N     N_R   0.883740 0.497640 0.167070 -0.037709
C8    C     C_R   0.963067 0.690422 0.934296 -0.131191
H8    H     H_    0.932554 0.675276 0.891885 0.083881
N8    N     N_R   0.987050 0.628910 0.948110 -0.037151
C9    C     C_R   0.990776 0.774699 0.977885 0.057886
C10   C     C_R   0.767236 0.437134 0.240187 0.085259
C11   C     C_R   0.723217 0.547856 0.021298 0.058846
C12   C     C_R   0.963431 0.759404 0.256280 0.076325
C13   C     C_R   0.249884 0.569718 0.012662 -0.142345
H9    H     H_    0.288007 0.620683 0.992524 0.087311
N9    N     N_R   0.174550 0.538730 0.004600 -0.038559
C14   C     C_R   0.916887 0.264386 0.837509 -0.144541
H10   H     H_    0.867785 0.224868 0.867438 0.086976
N10   N     N_R   0.954660 0.334720 0.880230 -0.040358
C15   C     C_R   0.172491 0.450790 0.751230 -0.132267
H11   H     H_    0.152072 0.408142 0.700687 0.099085
N11   N     N_R   0.116260 0.502360 0.832930 -0.042542
C16   C     C_R   0.051434 0.307544 0.051423 -0.124640
H12   H     H_    0.091936 0.321133 0.085071 0.097797
N12   N     N_R   0.012950 0.371090 0.051890 -0.041604
C17   C     C_R   0.973330 0.238591 0.974835 -0.115442
H13   H     H_    0.941218 0.188046 0.937023 0.096410
N13   N     N_R   0.963920 0.328100 0.004580 -0.042102
C18   C     C_R   0.251693 0.520563 0.827686 -0.130456
H14   H     H_    0.304663 0.542810 0.847948 0.095542
N14   N     N_R   0.165290 0.545350 0.880240 -0.041411
C19   C     C_R   0.182781 0.490518 0.088423 -0.137783
H15   H     H_    0.159298 0.468629 0.138793 0.084865
N15   N     N_R   0.132570 0.490700 0.051900 -0.037840
C20   C     C_R   0.985595 0.341576 0.760349 -0.143912
H16   H     H_    0.003871 0.371780 0.716932 0.164211
N16   N     N_R   0.996640 0.382750 0.832930 -0.049700
Ni1   Ni    Ni4+2 0.104370 0.604370 0.000010 0.214411
Ni2   Ni    Ni4+2 0.895630 0.395630 0.999990 0.206632
Ni3   Ni    Ni4+2 0.991920 0.505780 0.891500 0.212073
Ni4   Ni    Ni4+2 0.008080 0.494220 0.108500 0.210252
C21   C     C_R   0.256755 0.541341 0.066157 0.067497
C22   C     C_R   0.932389 0.268021 0.762489 0.126320
C23   C     C_R   0.258497 0.459213 0.745997 0.075738
C24   C     C_R   0.028769 0.222334 0.002645 0.061558
C25   C     C_R   0.849946 0.132057 0.710132 -0.325814
C26   C     C_R   0.890357 0.211339 0.704077 -0.066061
C27   C     C_R   0.897311 0.229489 0.637083 0.449320
C28   C     C_R   0.888872 0.158059 0.564921 -0.019309
C29   C     C_R   0.860684 0.073849 0.566675 -0.031206
C30   C     C_R   0.834408 0.063476 0.642232 0.151354
C31   C     C_R   0.915000 0.166684 0.488602 -0.146263
C32   C     C_R   0.923817 0.090233 0.412313 -0.231576
C33   C     C_R   0.904380 0.004943 0.412122 0.151253
C34   C     C_R   0.866930 0.997750 0.490705 0.064858
C35   C     C_R   0.844360 0.912792 0.491861 0.135367
C36   C     C_R   0.807467 0.905662 0.569906 -0.209051
C37   C     C_R   0.803165 0.980770 0.644875 -0.186734
C38   C     C_R   0.929351 0.926156 0.334409 -0.262345
C39   C     C_R   0.917712 0.841221 0.335399 0.115782
C40   C     C_R   0.867767 0.835312 0.414228 -0.259095
H17   H     H_    0.838364 0.118847 0.763433 0.142190
H18   H     H_    0.935061 0.230992 0.485963 0.167415
H19   H     H_    0.950574 0.097096 0.352720 0.125296
H20   H     H_    0.963291 0.931563 0.273855 0.117157
H21   H     H_    0.853941 0.770707 0.416595 0.119113
H22   H     H_    0.788491 0.840797 0.571644 0.128795
H23   H     H_    0.781130 0.972696 0.703281 0.123231
C41   C     C_R   0.424442 0.434837 0.671592 -0.258194
C42   C     C_R   0.341377 0.414621 0.668167 0.114342
C43   C     C_R   0.338894 0.360349 0.588075 -0.254473
C44   C     C_R   0.417153 0.340466 0.511506 0.139028
C45   C     C_R   0.498969 0.372569 0.515534 0.026306
C46   C     C_R   0.503336 0.415637 0.595647 0.142267
C47   C     C_R   0.413431 0.297481 0.431550 -0.201518
C48   C     C_R   0.488154 0.294958 0.357246 -0.207380
C49   C     C_R   0.566978 0.335421 0.362513 0.144024
C50   C     C_R   0.574073 0.370098 0.440840 0.028825
C51   C     C_R   0.653116 0.410850 0.446656 0.146859
C52   C     C_R   0.659672 0.444922 0.524778 -0.210124
C53   C     C_R   0.584999 0.447239 0.599066 -0.207395
C54   C     C_R   0.635079 0.349908 0.293519 -0.259573
C55   C     C_R   0.708694 0.400949 0.302920 0.111104
C56   C     C_R   0.720565 0.424964 0.377072 -0.276875
H24   H     H_    0.428040 0.472567 0.732819 0.118427
H25   H     H_    0.275857 0.340205 0.584249 0.122894
H26   H     H_    0.351269 0.271242 0.427427 0.133201
H27   H     H_    0.482418 0.266738 0.297011 0.128858
H28   H     H_    0.626218 0.327762 0.235719 0.115281
H29   H     H_    0.778335 0.461394 0.384360 0.117476
H30   H     H_    0.720606 0.475016 0.529703 0.128525
H31   H     H_    0.589555 0.479155 0.660073 0.128552
C57   C     C_R   0.636750 0.591886 0.056644 0.132057
C58   C     C_R   0.323351 0.569370 0.100689 0.129396
C59   C     C_R   0.402382 0.538873 0.163022 -0.223327
C60   C     C_R   0.326593 0.530787 0.149937 -0.174612
C61   C     C_R   0.390989 0.626619 0.075459 -0.281458
C62   C     C_R   0.469271 0.629895 0.083072 0.189543
C63   C     C_R   0.476363 0.582111 0.123687 0.186952
C64   C     C_R   0.559869 0.567557 0.113878 -0.277039
C65   C     C_R   0.628341 0.649401 0.025821 -0.172661
C66   C     C_R   0.544286 0.669788 0.040480 -0.227324
H32   H     H_    0.564602 0.527790 0.142575 0.118656
H33   H     H_    0.686261 0.673512 0.985383 0.116953
H34   H     H_    0.406532 0.503287 0.195757 0.127615
H35   H     H_    0.539308 0.708523 0.010788 0.126222
H36   H     H_    0.274083 0.488884 0.173020 0.115209
H37   H     H_    0.388260 0.660385 0.040845 0.115966
C67   C     C_R   0.832544 0.182566 0.146585 0.123012
C68   C     C_R   0.962688 0.863599 0.995034 0.129211
C69   C     C_R   0.889366 0.950349 0.967623 -0.226463
C70   C     C_R   0.928410 0.869363 0.943914 -0.176065
C71   C     C_R   0.959994 0.941684 0.069081 -0.276243
C72   C     C_R   0.919835 0.022984 0.093961 0.189052
C73   C     C_R   0.883094 0.026944 0.043359 0.191554
C74   C     C_R   0.839251 0.106984 0.070422 -0.287066
C75   C     C_R   0.869664 0.179157 0.196080 -0.155221
C76   C     C_R   0.913192 0.099743 0.170089 -0.230296
H38   H     H_    0.810004 0.111201 0.033038 0.117030
H39   H     H_    0.864163 0.238130 0.254905 0.124636
H40   H     H_    0.862162 0.952449 0.927805 0.124822
H41   H     H_    0.940769 0.098027 0.209796 0.122690
H42   H     H_    0.930043 0.810775 0.886331 0.116717
H43   H     H_    0.984894 0.938266 0.109957 0.116311
O1    O     O_3   0.920287 0.313404 0.637449 -0.654455
C77   C     C_3   0.843119 0.371512 0.693677 0.248748
H44   H     H_    0.813741 0.376181 0.760173 0.100551
H45   H     H_    0.791744 0.347412 0.668264 0.099226
C78   C     C_3   0.868246 0.466113 0.700059 -0.922724
H46   H     H_    0.897360 0.464495 0.634990 0.259949
H47   H     H_    0.807693 0.511968 0.743225 0.209919
H48   H     H_    0.917934 0.492780 0.727212 0.247535

loop_
_geom_bond_atom_site_label_1
_geom_bond_atom_site_label_2
_geom_bond_distance
_ccdc_geom_bond_type
C6    C12   1.393282 A    
C44   C45   1.409918 A    
C76   H41   1.083625 S    
C50   C51   1.409717 A    
N1    Ni1   1.816052 S    
C17   H13   1.080692 S    
C52   C53   1.394464 A    
C14   C22   1.384734 A    
C74   H38   1.082889 S    
C71   C72   1.404435 A    
C23   C42   1.473008 S    
C54   C55   1.405678 A    
C3    H3    1.072600 S    
C19   N15   1.337201 A    
C42   C43   1.405166 A    
N8    Ni3   1.823122 S    
C69   C70   1.397912 A    
C11   C57   1.465202 S    
C57   C64   1.402170 A    
C15   N11   1.337965 A    
C71   H43   1.083638 S    
N9    N15   1.363963 A    
C72   C73   1.414983 A    
C58   C60   1.405161 A    
C16   H12   1.080450 S    
C6    H6    1.073316 S    
C69   C73   1.401143 A    
C18   C23   1.392298 A    
C29   C34   1.400328 A    
C55   C56   1.405615 A    
C3    C11   1.388834 A    
C65   C66   1.389141 A    
C67   C75   1.395998 A    
C15   C23   1.393173 A    
C1    H1    1.078526 S    
C27   O1    1.381947 S    
C7    C10   1.385447 A    
C66   H35   1.083935 S    
C59   C60   1.389060 A    
C47   H26   1.083698 S    
C9    C68   1.484760 S    
N6    Ni1   1.857777 S    
C25   C30   1.386200 A    
N12   N13   1.384510 A    
C21   C58   1.465580 S    
C7    H7    1.079726 S    
C25   H17   1.080758 S    
C32   C33   1.401350 A    
N12   Ni4   1.823122 S    
C8    C9    1.389357 A    
C68   C71   1.408700 A    
C20   N16   1.337029 A    
C34   C35   1.408535 A    
N3    Ni3   1.861985 S    
C70   H42   1.081856 S    
C59   C63   1.398099 A    
N16   Ni3   1.824263 S    
C32   H19   1.083758 S    
C69   H40   1.083622 S    
C38   H20   1.082492 S    
C5    H5    1.077185 S    
C60   H36   1.080769 S    
C1    C9    1.389288 A    
C17   N13   1.340824 A    
N1    N8    1.384510 A    
C33   C34   1.409895 A    
C31   H18   1.083060 S    
N2    Ni2   1.858109 S    
C78   H48   1.111086 S    
C61   C62   1.386548 A    
C18   N14   1.337450 A    
C49   C54   1.392681 A    
C63   C64   1.386491 A    
C56   H29   1.081013 S    
C38   C39   1.405390 A    
C31   C32   1.396550 A    
C41   H24   1.081143 S    
N5    Ni2   1.817089 S    
O1    C77   1.412966 S    
C61   H37   1.080360 S    
C2    N2    1.336869 A    
C77   C78   1.520977 S    
C59   H34   1.083977 S    
C48   C49   1.401980 A    
C43   C44   1.393340 A    
C2    H2    1.079594 S    
N2    N7    1.384510 A    
N9    Ni1   1.817086 S    
C67   C74   1.396976 A    
C1    N1    1.346929 A    
C15   H11   1.077611 S    
C14   N10   1.334116 A    
C39   C40   1.404350 A    
C28   C31   1.407017 A    
C13   H9    1.079203 S    
C52   H30   1.083710 S    
C19   C21   1.382522 A    
N13   Ni2   1.816051 S    
C19   H15   1.080314 S    
C64   H32   1.080798 S    
C26   C27   1.418932 A    
C20   H16   1.076429 S    
C43   H25   1.081203 S    
C20   C22   1.385804 A    
C33   C38   1.397125 A    
C41   C42   1.405809 A    
N4    Ni4   1.824263 S    
C4    N4    1.329397 A    
C22   C26   1.477988 S    
C10   C55   1.472953 S    
C62   C66   1.398484 A    
C78   H47   1.110699 S    
C53   H31   1.083725 S    
C13   C21   1.383266 A    
C72   C76   1.405313 A    
C51   C52   1.402102 A    
C5    N5    1.330884 A    
C16   C24   1.395736 A    
C58   C61   1.402651 A    
C41   C46   1.393493 A    
C18   H14   1.077482 S    
C62   C63   1.410608 A    
C4    C12   1.382354 A    
C3    N3    1.340875 A    
C45   C50   1.401587 A    
C7    N7    1.338564 A    
C17   C24   1.396107 A    
C48   H27   1.083694 S    
C36   C37   1.389998 A    
C40   H21   1.079949 S    
N7    Ni4   1.862166 S    
C2    C10   1.384345 A    
N10   Ni2   1.857777 S    
N15   Ni4   1.861986 S    
N10   N16   1.363965 A    
C65   H33   1.080731 S    
C78   H46   1.110856 S    
C28   C29   1.410636 A    
C57   C65   1.405020 A    
C46   C53   1.402148 A    
C77   H45   1.114448 S    
C73   C74   1.404235 A    
N3    N5    1.363966 A    
C35   C36   1.400500 A    
C13   N9    1.332405 A    
C77   H44   1.115278 S    
C14   H10   1.079843 S    
C16   N12   1.341506 A    
C30   C37   1.400686 A    
C47   C48   1.394046 A    
C35   C40   1.386572 A    
C51   C56   1.393627 A    
C75   H39   1.081972 S    
N14   Ni1   1.858109 S    
C49   C50   1.409320 A    
C75   C76   1.398878 A    
C8    N8    1.346183 A    
C25   C26   1.403252 A    
C54   H28   1.080802 S    
C4    H4    1.076330 S    
C27   C28   1.404109 A    
N11   Ni3   1.862164 S    
C45   C46   1.409582 A    
C6    N6    1.345793 A    
C29   C30   1.408289 A    
C44   C47   1.401783 A    
N4    N6    1.363965 A    
C68   C70   1.406571 A    
C8    H8    1.077529 S    
C5    C11   1.385653 A    
N11   N14   1.384510 A    
C12   C39   1.469492 S    
C37   H23   1.083844 S    
C36   H22   1.083852 S    
