data_mof_unit_56741.cif
_audit_creation_date              2012-12-11T14:01:28-0500
_audit_creation_method            fapswitch 2.2
_symmetry_space_group_name_H-M    P1
_symmetry_Int_Tables_number       1
_space_group_crystal_system       triclinic
_cell_length_a                    19.021288
_cell_length_b                    10.978379
_cell_length_c                    18.74094
_cell_angle_alpha                 90.343497
_cell_angle_beta                  89.964962
_cell_angle_gamma                 89.983904
_cell_volume                      3913.46638322

loop_
_atom_site_label
_atom_site_type_symbol
_atom_type_description
_atom_site_fract_x
_atom_site_fract_y
_atom_site_fract_z
_atom_type_partial_charge
C1    C     C_R   0.272418 0.042589 0.853500 0.555229
C2    C     C_R   0.727604 0.042191 0.146512 0.554799
C3    C     C_R   0.772418 0.542589 0.853500 0.555229
C4    C     C_R   0.227604 0.542191 0.146512 0.554799
C5    C     C_R   0.477891 0.049867 0.075859 -0.088214
C6    C     C_R   0.504087 0.060006 0.929721 -0.081481
C7    C     C_R   0.977891 0.549867 0.075859 -0.088214
C8    C     C_R   0.004087 0.560006 0.929721 -0.081481
C9    C     C_R   0.977125 0.661581 0.040907 -0.127132
C10   C     C_R   0.992411 0.666991 0.968434 -0.125402
C11   C     C_R   0.477125 0.161581 0.040907 -0.127132
C12   C     C_R   0.492411 0.166991 0.968434 -0.125402
C13   C     C_2   0.248812 0.579830 0.920369 -0.113181
C14   C     C_2   0.751096 0.578891 0.079483 -0.113008
C15   C     C_2   0.748812 0.079830 0.920369 -0.113181
C16   C     C_2   0.251096 0.078891 0.079483 -0.113008
C17   C     C_2   0.250275 0.586355 0.077188 -0.106828
C18   C     C_2   0.749842 0.587126 0.923023 -0.106995
C19   C     C_2   0.750275 0.086355 0.077188 -0.106828
C20   C     C_2   0.249842 0.087126 0.923023 -0.106995
C21   C     C_2   0.294558 0.519996 0.036887 -0.164275
C22   C     C_2   0.704960 0.521375 0.962500 -0.165931
C23   C     C_2   0.794558 0.019996 0.036887 -0.164275
C24   C     C_2   0.204960 0.021375 0.962500 -0.165931
C25   C     C_2   0.303414 0.544942 0.960829 -0.161834
C26   C     C_2   0.696312 0.545263 0.038770 -0.161729
C27   C     C_2   0.803414 0.044942 0.960829 -0.161834
C28   C     C_2   0.196312 0.045263 0.038770 -0.161729
C29   C     C_2   0.486055 0.827542 0.571524 -0.099433
C30   C     C_2   0.488625 0.840094 0.416010 -0.132459
C31   C     C_2   0.986055 0.327542 0.571524 -0.099432
C32   C     C_2   0.988624 0.340094 0.416010 -0.132459
C33   C     C_2   0.466174 0.743202 0.451583 -0.170970
C34   C     C_2   0.451774 0.750387 0.527442 -0.153465
C35   C     C_2   0.966174 0.243202 0.451583 -0.170970
C36   C     C_2   0.951774 0.250388 0.527442 -0.153465
C37   C     C_2   0.245972 0.561993 0.583613 -0.150455
C38   C     C_2   0.754677 0.563006 0.416026 -0.148036
C39   C     C_2   0.745972 0.061993 0.583613 -0.150455
C40   C     C_2   0.254677 0.063006 0.416026 -0.148035
C41   C     C_2   0.236843 0.568119 0.428512 -0.099741
C42   C     C_2   0.762654 0.567501 0.571698 -0.103212
C43   C     C_2   0.736843 0.068119 0.428512 -0.099741
C44   C     C_2   0.262654 0.067501 0.571698 -0.103212
C45   C     C_R   0.472083 0.822842 0.852702 0.537743
C46   C     C_R   0.528823 0.821658 0.146645 0.533716
C47   C     C_R   0.972083 0.322842 0.852702 0.537743
C48   C     C_R   0.028823 0.321658 0.146645 0.533716
C49   C     C_2   0.183125 0.539918 0.472399 -0.096490
C50   C     C_2   0.816951 0.542943 0.527668 -0.098583
C51   C     C_2   0.683125 0.039919 0.472399 -0.096490
C52   C     C_2   0.316951 0.042944 0.527668 -0.098584
C53   C     C_2   0.184199 0.564815 0.549085 -0.022684
C54   C     C_2   0.815921 0.569683 0.451467 -0.022223
C55   C     C_2   0.684199 0.064815 0.549085 -0.022684
C56   C     C_2   0.315921 0.069683 0.451467 -0.022223
C57   C     C_R   0.260886 0.636224 0.851369 0.548932
C58   C     C_R   0.739152 0.635716 0.148675 0.547357
C59   C     C_R   0.760886 0.136224 0.851369 0.548932
C60   C     C_R   0.239152 0.135716 0.148675 0.547357
C61   C     C_R   0.273584 0.042907 0.646471 0.544570
C62   C     C_R   0.726382 0.043384 0.353557 0.544145
C63   C     C_R   0.773584 0.542907 0.646471 0.544569
C64   C     C_R   0.226382 0.543384 0.353557 0.544145
C65   C     C_R   0.468078 0.822927 0.646236 0.539791
C66   C     C_R   0.527796 0.824751 0.350682 0.543278
C67   C     C_R   0.968078 0.322927 0.646236 0.539791
C68   C     C_R   0.027796 0.324751 0.350682 0.543278
C69   C     C_R   0.259619 0.632851 0.647774 0.531952
C70   C     C_R   0.740472 0.633241 0.352166 0.537518
C71   C     C_R   0.759619 0.132851 0.647774 0.531952
C72   C     C_R   0.240472 0.133241 0.352166 0.537518
C73   C     C_R   0.503004 0.828237 0.073384 0.003203
C74   C     C_R   0.502293 0.833419 0.924204 -0.002319
C75   C     C_R   0.003004 0.328237 0.073384 0.003203
C76   C     C_R   0.002293 0.333419 0.924204 -0.002319
C77   C     C_R   0.493548 0.941063 0.038317 0.024810
C78   C     C_R   0.500244 0.944979 0.963161 0.025863
C79   C     C_R   0.993548 0.441063 0.038317 0.024810
C80   C     C_R   0.000244 0.444979 0.963161 0.025863
C81   C     C_R   0.510953 0.723611 0.960336 -0.153904
C82   C     C_R   0.509472 0.720683 0.033239 -0.149504
C83   C     C_R   0.010953 0.223611 0.960336 -0.153904
C84   C     C_R   0.009473 0.220683 0.033239 -0.149504
Cr1   Cr    Cr6+3 0.230530 0.836340 0.748870 1.029307
Cr2   Cr    Cr6+3 0.769470 0.836340 0.251130 1.026205
Cr3   Cr    Cr6+3 0.730530 0.336340 0.748870 1.029307
Cr4   Cr    Cr6+3 0.269470 0.336340 0.251130 1.026205
Cr5   Cr    Cr6+3 0.387420 0.989430 0.750820 1.033900
Cr6   Cr    Cr6+3 0.612580 0.989430 0.249180 1.033463
Cr7   Cr    Cr6+3 0.887420 0.489430 0.750820 1.033900
Cr8   Cr    Cr6+3 0.112580 0.489430 0.249180 1.033463
Cr9   Cr    Cr6+3 0.385640 0.677860 0.749230 1.026715
Cr10  Cr    Cr6+3 0.614360 0.677860 0.250770 1.028360
Cr11  Cr    Cr6+3 0.885640 0.177860 0.749230 1.026715
Cr12  Cr    Cr6+3 0.114360 0.177860 0.250770 1.028359
H1    H     H_    0.514623 0.637254 0.932222 0.137798
H2    H     H_    0.516571 0.632606 0.057998 0.137206
H3    H     H_    0.014623 0.137254 0.932222 0.137798
H4    H     H_    0.016570 0.132606 0.057998 0.137206
H5    H     H_    0.134283 0.504084 0.450473 0.174544
H6    H     H_    0.866426 0.509700 0.549271 0.183975
H7    H     H_    0.634283 0.004085 0.450473 0.174544
H8    H     H_    0.366426 0.009702 0.549271 0.183975
H9    H     H_    0.286873 0.603391 0.447267 0.082572
H10   H     H_    0.712007 0.599918 0.553112 0.093056
H11   H     H_    0.786873 0.103390 0.447268 0.082571
H12   H     H_    0.212006 0.099918 0.553112 0.093056
H13   H     H_    0.291844 0.522019 0.557939 0.108417
H14   H     H_    0.709432 0.519823 0.440725 0.115584
H15   H     H_    0.791844 0.022019 0.557939 0.108416
H16   H     H_    0.209432 0.019823 0.440725 0.115584
H17   H     H_    0.464801 0.049373 0.132021 0.126347
H18   H     H_    0.517778 0.068775 0.874000 0.130370
H19   H     H_    0.964801 0.549373 0.132021 0.126347
H20   H     H_    0.017778 0.568775 0.874000 0.130370
H21   H     H_    0.965814 0.744386 0.070404 0.110861
H22   H     H_    0.994421 0.754254 0.941913 0.107453
H23   H     H_    0.465814 0.244386 0.070404 0.110861
H24   H     H_    0.494422 0.254253 0.941913 0.107454
H25   H     H_    0.323747 0.444132 0.059157 0.152324
H26   H     H_    0.675205 0.446466 0.939410 0.153451
H27   H     H_    0.823747 0.944132 0.059157 0.152324
H28   H     H_    0.175205 0.946466 0.939410 0.153451
H29   H     H_    0.356112 0.537799 0.938805 0.154963
H30   H     H_    0.643627 0.538574 0.060766 0.150465
H31   H     H_    0.856112 0.037799 0.938805 0.154963
H32   H     H_    0.143627 0.038573 0.060766 0.150465
H33   H     H_    0.222823 0.664171 0.054865 0.113252
H34   H     H_    0.777795 0.664177 0.946127 0.113301
H35   H     H_    0.722823 0.164171 0.054865 0.113252
H36   H     H_    0.277795 0.164177 0.946127 0.113301
H37   H     H_    0.195958 0.583282 0.942410 0.111767
H38   H     H_    0.803963 0.581753 0.057468 0.113585
H39   H     H_    0.695958 0.083282 0.942410 0.111767
H40   H     H_    0.303963 0.081753 0.057468 0.113585
H41   H     H_    0.463623 0.653845 0.426453 0.169066
H42   H     H_    0.415166 0.683290 0.548239 0.161183
H43   H     H_    0.963623 0.153845 0.426453 0.169066
H44   H     H_    0.915165 0.183291 0.548239 0.161183
H45   H     H_    0.487612 0.930048 0.440139 0.160346
H46   H     H_    0.522926 0.895213 0.552647 0.129407
H47   H     H_    0.987612 0.430048 0.440139 0.160348
H48   H     H_    0.022926 0.395212 0.552647 0.129409
O1    O     O_R   0.215090 0.709860 0.828130 -0.525368
O2    O     O_R   0.784910 0.709860 0.171870 -0.526695
O3    O     O_R   0.715090 0.209860 0.828130 -0.525368
O4    O     O_R   0.284910 0.209860 0.171870 -0.526695
O5    O     O_R   0.445660 0.919250 0.676780 -0.493986
O6    O     O_R   0.554340 0.919250 0.323220 -0.502158
O7    O     O_R   0.945660 0.419250 0.676780 -0.493985
O8    O     O_R   0.054340 0.419250 0.323220 -0.502158
O9    O     O_R   0.456260 0.718170 0.670000 -0.508050
O10   O     O_R   0.543740 0.718170 0.330000 -0.504290
O11   O     O_R   0.956260 0.218170 0.670000 -0.508050
O12   O     O_R   0.043740 0.218170 0.330000 -0.504290
O13   O     O_R   0.320940 0.626760 0.674370 -0.500078
O14   O     O_R   0.679060 0.626760 0.325630 -0.490531
O15   O     O_R   0.820940 0.126760 0.674370 -0.500078
O16   O     O_R   0.179060 0.126760 0.325630 -0.490531
O17   O     O_3   0.334530 0.834540 0.749640 -0.251524
O18   O     O_3   0.665470 0.834540 0.250360 -0.249435
O19   O     O_3   0.834530 0.334540 0.749640 -0.251524
O20   O     O_3   0.165470 0.334540 0.250360 -0.249435
O21   O     O_R   0.236990 0.958390 0.823710 -0.499026
O22   O     O_R   0.763010 0.958390 0.176290 -0.499421
O23   O     O_R   0.736990 0.458390 0.823710 -0.499026
O24   O     O_R   0.263010 0.458390 0.176290 -0.499421
O25   O     O_R   0.332380 0.074750 0.830850 -0.511106
O26   O     O_R   0.667620 0.074750 0.169150 -0.509501
O27   O     O_R   0.832380 0.574750 0.830850 -0.511107
O28   O     O_R   0.167620 0.574750 0.169150 -0.509501
O29   O     O_R   0.445800 0.917770 0.825070 -0.509791
O30   O     O_R   0.554200 0.917770 0.174930 -0.506914
O31   O     O_R   0.945800 0.417770 0.825070 -0.509791
O32   O     O_R   0.054200 0.417770 0.174930 -0.506914
O33   O     O_R   0.456410 0.716580 0.829970 -0.521433
O34   O     O_R   0.543590 0.716580 0.170030 -0.526056
O35   O     O_R   0.956410 0.216580 0.829970 -0.521433
O36   O     O_R   0.043590 0.216580 0.170030 -0.526056
O37   O     O_R   0.321080 0.625290 0.822650 -0.495317
O38   O     O_R   0.678920 0.625290 0.177350 -0.496806
O39   O     O_R   0.821080 0.125290 0.822650 -0.495317
O40   O     O_R   0.178920 0.125290 0.177350 -0.496806
O41   O     O_R   0.214930 0.711450 0.668160 -0.510153
O42   O     O_R   0.785070 0.711450 0.331840 -0.513971
O43   O     O_R   0.714930 0.211450 0.668160 -0.510152
O44   O     O_R   0.285070 0.211450 0.331840 -0.513970
O45   O     O_R   0.236850 0.959870 0.675420 -0.487946
O46   O     O_R   0.763150 0.959870 0.324580 -0.489352
O47   O     O_R   0.736850 0.459870 0.675420 -0.487946
O48   O     O_R   0.263150 0.459870 0.324580 -0.489352
O49   O     O_R   0.332230 0.076350 0.670880 -0.499845
O50   O     O_R   0.667770 0.076350 0.329120 -0.500058
O51   O     O_R   0.832230 0.576350 0.670880 -0.499844
O52   O     O_R   0.167770 0.576350 0.329120 -0.500058
C85   C     C_2   0.116501 0.593329 0.585266 0.250277
H49   H     H_    0.111215 0.583578 0.642603 0.119668
O53   O     O_2   0.065551 0.626885 0.550984 -0.470462
C86   C     C_2   0.883240 0.605323 0.417090 0.255209
H50   H     H_    0.890823 0.593183 0.360095 0.117719
O54   O     O_2   0.931282 0.647788 0.452546 -0.466265
C87   C     C_2   0.616501 0.093329 0.585267 0.250277
H51   H     H_    0.611215 0.083575 0.642603 0.119666
O55   O     O_2   0.565552 0.126889 0.550984 -0.470460
C88   C     C_2   0.383240 0.105323 0.417089 0.255210
H52   H     H_    0.390824 0.093180 0.360095 0.117718
O56   O     O_2   0.431282 0.147789 0.452545 -0.466265

loop_
_geom_bond_atom_site_label_1
_geom_bond_atom_site_label_2
_ccdc_geom_bond_type
C16   C28   D    
C69   O41   A    
Cr3   O19   S    
C87   H51   S    
C38   C70   S    
C60   O40   A    
C37   C69   S    
C9    H21   S    
C46   O34   A    
C19   C23   D    
C35   C36   S    
Cr2   O22   S    
Cr5   O29   S    
Cr6   O6    S    
C11   H23   S    
Cr10  O38   S    
C57   O37   A    
C81   C82   A    
C3    O23   A    
C40   H16   S    
C77   C78   A    
Cr8   O32   S    
C31   C67   S    
C87   O55   D    
C50   C54   S    
C30   H45   S    
C41   H9    S    
Cr6   O18   S    
Cr11  O15   S    
C7    C79   A    
Cr1   O1    S    
C47   C76   S    
C66   O6    A    
C45   O29   A    
C31   C36   D    
C26   H30   S    
C88   O56   D    
C75   C84   A    
C6    C78   A    
C15   H39   S    
C51   H7    S    
C24   H28   S    
C54   C86   S    
C3    C18   S    
C67   O11   A    
C16   C60   S    
C7    H19   S    
C31   H48   S    
C85   O53   D    
C25   H29   S    
Cr1   O17   S    
C6    H18   S    
C32   H47   S    
C65   O9    A    
C35   H43   S    
C12   H24   S    
C27   H31   S    
C41   C49   D    
C39   C55   D    
C20   C24   D    
C33   H41   S    
C86   H50   S    
C40   C56   D    
Cr6   O50   S    
Cr8   O8    S    
C69   O13   A    
C46   O30   A    
Cr2   O18   S    
Cr9   O17   S    
C38   H14   S    
C56   C88   S    
C4    O28   A    
C9    C10   A    
Cr10  O18   S    
C37   H13   S    
C45   O33   A    
C32   C68   S    
C37   C53   D    
Cr8   O20   S    
Cr5   O5    S    
Cr5   O49   S    
Cr10  O14   S    
Cr10  O34   S    
C61   O45   A    
C82   H2    S    
C48   C75   S    
Cr7   O19   S    
Cr9   O37   S    
Cr12  O40   S    
Cr2   O2    S    
C76   C83   A    
Cr5   O17   S    
C64   O48   A    
C22   H26   S    
C44   H12   S    
C19   H35   S    
C14   C58   S    
Cr3   O23   S    
Cr2   O46   S    
C67   O7    A    
C84   H4    S    
C32   C35   D    
C76   C80   A    
C62   O46   A    
C21   C25   S    
C66   O10   A    
Cr9   O33   S    
C88   H52   S    
Cr3   O43   S    
C14   H38   S    
C51   C55   S    
Cr4   O24   S    
Cr4   O20   S    
C17   H33   S    
C29   C34   D    
C34   H42   S    
Cr12  O36   S    
Cr12  O20   S    
C45   C74   S    
C70   O14   A    
C20   H36   S    
C47   O35   A    
C68   O8    A    
Cr11  O19   S    
C10   H22   S    
Cr7   O51   S    
C57   O1    A    
C15   C27   D    
C83   C84   A    
C38   C54   D    
C1    O21   A    
Cr10  O10   S    
C55   C87   S    
Cr6   O26   S    
C33   C34   S    
Cr4   O4    S    
Cr7   O31   S    
C43   H11   S    
C14   C26   D    
Cr9   O13   S    
C36   H44   S    
C30   C66   S    
C22   C26   S    
Cr3   O3    S    
C42   C50   D    
C29   C65   S    
C4    C17   S    
Cr11  O35   S    
Cr12  O16   S    
C2    O26   A    
C50   H6    S    
C23   C27   S    
C3    O27   A    
C5    C11   A    
C72   O44   A    
C63   O51   A    
C18   H34   S    
C75   C79   A    
C62   O50   A    
C74   C81   A    
C5    C77   A    
C16   H40   S    
C6    C12   A    
C61   O49   A    
C73   C82   A    
C48   O36   A    
Cr3   O47   S    
Cr4   O48   S    
C2    O22   A    
C52   H8    S    
C1    C20   S    
C15   C59   S    
C40   C72   S    
C30   C33   D    
C5    H17   S    
C2    C19   S    
C18   C22   D    
C4    O24   A    
C13   H37   S    
C8    C10   A    
C24   C28   S    
C71   O43   A    
C68   O12   A    
C44   C52   D    
C23   H27   S    
C11   C12   A    
C58   O2    A    
Cr2   O42   S    
C44   C61   S    
C71   O15   A    
Cr6   O30   S    
C72   O16   A    
Cr7   O27   S    
C58   O38   A    
C53   C85   S    
Cr7   O7    S    
Cr9   O9    S    
C70   O42   A    
Cr1   O21   S    
Cr1   O41   S    
C28   H32   S    
C49   H5    S    
C39   H15   S    
C43   C51   D    
Cr12  O12   S    
C81   H1    S    
C13   C25   D    
Cr8   O28   S    
Cr8   O52   S    
C29   H46   S    
C64   O52   A    
C1    O25   A    
Cr11  O11   S    
Cr11  O39   S    
C85   H49   S    
C17   C21   D    
C49   C53   S    
C8    H20   S    
Cr5   O25   S    
C79   C80   A    
C42   H10   S    
C7    C9    A    
Cr4   O44   S    
C13   C57   S    
C73   C77   A    
C86   O54   D    
C74   C78   A    
C8    C80   A    
C65   O5    A    
C39   C71   S    
C59   O39   A    
C21   H25   S    
C83   H3    S    
C60   O4    A    
C41   C64   S    
C63   O47   A    
Cr1   O45   S    
C42   C63   S    
C46   C73   S    
C47   O31   A    
C52   C56   S    
C43   C62   S    
C48   O32   A    
C59   O3    A    
