data_mof_unit_36407.cif
_audit_creation_date              2012-10-26T20:57:19-0400
_audit_creation_method            fapswitch 2.2
_symmetry_space_group_name_H-M    P1
_symmetry_Int_Tables_number       1
_space_group_crystal_system       triclinic
_cell_length_a                    14.768321
_cell_length_b                    14.439864
_cell_length_c                    15.872035
_cell_angle_alpha                 75.014285
_cell_angle_beta                  103.101588
_cell_angle_gamma                 115.14251
_cell_volume                      2933.32368959

loop_
_atom_site_label
_atom_site_type_symbol
_atom_type_description
_atom_site_fract_x
_atom_site_fract_y
_atom_site_fract_z
_atom_type_partial_charge
C1    C     C_R   0.880937 0.311010 0.507917 0.558778
C2    C     C_R   0.359981 0.925717 0.498561 0.030193
C3    C     C_R   0.674423 0.992924 0.541590 0.044162
C4    C     C_R   0.325562 0.007072 0.458480 0.044171
C5    C     C_R   0.534955 0.052218 0.490727 0.023746
C6    C     C_R   0.465033 0.947780 0.509340 0.023768
C7    C     C_R   0.501798 0.868050 0.535327 -0.058024
C8    C     C_R   0.498190 0.131948 0.464747 -0.058069
C9    C     C_R   0.604129 0.889639 0.558580 0.104156
C10   C     C_R   0.395856 0.110359 0.441503 0.104144
C11   C     C_R   0.704999 0.660439 0.342481 0.093844
C12   C     C_R   0.119061 0.688987 0.492092 0.558852
C13   C     C_R   0.295021 0.339604 0.657551 0.093879
C14   C     C_R   0.789753 0.633532 0.368323 0.263296
C15   C     C_R   0.210254 0.366486 0.631689 0.263304
C16   C     C_R   0.000497 0.500737 0.659830 0.562651
C17   C     C_R   0.999498 0.499257 0.340170 0.562721
C18   C     C_R   0.715414 0.510310 0.490351 0.022948
C19   C     C_R   0.284590 0.489692 0.509653 0.022926
C20   C     C_R   0.628791 0.536843 0.467594 -0.025818
C21   C     C_R   0.371222 0.463173 0.532426 -0.025842
C22   C     C_R   0.631519 0.622792 0.399143 0.040429
C23   C     C_R   0.778139 0.015259 0.556671 -0.117837
C24   C     C_R   0.368504 0.377242 0.600894 0.040382
C25   C     C_R   0.539768 0.481270 0.510086 0.030513
C26   C     C_R   0.460249 0.518750 0.489940 0.030527
C27   C     C_R   0.475401 0.614577 0.432900 -0.092141
C28   C     C_R   0.524624 0.385454 0.567143 -0.091935
C29   C     C_R   0.559908 0.667212 0.389231 0.119757
C30   C     C_R   0.440128 0.332832 0.610827 0.120001
C31   C     C_3   0.989766 0.404157 0.045492 -0.013257
C32   C     C_3   0.010069 0.595567 0.954540 -0.013213
C33   C     C_3   0.913096 0.429432 0.968244 -0.005445
C34   C     C_R   0.221843 0.984731 0.443396 -0.117847
C35   C     C_3   0.086735 0.570279 0.031786 -0.005418
C36   C     C_1   0.001479 0.502562 0.748793 -0.033660
C37   C     C_1   0.998469 0.497355 0.251215 -0.033579
C38   C     C_3   0.077419 0.479074 0.991741 -0.004162
C39   C     C_3   0.922411 0.520646 0.008283 -0.004172
C40   C     C_3   0.000773 0.504209 0.914870 -0.005472
C41   C     C_3   0.999056 0.495515 0.085156 -0.005538
C42   C     C_1   0.001488 0.503974 0.823778 -0.091624
C43   C     C_1   0.998398 0.495853 0.176238 -0.091610
C44   C     C_R   0.814504 0.199614 0.506445 -0.004302
C45   C     C_R   0.849048 0.117330 0.537632 -0.030171
C46   C     C_R   0.185490 0.800377 0.493586 -0.004256
C47   C     C_R   0.810064 0.349799 0.940975 0.028133
C48   C     C_R   0.749908 0.281794 0.006304 -0.076213
C49   C     C_R   0.653341 0.209463 0.983327 -0.096691
C50   C     C_R   0.615246 0.205082 0.894884 -0.069658
C51   C     C_R   0.673465 0.273582 0.829376 -0.088198
C52   C     C_R   0.770066 0.346021 0.852105 -0.098769
C53   C     C_R   0.189798 0.649771 0.059178 0.028210
C54   C     C_R   0.249800 0.718306 0.993903 -0.076418
C55   C     C_R   0.346438 0.790430 0.017020 -0.096845
C56   C     C_R   0.150940 0.882656 0.462425 -0.030153
C57   C     C_R   0.384778 0.794027 0.105542 -0.069636
C58   C     C_R   0.326744 0.724937 0.170987 -0.088079
C59   C     C_R   0.230070 0.652713 0.148117 -0.098596
C60   C     C_R   0.978446 0.293742 0.087147 0.019377
C61   C     C_R   0.967313 0.225517 0.032875 -0.075334
C62   C     C_R   0.956315 0.122804 0.068971 -0.088435
C63   C     C_R   0.956953 0.087389 0.159616 -0.084026
C64   C     C_R   0.969170 0.154902 0.214254 -0.107311
C65   C     C_R   0.979701 0.257562 0.178371 -0.100656
C66   C     C_R   0.021333 0.705975 0.912912 0.019257
C67   C     C_R   0.712189 0.174509 0.472976 0.045909
C68   C     C_R   0.032502 0.774177 0.967221 -0.075385
C69   C     C_R   0.043456 0.876884 0.931158 -0.088452
C70   C     C_R   0.042736 0.912317 0.840510 -0.084057
C71   C     C_R   0.030480 0.844828 0.785835 -0.107339
C72   C     C_R   0.019987 0.742171 0.821684 -0.100704
C73   C     C_R   0.829703 0.541302 0.007514 0.027504
C74   C     C_R   0.781137 0.576676 0.926578 -0.074585
C75   C     C_R   0.693790 0.593503 0.923130 -0.091033
C76   C     C_R   0.653032 0.573731 0.000241 -0.086292
C77   C     C_R   0.699119 0.536221 0.080719 -0.074272
C78   C     C_R   0.287799 0.825480 0.527068 0.045901
C79   C     C_R   0.786703 0.519637 0.084475 -0.075925
C80   C     C_R   0.170134 0.458455 0.992459 0.027614
C81   C     C_R   0.218595 0.422817 0.073342 -0.074737
C82   C     C_R   0.305954 0.406036 0.076735 -0.091075
C83   C     C_R   0.346837 0.426127 0.999628 -0.086225
C84   C     C_R   0.300870 0.463920 0.919212 -0.074229
C85   C     C_R   0.213277 0.480466 0.915511 -0.075686
C86   C     C_R   0.045489 0.868608 0.463813 0.068089
C87   C     C_R   0.996520 0.921311 0.394776 -0.081354
C88   C     C_R   0.899020 0.911286 0.398275 -0.092278
C89   C     C_R   0.640006 0.074278 0.501500 0.030165
C90   C     C_R   0.850366 0.850349 0.471209 -0.094137
C91   C     C_R   0.899370 0.800593 0.541569 -0.115826
C92   C     C_R   0.996919 0.810609 0.538502 -0.057113
C93   C     C_R   0.954501 0.131355 0.536280 0.068095
C94   C     C_R   0.003102 0.189332 0.461603 -0.057098
C95   C     C_R   0.100646 0.199306 0.458567 -0.115834
C96   C     C_R   0.149612 0.149529 0.528944 -0.094134
C97   C     C_R   0.100923 0.088608 0.601864 -0.092242
C98   C     C_R   0.003433 0.078631 0.605335 -0.081350
Cu1   Cu    Cu3+1 0.081740 0.475690 0.522610 0.998429
Cu2   Cu    Cu3+1 0.918260 0.524310 0.477390 0.998426
H1    H     H_    0.278303 0.548105 0.453152 0.126333
H2    H     H_    0.607850 0.157163 0.034123 0.134647
H3    H     H_    0.540336 0.149265 0.877122 0.162421
H4    H     H_    0.643542 0.271276 0.760766 0.143891
H5    H     H_    0.811248 0.399771 0.799743 0.118136
H6    H     H_    0.221971 0.715489 0.924960 0.130719
H7    H     H_    0.391804 0.843157 0.966267 0.134539
H8    H     H_    0.459749 0.849671 0.123408 0.162762
H9    H     H_    0.356878 0.726589 0.239650 0.143783
H10   H     H_    0.189061 0.598413 0.200405 0.117977
H11   H     H_    0.966877 0.251955 0.962441 0.133390
H12   H     H_    0.721701 0.451888 0.546843 0.126365
H13   H     H_    0.947329 0.070682 0.026642 0.126197
H14   H     H_    0.948130 0.007732 0.187379 0.137004
H15   H     H_    0.970643 0.127885 0.284542 0.103884
H16   H     H_    0.989328 0.307597 0.222419 0.113605
H17   H     H_    0.033005 0.747727 0.037659 0.133453
H18   H     H_    0.052471 0.928987 0.973516 0.126198
H19   H     H_    0.051526 0.991970 0.812773 0.136891
H20   H     H_    0.028949 0.871866 0.715545 0.103889
H21   H     H_    0.010318 0.692151 0.777608 0.113643
H22   H     H_    0.810514 0.590578 0.865873 0.123831
H23   H     H_    0.424850 0.653409 0.424847 0.116119
H24   H     H_    0.657354 0.621250 0.860550 0.153540
H25   H     H_    0.585229 0.586487 0.997540 0.134169
H26   H     H_    0.666450 0.519020 0.140281 0.162098
H27   H     H_    0.818137 0.487552 0.147285 0.145483
H28   H     H_    0.189134 0.408681 0.134051 0.123741
H29   H     H_    0.342305 0.378080 0.139273 0.153496
H30   H     H_    0.414648 0.413403 0.002288 0.134204
H31   H     H_    0.333639 0.481374 0.859659 0.162020
H32   H     H_    0.181949 0.512800 0.852762 0.145434
H33   H     H_    0.033034 0.968334 0.337482 0.112677
H34   H     H_    0.575180 0.346625 0.575211 0.116150
H35   H     H_    0.860611 0.949808 0.344110 0.149315
H36   H     H_    0.774669 0.841933 0.473067 0.174206
H37   H     H_    0.861960 0.754465 0.598619 0.136117
H38   H     H_    0.034569 0.773055 0.594368 0.106852
H39   H     H_    0.965480 0.226897 0.405722 0.106845
H40   H     H_    0.138078 0.245416 0.401524 0.136140
H41   H     H_    0.225305 0.157910 0.527109 0.174178
H42   H     H_    0.139295 0.050057 0.656042 0.149271
H43   H     H_    0.966894 0.031624 0.662620 0.112654
H44   H     H_    0.804706 0.952864 0.580358 0.141449
H45   H     H_    0.195269 0.047123 0.419717 0.141439
H46   H     H_    0.451431 0.787403 0.538588 0.169011
H47   H     H_    0.548559 0.212594 0.461486 0.168981
H48   H     H_    0.777585 0.285174 0.075179 0.130669
I1    I     I_    0.091511 0.283648 0.713030 -0.322804
I2    I     I_    0.415072 0.173694 0.666212 -0.429424
I3    I     I_    0.908493 0.716363 0.286979 -0.322856
I4    I     I_    0.670302 0.722982 0.206105 -0.361778
I5    I     I_    0.329740 0.277148 0.793947 -0.361379
I6    I     I_    0.643059 0.759311 0.620470 -0.473132
I7    I     I_    0.356921 0.240689 0.379642 -0.473252
I8    I     I_    0.316236 0.735282 0.653953 -0.378692
I9    I     I_    0.683725 0.264691 0.346091 -0.378622
I10   I     I_    0.585019 0.826382 0.333930 -0.429505
N1    N     N_R   0.795440 0.560790 0.443380 -0.234950
N2    N     N_R   0.204560 0.439210 0.556620 -0.234960
O1    O     O_R   0.977900 0.338120 0.529810 -0.475586
O2    O     O_R   0.022100 0.661880 0.470190 -0.475562
O3    O     O_R   0.839850 0.379180 0.491620 -0.479154
O4    O     O_R   0.160150 0.620820 0.508380 -0.479125
O5    O     O_R   0.069010 0.479460 0.640020 -0.451674
O6    O     O_R   0.930990 0.520540 0.359980 -0.451692
O7    O     O_R   0.930960 0.520530 0.601820 -0.520078
O8    O     O_R   0.069040 0.479470 0.398180 -0.520082

loop_
_geom_bond_atom_site_label_1
_geom_bond_atom_site_label_2
_ccdc_geom_bond_type
C66   C68   A    
C87   C88   A    
C34   C56   A    
C93   C94   A    
C23   C45   A    
C22   C29   A    
C98   H43   S    
C35   C53   S    
C58   H9    S    
C73   C74   A    
C87   H33   S    
C36   C42   T    
C95   C96   A    
C21   C26   A    
C45   C93   S    
C80   C85   A    
C97   C98   A    
C53   C59   A    
C39   C41   S    
C53   C54   A    
C44   C45   A    
C25   C28   A    
C95   H40   S    
C33   C39   S    
C71   H20   S    
Cu2   O7    S    
C28   H34   S    
C19   N2    A    
C19   C21   A    
C18   H12   S    
C17   O6    A    
C85   H32   S    
C5    C6    A    
C72   H21   S    
C34   H45   S    
C30   I2    S    
C27   C29   A    
C20   C25   A    
C16   O7    A    
C69   H18   S    
C67   C89   A    
C59   H10   S    
Cu2   O6    S    
C32   C39   S    
C18   N1    A    
C96   H41   S    
C91   H37   S    
C63   H14   S    
C94   H39   S    
C66   C72   A    
C83   C84   A    
C68   C69   A    
C14   I3    S    
C31   C33   S    
C70   C71   A    
C51   H4    S    
C70   H19   S    
C61   C62   A    
C91   C92   A    
C7    H46   S    
C40   C42   S    
C1    O1    A    
C50   H3    S    
C64   H15   S    
Cu1   O1    S    
Cu1   N2    S    
C76   H25   S    
C41   C43   S    
C2    C6    A    
C81   C82   A    
C77   C79   A    
C4    C34   A    
C33   C40   S    
C74   C75   A    
C54   H6    S    
C75   H24   S    
C32   C35   S    
C35   C38   S    
C76   C77   A    
C83   H30   S    
C12   C46   S    
C49   H2    S    
C46   C78   A    
C27   H23   S    
C86   C87   A    
C3    C23   A    
C63   C64   A    
C51   C52   A    
C13   C24   A    
C55   H7    S    
C60   C61   A    
C31   C60   S    
C37   C43   T    
C47   C52   A    
C2    C4    A    
C75   C76   A    
C62   C63   A    
C3    C9    A    
C68   H17   S    
C12   O4    A    
C90   H36   S    
C60   C65   A    
C1    C44   S    
C56   C86   S    
C47   C48   A    
C16   O5    A    
C96   C97   A    
C50   C51   A    
C73   C79   A    
C94   C95   A    
C67   I9    S    
C17   C37   S    
C84   C85   A    
C82   H29   S    
C13   I5    S    
C29   I10   S    
C62   H13   S    
C39   C73   S    
C48   C49   A    
C74   H22   S    
C88   C90   A    
C9    I6    S    
C82   C83   A    
C55   C57   A    
C81   H28   S    
C26   C27   A    
C33   C47   S    
C65   H16   S    
C23   H44   S    
C58   C59   A    
C8    H47   S    
C4    C10   A    
C61   H11   S    
C15   I1    S    
C2    C78   A    
C32   C66   S    
Cu1   O8    S    
C7    C9    A    
C79   H27   S    
C54   C55   A    
C31   C41   S    
C88   H35   S    
C20   C22   A    
C80   C81   A    
C17   O8    A    
C10   I7    S    
C52   H5    S    
C5    C8    A    
C31   C38   S    
C6    C7    A    
C92   H38   S    
C84   H31   S    
Cu1   Cu2   S    
C14   N1    A    
C3    C89   A    
C64   C65   A    
C13   C15   A    
C25   C26   A    
C71   C72   A    
C86   C92   A    
C16   C36   S    
C38   C40   S    
C19   H1    S    
Cu2   N1    S    
C78   I8    S    
C57   C58   A    
C38   C80   S    
C48   H48   S    
C28   C30   A    
C11   C14   A    
Cu2   O3    S    
C18   C20   A    
C32   C40   S    
C69   C70   A    
C35   C41   S    
C24   C30   A    
C97   H42   S    
C12   O2    A    
Cu1   O4    S    
C11   I4    S    
C15   N2    A    
C57   H8    S    
C1    O3    A    
C11   C22   A    
C8    C10   A    
C49   C50   A    
C21   C24   A    
C46   C56   A    
C44   C67   A    
Cu2   O2    S    
C93   C98   A    
C5    C89   A    
C77   H26   S    
C90   C91   A    
Cu1   O5    S    
