data_mof_unit_22165.cif
_audit_creation_date              2013-03-05T15:53:06-0500
_audit_creation_method            fapswitch 2.2
_symmetry_space_group_name_H-M    P1
_symmetry_Int_Tables_number       1
_space_group_crystal_system       triclinic
_cell_length_a                    6.949529
_cell_length_b                    20.479071
_cell_length_c                    24.339399
_cell_angle_alpha                 89.793543
_cell_angle_beta                  90.761467
_cell_angle_gamma                 89.526367
_cell_volume                      3463.53264005

loop_
_atom_site_label
_atom_site_type_symbol
_atom_site_description
_atom_site_fract_x
_atom_site_fract_y
_atom_site_fract_z
_atom_type_partial_charge
O1    O     O_R   0.507320 0.423560 0.460500 -0.591498
O2    O     O_R   0.170760 0.556250 0.437010 -0.570727
O3    O     O_R   0.004030 0.576440 0.539500 -0.590464
C1    C     C_R   0.338445 0.576310 0.421027 0.977762
O4    O     O_R   0.177370 0.422820 0.454110 -0.587666
O5    O     O_R   0.010680 0.442050 0.556720 -0.594894
C2    C     C_R   0.345332 0.398792 0.443130 0.933068
O6    O     O_R   0.500680 0.557950 0.443280 -0.584213
O7    O     O_3   0.340380 0.506470 0.533650 -0.278417
V1    V     V_3+5 0.064130 0.498800 0.493760 1.199957
O8    O     O_R   0.681160 0.443750 0.562990 -0.593596
C3    C     C_R   0.851145 0.423726 0.578882 0.969910
O9    O     O_R   0.674560 0.577180 0.545890 -0.594267
C4    C     C_R   0.842576 0.601506 0.555983 0.963002
V2    V     V_3+5 0.564560 0.501200 0.506240 1.183484
O10   O     O_3   0.838180 0.493530 0.466350 -0.261084
C5    C     C_R   0.974135 0.838108 0.911000 -0.332489
C6    C     C_R   0.844692 0.662757 0.587411 -0.157233
C7    C     C_R   0.022854 0.721048 0.905524 -0.262176
C8    C     C_R   0.001080 0.777145 0.937469 0.304918
C9    C     C_R   0.962313 0.841547 0.852647 0.192367
C10   C     C_R   0.949823 0.782427 0.821350 0.073795
C11   C     C_R   0.999192 0.723213 0.848378 0.073147
C12   C     C_R   0.892210 0.779216 0.764511 0.088967
C13   C     C_R   0.926277 0.721166 0.733340 0.090283
C14   C     C_R   0.997870 0.665593 0.761610 -0.212271
C15   C     C_R   0.025338 0.666059 0.818224 -0.161212
C16   C     C_R   0.782257 0.829400 0.739770 -0.232989
C17   C     C_R   0.733816 0.828197 0.684390 -0.137455
C18   C     C_R   0.785918 0.775371 0.651192 -0.004930
C19   C     C_R   0.877383 0.719722 0.675772 0.093339
C20   C     C_R   0.734592 0.775181 0.594583 0.355531
C21   C     C_R   0.759576 0.718228 0.564005 -0.244267
C22   C     C_R   0.908569 0.663966 0.642222 -0.240065
H1    H     H_    0.069586 0.621114 0.838607 0.138712
H2    H     H_    0.974527 0.619745 0.657774 0.111652
H3    H     H_    0.712370 0.717093 0.521384 0.165444
H4    H     H_    0.647767 0.868373 0.668394 0.180507
H5    H     H_    0.053578 0.674728 0.925633 0.183934
H6    H     H_    0.024578 0.619590 0.741773 0.129322
H7    H     H_    0.724341 0.869211 0.763518 0.166731
C23   C     C_3   0.839117 0.306956 0.768999 -0.228477
C24   C     C_3   0.028706 0.273787 0.788572 0.346925
H8    H     H_    0.780654 0.353849 0.784633 0.143046
H9    H     H_    0.231057 0.269816 0.711189 0.141149
C25   C     C_1   0.959856 0.121678 0.875378 -0.284106
C26   C     C_1   0.864380 0.378403 0.624755 -0.295467
C27   C     C_3   0.737231 0.239622 0.771813 -0.230946
C28   C     C_3   0.928184 0.207393 0.791304 0.132413
C29   C     C_3   0.795324 0.226463 0.711762 0.341228
C30   C     C_3   0.895842 0.292864 0.709012 0.134410
C31   C     C_3   0.984914 0.193304 0.731328 -0.223935
C32   C     C_3   0.086809 0.260633 0.728518 -0.234936
C33   C     C_1   0.946299 0.160117 0.837386 0.016202
C34   C     C_1   0.877818 0.340065 0.662843 0.009333
H10   H     H_    0.043368 0.146402 0.715708 0.149630
H11   H     H_    0.593015 0.230432 0.789163 0.141430
C35   C     C_3   0.515135 0.720878 0.209424 -0.058231
C36   C     C_3   0.319051 0.697868 0.230319 0.354099
H12   H     H_    0.096445 0.783340 0.211013 0.166426
C37   C     C_1   0.347235 0.621567 0.374931 -0.222386
C38   C     C_1   0.476949 0.877882 0.124650 -0.251621
C39   C     C_3   0.579335 0.730552 0.269521 0.339232
C40   C     C_3   0.384777 0.706427 0.290413 -0.113769
C41   C     C_3   0.506925 0.802060 0.268422 -0.269219
C42   C     C_3   0.438091 0.791812 0.208175 0.066317
C43   C     C_3   0.308142 0.777833 0.289029 -0.143358
C44   C     C_3   0.238966 0.768451 0.228249 -0.175899
C45   C     C_1   0.361377 0.659681 0.336736 0.236995
C46   C     C_1   0.462404 0.839257 0.162459 0.096734
H13   H     H_    0.224341 0.801927 0.321841 0.203492
H14   H     H_    0.586948 0.844855 0.284337 0.177566
C47   C     C_R   0.480321 0.164735 0.086369 -0.136128
C48   C     C_R   0.343114 0.338249 0.409848 -0.130874
C49   C     C_R   0.625855 0.271003 0.099167 -0.117510
C50   C     C_R   0.582090 0.218301 0.065006 0.274979
C51   C     C_R   0.407325 0.168776 0.140006 -0.297342
C52   C     C_R   0.435803 0.225121 0.173319 0.139355
C53   C     C_R   0.564905 0.273072 0.154036 -0.057409
C54   C     C_R   0.352600 0.232641 0.226836 -0.007024
C55   C     C_R   0.427484 0.280970 0.263547 -0.030077
C56   C     C_R   0.568630 0.323885 0.243991 -0.240154
C57   C     C_R   0.633126 0.321739 0.190003 0.329637
C58   C     C_R   0.193045 0.195222 0.244383 0.235039
C59   C     C_R   0.153902 0.189911 0.301115 0.197125
C60   C     C_R   0.236145 0.235233 0.338411 0.068009
C61   C     C_R   0.360884 0.284687 0.318966 0.093878
C62   C     C_R   0.184296 0.235099 0.394353 -0.130490
C63   C     C_R   0.236510 0.285784 0.429153 -0.155706
C64   C     C_R   0.409469 0.336948 0.355469 -0.180268
H15   H     H_    0.484792 0.379658 0.341644 0.125493
H16   H     H_    0.182760 0.286049 0.470759 0.115609
H17   H     H_    0.709832 0.310395 0.082287 0.180898
H18   H     H_    0.340076 0.125817 0.156626 0.143465
H19   H     H_    0.637186 0.358945 0.270530 0.169559
H20   H     H_    0.093378 0.197834 0.411471 0.141757
O11   O     O_R   0.323550 0.942140 0.056770 -0.580324
O12   O     O_R   0.647080 0.077200 0.045890 -0.589883
O13   O     O_R   0.813610 0.057920 0.943260 -0.595035
C65   C     C_R   0.479170 0.101726 0.056277 0.927292
O14   O     O_R   0.653470 0.943760 0.063000 -0.570917
O15   O     O_R   0.820050 0.923540 0.960490 -0.574570
C66   C     C_R   0.485795 0.923601 0.078894 1.001082
O16   O     O_R   0.317110 0.076520 0.039540 -0.593549
O17   O     O_3   0.483830 0.993580 0.966380 -0.278979
V3    V     V_3+5 0.760140 0.001190 0.006240 1.199008
O18   O     O_R   0.149510 0.922740 0.954070 -0.600318
C67   C     C_R   0.981169 0.898558 0.943930 1.082148
O19   O     O_R   0.143120 0.056170 0.936970 -0.596394
C68   C     C_R   0.973143 0.076252 0.921135 0.974218
V4    V     V_3+5 0.259690 0.998700 0.993700 1.186138
O20   O     O_3   0.986130 0.006420 0.033620 -0.271027
N1    N     N_R   0.655120 0.832038 0.567556 0.232443
O21   O     O_R   0.519716 0.825776 0.530544 -0.374837
O22   O     O_R   0.739768 0.888175 0.572694 -0.380769
C69   C     C_3   0.162868 0.300929 0.832542 -1.000811
H21   H     H_    0.216905 0.349260 0.819312 0.253669
H22   H     H_    0.083996 0.306450 0.871623 0.260068
H23   H     H_    0.286457 0.267018 0.839097 0.247418
C70   C     C_3   0.661064 0.199231 0.667864 -0.988707
H24   H     H_    0.607110 0.150919 0.681175 0.258446
H25   H     H_    0.537431 0.233118 0.661305 0.244070
H26   H     H_    0.739819 0.193636 0.628774 0.257764
N2    N     N_R   0.215997 0.642061 0.207954 0.260026
O23   O     O_R   0.160587 0.642337 0.156717 -0.334686
O24   O     O_R   0.181111 0.591517 0.238613 -0.318485
C71   C     C_3   0.634388 0.688287 0.165157 -0.619974
H27   H     H_    0.666667 0.636975 0.177109 0.273129
H28   H     H_    0.553038 0.688963 0.125617 0.255377
H29   H     H_    0.771335 0.715042 0.160162 0.243885
N3    N     N_R   0.764053 0.709305 0.292440 0.239127
O25   O     O_R   0.872245 0.750422 0.318835 -0.428060
O26   O     O_R   0.813819 0.648023 0.290594 -0.352598
N4    N     N_R   0.780765 0.366439 0.173979 0.237413
O27   O     O_R   0.769616 0.427430 0.188505 -0.322435
O28   O     O_R   0.942054 0.344198 0.154569 -0.398596
C72   C     C_3   0.014632 0.138624 0.321332 -0.974245
H30   H     H_    0.084507 0.108864 0.354309 0.252010
H31   H     H_    0.883003 0.162657 0.337308 0.252080
H32   H     H_    0.970465 0.103526 0.289133 0.263230
C73   C     C_3   0.653319 0.220341 0.006685 -0.972838
H33   H     H_    0.594785 0.180422 0.980920 0.241761
H34   H     H_    0.607961 0.267081 0.986959 0.250942
H35   H     H_    0.812910 0.217085 0.006831 0.252692
C74   C     C_3   0.040040 0.172937 0.203541 -0.923760
H36   H     H_    0.051481 0.198091 0.163278 0.272298
H37   H     H_    0.047504 0.119269 0.197667 0.229774
H38   H     H_    0.894641 0.186085 0.218682 0.253713
N5    N     N_R   0.017365 0.771730 0.996459 0.234037
O29   O     O_R   0.914996 0.808969 0.028171 -0.410062
O30   O     O_R   0.119783 0.724935 0.018760 -0.357101
C75   C     C_3   0.997038 0.907272 0.825587 -1.024747
H39   H     H_    0.039735 0.902710 0.782061 0.269110
H40   H     H_    0.867556 0.939026 0.829156 0.239952
H41   H     H_    0.120392 0.932067 0.845772 0.249367

loop_
_geom_bond_atom_site_label_1
_geom_bond_atom_site_label_2
_geom_bond_distance
_ccdc_geom_bond_type
C13   C19   1.437848 A    
C47   C65   1.486045 S    
C42   C44   1.552359 S    
C62   H20   1.080681 S    
C4    C6    1.471627 S    
C7    C11   1.398901 A    
C7    C8    1.397825 A    
C51   C52   1.426314 A    
C1    O6    1.296606 A    
C39   C41   1.544547 S    
C55   C56   1.408811 A    
N5    O29   1.301269 A    
C27   H11   1.109967 S    
V3    O20   1.702234 S    
C59   C60   1.418880 A    
C8    N5    1.442538 S    
C72   H31   1.110684 S    
C35   C42   1.544089 S    
C14   C15   1.388666 A    
C29   C70   1.519731 S    
C48   C63   1.393842 A    
C26   C34   1.214816 T    
C16   C17   1.385333 A    
C38   C66   1.454631 S    
C62   C63   1.389565 A    
N5    O30   1.301659 A    
O5    C3    1.297027 A    
C18   C19   1.426106 A    
C24   C69   1.519856 S    
C60   C62   1.413087 A    
C43   H13   1.109459 S    
C28   C33   1.482439 S    
C16   H7    1.079325 S    
C65   O16   1.303757 A    
C5    C8    1.412766 A    
C69   H21   1.109699 S    
C38   C46   1.217086 T    
C9    C75   1.518859 S    
C57   N4    1.437499 S    
O19   V4    1.972507 S    
C55   C61   1.433943 A    
O8    V2    1.972685 S    
C24   C32   1.545571 S    
V4    O20   2.151400 S    
C41   C43   1.560149 S    
C17   H4    1.081445 S    
C29   C31   1.545996 S    
O18   C67   1.295219 A    
O15   C67   1.296900 A    
O1    V2    1.984231 S    
C11   C15   1.395666 A    
C20   N1    1.437954 S    
C18   C20   1.418687 A    
O7    V1    2.146978 S    
C22   H2    1.076828 S    
C70   H26   1.109717 S    
C54   C58   1.422461 A    
C23   C30   1.544962 S    
C50   C73   1.510071 S    
C27   C29   1.545511 S    
O17   V4    1.704354 S    
C70   H24   1.109725 S    
H9    C32   1.109948 S    
C35   C71   1.520843 S    
O14   C66   1.302573 A    
O1    C2    1.304467 A    
C9    C10   1.435350 A    
C23   H8    1.110122 S    
C3    C26   1.450868 S    
C74   H37   1.109735 S    
C70   H25   1.109512 S    
C74   H36   1.109565 S    
C2    C48   1.483557 S    
C72   H32   1.107395 S    
C19   C22   1.422987 A    
V2    O10   2.151362 S    
C43   C44   1.562427 S    
C40   C43   1.552231 S    
C12   C13   1.432320 A    
C73   H35   1.110491 S    
O4    C2    1.294514 A    
C60   C61   1.422388 A    
C24   C28   1.535397 S    
N4    O28   1.301619 A    
C15   H1    1.084378 S    
C35   C36   1.537829 S    
C58   C74   1.519947 S    
O13   C68   1.296688 A    
C1    C37   1.454895 S    
C21   H3    1.084219 S    
C30   C32   1.545603 S    
O2    C1    1.302657 A    
C49   C50   1.397805 A    
C71   H28   1.109636 S    
C17   C18   1.400690 A    
C36   C44   1.545027 S    
C75   H41   1.109906 S    
C28   C31   1.544703 S    
C25   C33   1.214427 T    
C29   C30   1.535554 S    
C36   C40   1.537562 S    
C52   C54   1.440403 A    
C23   C27   1.557010 S    
C40   C45   1.487884 S    
C58   C59   1.414889 A    
C63   H16   1.084038 S    
C6    C22   1.400740 A    
O11   C66   1.296428 A    
O3    C4    1.298977 A    
C7    H5    1.084208 S    
C27   C28   1.545387 S    
C75   H40   1.110380 S    
C56   C57   1.394717 A    
O6    V2    1.963819 S    
C39   N3    1.455475 S    
C25   C68   1.450061 S    
O9    V2    1.986889 S    
C36   N2    1.457059 S    
C47   C50   1.411543 A    
C10   C12   1.436956 A    
C5    C67   1.477979 S    
C23   C24   1.546134 S    
C71   H27   1.109655 S    
O2    V1    1.967518 S    
C59   C72   1.519136 S    
O14   V3    1.967550 S    
C74   H38   1.111506 S    
C31   C32   1.556950 S    
C49   H17   1.082559 S    
N2    O24   1.300178 A    
N1    O21   1.301440 A    
O17   V3    2.146928 S    
C37   C45   1.217223 T    
C35   C39   1.537537 S    
O13   V3    1.961382 S    
C56   H19   1.077295 S    
C10   C11   1.415059 A    
O18   V4    1.986814 S    
C12   C16   1.404653 A    
C54   C55   1.432235 A    
N3    O26   1.300095 A    
O5    V1    1.961214 S    
O16   V4    1.988813 S    
O8    C3    1.300762 A    
N4    O27   1.301319 A    
C41   H14   1.110038 S    
C72   H30   1.110264 S    
O12   C65   1.294955 A    
O12   V3    1.995618 S    
C69   H23   1.109551 S    
C20   C21   1.396707 A    
C48   C64   1.407640 A    
C73   H34   1.110740 S    
C13   C14   1.411419 A    
C71   H29   1.109954 S    
O4    V1    1.995633 S    
O3    V1    1.988988 S    
V1    O10   1.702315 S    
C73   H33   1.108827 S    
C53   C57   1.409801 A    
C52   C53   1.418428 A    
C14   H6    1.076050 S    
C64   H15   1.078147 S    
C42   C46   1.486822 S    
O11   V4    1.963585 S    
C69   H22   1.109774 S    
O15   V3    1.989010 S    
C30   C34   1.482972 S    
O7    V2    1.705664 S    
C6    C21   1.392909 A    
C5    C9    1.423027 A    
C39   C40   1.535675 S    
C31   H10   1.110142 S    
C75   H39   1.108006 S    
H12   C44   1.110402 S    
C41   C42   1.551905 S    
C61   C64   1.433054 A    
O19   C68   1.300679 A    
C47   C51   1.409302 A    
C51   H18   1.079479 S    
O9    C4    1.294127 A    
C49   C53   1.407096 A    
N3    O25   1.299464 A    
N2    O23   1.300243 A    
N1    O22   1.301388 A    
