data_mof_unit_6186.cif
_audit_creation_date              2013-03-05T15:54:38-0500
_audit_creation_method            fapswitch 2.2
_symmetry_space_group_name_H-M    P1
_symmetry_Int_Tables_number       1
_space_group_crystal_system       triclinic
_cell_length_a                    9.976779
_cell_length_b                    10.578003
_cell_length_c                    16.701564
_cell_angle_alpha                 91.89368
_cell_angle_beta                  83.25766
_cell_angle_gamma                 90.44054
_cell_volume                      1749.43088747

loop_
_atom_site_label
_atom_site_type_symbol
_atom_site_description
_atom_site_fract_x
_atom_site_fract_y
_atom_site_fract_z
_atom_type_partial_charge
O1    O     O_R   0.385310 0.683220 0.500000 -0.679507
O2    O     O_R   0.614640 0.683250 0.500010 -0.511206
C1    C     C_R   0.502427 0.737686 0.486750 0.851367
O3    O     O_R   0.371780 0.500010 0.615800 -0.621439
O4    O     O_R   0.601110 0.500030 0.615800 -0.565700
C2    C     C_R   0.478942 0.502051 0.652749 0.898348
Zn1   Zn    Zn3+2 0.346870 0.499980 0.499990 0.963357
Zn2   Zn    Zn3+2 0.653130 0.500020 0.500010 1.026083
O5    O     O_R   0.385360 0.316750 0.499990 -0.554740
O6    O     O_R   0.614690 0.316780 0.500000 -0.610187
O7    O     O_R   0.398890 0.499970 0.384200 -0.602318
O8    O     O_R   0.628220 0.499990 0.384200 -0.586132
C3    C     C_R   0.498231 0.259816 0.506900 0.934653
C4    C     C_R   0.521500 0.499901 0.346450 0.941830
C5    C     C_R   0.462625 0.531415 0.737823 -0.050968
C6    C     C_R   0.515572 0.450697 0.789782 -0.244401
C7    C     C_R   0.519336 0.489184 0.869325 -0.176078
C8    C     C_R   0.477214 0.611810 0.896506 0.011035
C9    C     C_R   0.418678 0.691525 0.844697 0.570573
C10   C     C_R   0.409257 0.649097 0.765350 -0.286910
C11   C     C_R   0.469392 0.503839 0.126263 0.388985
C12   C     C_R   0.441703 0.485686 0.209799 0.396877
C13   C     C_R   0.668232 0.563229 0.225502 -0.415974
C14   C     C_R   0.689108 0.596302 0.144820 0.525315
C15   C     C_R   0.586897 0.570906 0.095897 -0.168495
C16   C     C_2   0.496129 0.655264 0.979003 0.430982
C17   C     C_2   0.604832 0.612160 0.011985 0.389262
C18   C     C_R   0.543381 0.514489 0.259074 -0.278248
C19   C     C_R   0.269810 0.896836 0.434314 0.452289
C20   C     C_R   0.140712 0.934031 0.471810 0.437363
C21   C     C_R   0.132231 0.030480 0.531878 -0.400666
C22   C     C_R   0.248455 0.094663 0.551007 0.510885
C23   C     C_R   0.376362 0.053926 0.513069 -0.084742
C24   C     C_R   0.382525 0.937136 0.472444 -0.156355
C25   C     C_R   0.504342 0.870645 0.467222 -0.225525
C26   C     C_R   0.625455 0.937919 0.463837 0.552983
H1    H     H_    0.716829 0.115641 0.480333 0.202755
C27   C     C_R   0.622215 0.064083 0.486227 -0.320732
C28   C     C_R   0.498145 0.123851 0.509925 -0.167579
C29   C     C_R   0.849137 0.653508 0.622694 0.630712
C30   C     C_R   0.915806 0.693424 0.689237 -0.271001
C31   C     C_R   0.053684 0.692579 0.684014 -0.283985
C32   C     C_R   0.126155 0.640950 0.616019 -0.115049
C33   C     C_R   0.063759 0.569572 0.558399 0.087457
C34   C     C_R   0.919130 0.572484 0.559495 -0.051809
N1    N     N_R   0.857140 0.501200 0.500750 -0.147034
C35   C     C_R   0.937436 0.428200 0.445511 0.525713
C36   C     C_R   0.081685 0.430652 0.445312 -0.244512
N2    N     N_R   0.142740 0.501280 0.500770 -0.125123
H2    H     H_    0.556019 0.359282 0.768394 0.137980
O9    O     O_3   0.812402 0.643124 0.110604 -0.541405
C37   C     C_3   0.849064 0.753176 0.152898 -0.346139
H3    H     H_    0.761950 0.817857 0.169904 0.131762
H4    H     H_    0.925042 0.805854 0.112913 0.207133
H5    H     H_    0.897704 0.727778 0.206596 0.157466
O10   O     O_3   0.745867 0.885291 0.430896 -0.554795
C38   C     C_3   0.747404 0.879852 0.346079 -0.336444
H6    H     H_    0.696186 0.961373 0.321808 0.151774
H7    H     H_    0.701368 0.789681 0.327119 0.149236
H8    H     H_    0.853220 0.882869 0.317768 0.196172
O11   O     O_3   0.282654 0.888880 0.350509 -0.604227
C39   C     C_3   0.353780 0.780725 0.319512 -0.341980
H9    H     H_    0.462629 0.788691 0.325634 0.154523
H10   H     H_    0.346072 0.772650 0.253902 0.179121
H11   H     H_    0.308012 0.694431 0.346612 0.195840
O12   O     O_3   0.020089 0.891309 0.445912 -0.568513
C40   C     C_3   0.031497 0.770847 0.406294 -0.189286
H12   H     H_    0.105170 0.708845 0.430037 0.121987
H13   H     H_    0.057854 0.780986 0.340407 0.171659
H14   H     H_    0.932871 0.721607 0.415467 0.203535
H15   H     H_    0.034097 0.061177 0.560179 0.194637
O13   O     O_3   0.233881 0.193852 0.607430 -0.565450
C41   C     C_3   0.279754 0.155102 0.679472 -0.326184
H16   H     H_    0.390576 0.138996 0.671572 0.135778
H17   H     H_    0.225516 0.068732 0.702412 0.160138
H18   H     H_    0.258870 0.231799 0.726095 0.202155
O14   O     O_3   0.874807 0.359968 0.387722 -0.587962
C42   C     C_3   0.932826 0.239232 0.370939 -0.293342
H19   H     H_    0.957684 0.193006 0.426332 0.174616
H20   H     H_    0.023311 0.245250 0.325638 0.174483
H21   H     H_    0.858468 0.177569 0.343949 0.199139
O15   O     O_3   0.719177 0.695607 0.620522 -0.557928
C43   C     C_3   0.703030 0.826005 0.641771 -0.294842
H22   H     H_    0.786441 0.884447 0.611717 0.189232
H23   H     H_    0.691712 0.842205 0.708134 0.125169
H24   H     H_    0.607143 0.858798 0.622418 0.166120
H25   H     H_    0.861900 0.737821 0.742534 0.144079
O16   O     O_3   0.322879 0.428651 0.243110 -0.609407
C44   C     C_3   0.207879 0.492561 0.222978 -0.191333
H26   H     H_    0.167034 0.441908 0.171819 0.224480
H27   H     H_    0.226395 0.593697 0.208484 0.144523
H28   H     H_    0.128378 0.490956 0.275184 0.152031
H29   H     H_    0.104752 0.738108 0.731027 0.181435
H30   H     H_    0.231203 0.659159 0.610544 0.209149
H31   H     H_    0.145806 0.376480 0.400349 0.191095
H32   H     H_    0.749098 0.578984 0.262574 0.212013
O17   O     O_3   0.724451 0.578647 0.964795 -0.585972
C45   C     C_3   0.782841 0.686411 0.926606 -0.236154
H33   H     H_    0.789034 0.767938 0.969989 0.162676
H34   H     H_    0.726792 0.713983 0.876322 0.108905
H35   H     H_    0.887322 0.662818 0.900357 0.212837
O18   O     O_3   0.367400 0.808117 0.872696 -0.573361
C46   C     C_3   0.448935 0.904764 0.836128 -0.399667
H36   H     H_    0.557160 0.892366 0.844611 0.139117
H37   H     H_    0.415843 0.996649 0.865571 0.198843
H38   H     H_    0.436941 0.910479 0.770967 0.158893
O19   O     O_3   0.381507 0.457525 0.074026 -0.573955
C47   C     C_3   0.407199 0.327501 0.058725 -0.317319
H39   H     H_    0.376977 0.272109 0.113415 0.198210
H40   H     H_    0.515151 0.309568 0.036170 0.146716
H41   H     H_    0.345845 0.293055 0.011152 0.191318
H42   H     H_    0.367013 0.710356 0.724143 0.129926
O20   O     O_3   0.385646 0.708894 0.026225 -0.548991
C48   C     C_3   0.424500 0.824459 0.061698 -0.294049
H43   H     H_    0.478361 0.887386 0.016222 0.162802
H44   H     H_    0.487690 0.808584 0.110910 0.119234
H45   H     H_    0.332165 0.874604 0.088957 0.204008
H46   H     H_    0.559604 0.424143 0.908955 0.184348

loop_
_geom_bond_atom_site_label_1
_geom_bond_atom_site_label_2
_geom_bond_distance
_ccdc_geom_bond_type
C33   N2    1.361566 A    
C36   H31   1.079784 S    
C31   H29   1.083151 S    
C41   H16   1.111775 S    
C9    C10   1.398485 A    
C8    C16   1.470768 S    
C48   H43   1.113899 S    
C22   O13   1.383795 S    
C34   N1    1.414256 A    
C47   H39   1.111986 S    
Zn1   O7    1.942558 S    
C16   C17   1.360873 D    
C23   C28   1.414164 A    
C43   H22   1.114076 S    
O4    C2    1.299908 A    
C6    H2    1.083897 S    
C24   C25   1.401270 A    
C20   C21   1.402944 A    
C9    O18   1.384511 S    
C42   H20   1.110572 S    
C38   H7    1.108364 S    
C5    C6    1.387326 A    
C32   H30   1.058020 S    
C13   H32   1.081872 S    
C8    C9    1.405443 A    
C30   C31   1.368158 A    
O5    C3    1.299866 A    
C39   H10   1.107904 S    
C2    C5    1.434975 S    
C10   H42   1.083022 S    
C17   O17   1.392213 S    
C21   C22   1.402890 A    
C6    C7    1.381219 A    
O19   C47   1.410503 S    
C12   O16   1.391109 S    
C44   H27   1.113925 S    
C19   C20   1.417033 A    
O10   C38   1.414125 S    
O11   C39   1.402693 S    
C37   H5    1.109994 S    
C14   O9    1.388975 S    
C21   H15   1.083286 S    
O12   C40   1.415383 S    
C12   C18   1.404939 A    
C11   C12   1.409298 A    
C41   H17   1.114067 S    
C5    C10   1.399785 A    
O3    Zn1   1.978826 S    
C37   H4    1.109183 S    
O17   C45   1.412866 S    
C29   C34   1.453506 A    
C30   H25   1.079808 S    
C19   O11   1.390274 S    
O9    C37   1.409875 S    
C29   O15   1.379029 S    
C23   C24   1.387925 A    
C14   C15   1.398788 A    
Zn1   N2    2.035221 S    
O3    C2    1.295381 A    
C42   H19   1.114509 S    
C38   H8    1.105604 S    
O14   C42   1.412212 S    
C19   C24   1.412331 A    
C40   H12   1.104840 S    
O1    C1    1.297515 A    
C25   C26   1.393927 A    
C32   C33   1.403257 A    
H1    C27   1.082586 S    
C26   O10   1.375005 S    
C35   C36   1.438783 A    
C1    C25   1.453701 S    
Zn2   O8    1.978826 S    
C39   H9    1.104971 S    
C7    C8    1.410654 A    
C46   H37   1.109386 S    
C20   O12   1.393019 S    
C13   C18   1.406057 A    
C44   H28   1.108165 S    
C11   O19   1.383733 S    
C7    H46   1.081492 S    
C29   C30   1.412126 A    
C43   H23   1.108577 S    
O8    C4    1.299508 A    
O15   C43   1.418507 S    
C45   H34   1.109958 S    
C41   H18   1.109384 S    
C31   C32   1.372212 A    
C35   O14   1.389797 S    
C37   H3    1.114677 S    
O20   C48   1.412237 S    
Zn1   O5    1.978777 S    
C11   C15   1.416419 A    
N1    C35   1.370427 A    
C36   N2    1.366333 A    
C39   H11   1.104068 S    
O1    Zn1   1.972992 S    
O2    Zn2   1.978775 S    
C33   C34   1.441451 A    
O13   C41   1.410661 S    
O6    C3    1.299508 A    
O4    Zn2   1.942558 S    
C48   H44   1.110681 S    
C15   C17   1.472026 S    
C45   H35   1.109284 S    
C47   H41   1.109231 S    
C40   H14   1.106785 S    
C4    C18   1.463081 S    
C22   C23   1.419914 A    
C26   C27   1.373596 A    
O2    C1    1.307866 A    
C16   O20   1.390952 S    
C42   H21   1.109348 S    
C38   H6    1.116944 S    
C27   C28   1.403215 A    
O7    C4    1.308723 A    
C47   H40   1.114005 S    
C46   H38   1.112376 S    
O18   C46   1.411272 S    
Zn2   N1    2.036790 S    
C3    C28   1.440784 S    
C48   H45   1.109209 S    
C13   C14   1.394871 A    
C43   H24   1.106824 S    
O16   C44   1.415616 S    
Zn2   O6    1.972993 S    
C45   H33   1.113983 S    
C46   H36   1.114643 S    
C40   H13   1.109490 S    
C44   H26   1.109663 S    
