data_mof_unit_49014.cif
_audit_creation_date              2012-10-26T19:00:08-0400
_audit_creation_method            fapswitch 2.2
_symmetry_space_group_name_H-M    P1
_symmetry_Int_Tables_number       1
_space_group_crystal_system       triclinic
_cell_length_a                    10.784843
_cell_length_b                    10.802095
_cell_length_c                    9.546319
_cell_angle_alpha                 89.963219
_cell_angle_beta                  89.67616
_cell_angle_gamma                 89.502313
_cell_volume                      1112.07573494

loop_
_atom_site_label
_atom_site_type_symbol
_atom_type_description
_atom_site_fract_x
_atom_site_fract_y
_atom_site_fract_z
_atom_type_partial_charge
C1    C     C_R   0.497099 0.262458 0.499810 0.549307
C2    C     C_R   0.849589 0.158251 0.824894 -0.120439
C3    C     C_R   0.799022 0.068857 0.736873 -0.108723
C4    C     C_R   0.262683 0.503595 0.500193 0.546135
C5    C     C_R   0.786327 0.092911 0.593827 -0.099753
C6    C     C_R   0.825976 0.205609 0.537906 -0.082394
C7    C     C_R   0.879873 0.294458 0.625211 0.041703
C8    C     C_R   0.438941 0.063822 0.610837 0.006533
C9    C     C_R   0.485886 0.129536 0.496602 0.005033
C10   C     C_R   0.516370 0.064505 0.373363 -0.180254
C11   C     C_R   0.518417 0.935698 0.373840 -0.148739
C12   C     C_R   0.239667 0.910713 0.234062 -0.099511
C13   C     C_R   0.489500 0.870875 0.497319 0.025132
C14   C     C_R   0.441508 0.936671 0.611368 0.010231
C15   C     C_3   0.467440 0.930343 0.764616 -0.266241
C16   C     C_R   0.498513 0.737635 0.499830 0.576599
C17   C     C_3   0.462908 0.071308 0.764479 -0.273180
C18   C     C_R   0.552719 0.595112 0.072843 0.151393
C19   C     C_R   0.436640 0.413432 0.074934 -0.019014
C20   C     C_R   0.436419 0.413596 0.926040 -0.014841
C21   C     C_R   0.553508 0.594443 0.925547 0.149671
C22   C     C_3   0.685881 0.631856 0.918149 -0.274134
C23   C     C_R   0.933424 0.605692 0.444353 0.048002
C24   C     C_3   0.684765 0.634637 0.076874 -0.267119
C25   C     C_R   0.737651 0.499767 0.500004 0.580401
C26   C     C_R   0.200143 0.922240 0.373235 -0.096725
C27   C     C_R   0.146362 0.821600 0.442037 -0.073667
C28   C     C_R   0.129018 0.709652 0.370423 0.061720
C29   C     C_R   0.168875 0.698633 0.230654 -0.043678
C30   C     C_R   0.225045 0.798655 0.163217 -0.101033
C31   C     C_R   0.871741 0.502443 0.500861 0.011858
C32   C     C_R   0.939085 0.405049 0.563971 -0.053555
C33   C     C_R   0.067576 0.409951 0.565516 -0.156528
C34   C     C_R   0.129139 0.507180 0.500638 -0.015818
C35   C     C_R   0.063297 0.605877 0.438847 -0.020639
C36   C     C_R   0.890737 0.270459 0.769271 -0.089111
Cu1   Cu    Cu3+1 0.499990 0.499980 0.640670 0.945151
Cu2   Cu    Cu3+1 0.500010 0.500020 0.359330 0.944031
H1    H     H_    0.282147 0.988450 0.181365 0.102862
H2    H     H_    0.552777 0.115030 0.789662 0.159465
H3    H     H_    0.387258 0.341969 0.131032 0.112793
H4    H     H_    0.211621 0.009080 0.427931 0.116167
H5    H     H_    0.386588 0.342528 0.870657 0.110176
H6    H     H_    0.747433 0.558061 0.874735 0.160506
H7    H     H_    0.697779 0.724691 0.870052 0.122787
H8    H     H_    0.747466 0.564288 0.124481 0.173301
H9    H     H_    0.693312 0.730035 0.118478 0.155384
H10   H     H_    0.115787 0.831570 0.549740 0.121024
H11   H     H_    0.155721 0.612954 0.173964 0.111089
H12   H     H_    0.769425 0.981092 0.779593 0.109788
H13   H     H_    0.256105 0.789687 0.055647 0.096533
H14   H     H_    0.120348 0.334932 0.612813 0.119940
H15   H     H_    0.933279 0.337615 0.837722 0.101687
H16   H     H_    0.858894 0.139731 0.935793 0.110475
H17   H     H_    0.747093 0.023563 0.526090 0.154587
H18   H     H_    0.818489 0.221908 0.426295 0.107980
H19   H     H_    0.545994 0.112417 0.279409 0.133304
H20   H     H_    0.548358 0.887577 0.279877 0.149293
H21   H     H_    0.389907 0.887984 0.824451 0.132218
H22   H     H_    0.560827 0.891674 0.787632 0.134253
H23   H     H_    0.381778 0.109439 0.822941 0.118882
I1    I     I_    0.832209 0.767391 0.381914 -0.496423
N1    N     N_R   0.500790 0.500930 0.147930 -0.230036
N2    N     N_R   0.500790 0.500890 0.852020 -0.230076
O1    O     O_R   0.500000 0.319640 0.618810 -0.502698
O2    O     O_R   0.500010 0.319680 0.381230 -0.519423
O3    O     O_R   0.319640 0.499990 0.618790 -0.506032
O4    O     O_R   0.319650 0.500030 0.381210 -0.505478
O5    O     O_R   0.499990 0.680320 0.618770 -0.499759
O6    O     O_R   0.500000 0.680360 0.381190 -0.489125
O7    O     O_R   0.680350 0.499970 0.618790 -0.493784
O8    O     O_R   0.680360 0.500010 0.381210 -0.489468

loop_
_geom_bond_atom_site_label_1
_geom_bond_atom_site_label_2
_ccdc_geom_bond_type
C27   H10   S    
C20   N2    A    
C4    O3    A    
C1    O1    A    
C30   H13   S    
Cu2   O6    S    
C25   C31   S    
C6    C7    A    
C25   O7    A    
C36   H15   S    
Cu1   O5    S    
C18   C21   A    
C22   H7    S    
C9    C10   A    
C4    C34   S    
C19   C20   A    
C24   H8    S    
C32   C33   A    
C10   H19   S    
C12   H1    S    
C2    C3    A    
C1    C9    S    
C25   O8    A    
C29   H11   S    
C21   C22   S    
C5    H17   S    
C33   H14   S    
C6    H18   S    
C11   C13   A    
C19   H3    S    
C26   C27   A    
C29   C30   A    
C18   C24   S    
C5    C6    A    
Cu1   O3    S    
C22   C24   S    
C28   C29   A    
Cu1   Cu2   S    
Cu2   O4    S    
C1    O2    A    
C23   C35   A    
Cu1   O7    S    
C7    C36   A    
C2    H16   S    
C33   C34   A    
C34   C35   A    
C31   C32   A    
Cu2   O8    S    
C18   N1    A    
C10   C11   A    
C17   H23   S    
C2    C36   A    
C23   C31   A    
C11   H20   S    
Cu2   O2    S    
C20   H5    S    
C16   O6    A    
C26   H4    S    
C4    O4    A    
Cu2   N1    S    
C15   H22   S    
C13   C16   S    
C12   C26   A    
C27   C28   A    
C15   C17   S    
C14   C15   S    
C8    C9    A    
C21   N2    A    
C8    C14   A    
C7    C32   S    
C12   C30   A    
C13   C14   A    
C24   H9    S    
C15   H21   S    
C3    H12   S    
C23   I1    S    
C22   H6    S    
C16   O5    A    
C8    C17   S    
C28   C35   S    
C19   N1    A    
Cu1   N2    S    
C3    C5    A    
C17   H2    S    
Cu1   O1    S    
