data_mof_unit_34301.cif
_audit_creation_date              2012-12-11T15:23:36-0500
_audit_creation_method            fapswitch 2.2
_symmetry_space_group_name_H-M    P1
_symmetry_Int_Tables_number       1
_space_group_crystal_system       triclinic
_cell_length_a                    17.356727
_cell_length_b                    24.436081
_cell_length_c                    15.094725
_cell_angle_alpha                 89.685548
_cell_angle_beta                  125.646886
_cell_angle_gamma                 90.567421
_cell_volume                      5202.27113965

loop_
_atom_site_label
_atom_site_type_symbol
_atom_type_description
_atom_site_fract_x
_atom_site_fract_y
_atom_site_fract_z
_atom_type_partial_charge
C1    C     C_R   0.354726 0.346776 0.910848 -0.105947
C2    C     C_R   0.684673 0.370097 0.090730 -0.082580
C3    C     C_R   0.854727 0.846775 0.910846 -0.105941
C4    C     C_R   0.184672 0.870096 0.090729 -0.082572
C5    C     C_R   0.386221 0.683196 0.998821 -0.239199
C6    C     C_R   0.685871 0.643352 0.003665 -0.203376
C7    C     C_R   0.886215 0.183196 0.998812 -0.239188
C8    C     C_R   0.185870 0.143352 0.003664 -0.203395
C9    C     C_R   0.545395 0.499380 0.354693 -0.228249
C10   C     C_R   0.433565 0.497211 0.634887 -0.147893
C11   C     C_R   0.045411 0.999380 0.354703 -0.228088
C12   C     C_R   0.933547 0.997209 0.634878 -0.147669
C13   C     C_R   0.176763 0.495978 0.733980 -0.192743
C14   C     C_R   0.819256 0.496490 0.342715 -0.161704
C15   C     C_R   0.676762 0.995978 0.733975 -0.192772
C16   C     C_R   0.319259 0.996489 0.342704 -0.161703
C17   C     C_2   0.929191 0.458608 0.522248 -0.217421
C18   C     C_2   0.025263 0.450272 0.618387 -0.230954
C19   C     C_2   0.429194 0.958606 0.522235 -0.217410
C20   C     C_2   0.525264 0.950271 0.618378 -0.230943
C21   C     C_2   0.912808 0.493844 0.444320 0.568068
C22   C     C_2   0.074904 0.492446 0.684623 0.584561
C23   C     C_2   0.412813 0.993841 0.444307 0.568075
C24   C     C_2   0.574903 0.992446 0.684612 0.584554
C25   C     C_R   0.237251 0.720599 0.951857 0.528573
C26   C     C_R   0.849246 0.686314 0.105193 0.536967
C27   C     C_R   0.737244 0.220604 0.951835 0.528505
C28   C     C_R   0.349244 0.186315 0.105196 0.536970
C29   C     C_R   0.687950 0.263638 0.953271 -0.210122
C30   C     C_R   0.397459 0.231605 0.103946 -0.212622
C31   C     C_R   0.187956 0.763633 0.953293 -0.210139
C32   C     C_R   0.897462 0.731603 0.103942 -0.212610
C33   C     C_R   0.733785 0.313685 0.996630 0.043254
C34   C     C_R   0.364294 0.257307 0.004365 0.038752
C35   C     C_R   0.233783 0.813684 0.996628 0.043240
C36   C     C_R   0.864297 0.757305 0.004360 0.038753
C37   C     C_R   0.828762 0.321926 0.038262 -0.155740
C38   C     C_R   0.300510 0.229130 0.907334 -0.111334
C39   C     C_R   0.328752 0.821930 0.038234 -0.155729
C40   C     C_R   0.800509 0.729129 0.907330 -0.111317
C41   C     C_R   0.378572 0.779022 0.035195 -0.062844
C42   C     C_R   0.753211 0.683814 0.909422 -0.106073
C43   C     C_R   0.878579 0.279019 0.035218 -0.062790
C44   C     C_R   0.253214 0.183813 0.909425 -0.106055
C45   C     C_R   0.437968 0.650596 0.088605 0.517391
C46   C     C_R   0.596792 0.628898 0.910963 0.425329
C47   C     C_R   0.937973 0.150600 0.088598 0.517333
C48   C     C_R   0.096793 0.128897 0.910963 0.425374
C49   C     C_R   0.332516 0.728805 0.991807 0.044054
C50   C     C_R   0.764416 0.669855 0.006663 -0.005549
C51   C     C_R   0.832514 0.228806 0.991804 0.044041
C52   C     C_R   0.264416 0.169855 0.006664 -0.005546
C53   C     C_R   0.407605 0.526447 0.464604 -0.034370
C54   C     C_R   0.438300 0.528621 0.398583 -0.133244
C55   C     C_R   0.907786 0.026602 0.464768 -0.034814
C56   C     C_R   0.938519 0.028788 0.398787 -0.133093
C57   C     C_R   0.521180 0.501157 0.429974 0.168187
C58   C     C_R   0.460181 0.496911 0.561317 0.131168
C59   C     C_R   0.021229 0.001167 0.430018 0.168067
C60   C     C_R   0.960156 0.996901 0.561295 0.131033
C61   C     C_R   0.574545 0.472261 0.527171 -0.006117
C62   C     C_R   0.544174 0.470261 0.593401 -0.154797
C63   C     C_R   0.074399 0.972109 0.527038 -0.006491
C64   C     C_R   0.043989 0.970094 0.593226 -0.154437
C65   C     C_R   0.535774 0.453880 0.296357 0.423013
C66   C     C_R   0.449861 0.452952 0.698329 0.368866
C67   C     C_R   0.035780 0.953878 0.296360 0.423041
C68   C     C_R   0.949834 0.952952 0.698321 0.368716
C69   C     C_R   0.230286 0.542926 0.752183 0.598440
C70   C     C_R   0.766330 0.543150 0.293090 0.562197
C71   C     C_R   0.730285 0.042926 0.752179 0.598459
C72   C     C_R   0.266335 0.043149 0.293082 0.562213
C73   C     C_R   0.543302 0.544542 0.299934 0.478742
C74   C     C_R   0.444250 0.543232 0.693477 0.449478
C75   C     C_R   0.043328 0.044540 0.299947 0.478521
C76   C     C_R   0.944236 0.043231 0.693473 0.449382
C77   C     C_R   0.235003 0.451860 0.759090 -0.172745
C78   C     C_R   0.762269 0.452103 0.288275 -0.227476
C79   C     C_R   0.735003 0.951860 0.759087 -0.172695
C80   C     C_R   0.262270 0.952103 0.288268 -0.227491
C81   C     C_R   0.362261 0.653536 0.910228 0.532428
C82   C     C_R   0.682280 0.634278 0.092672 0.486130
C83   C     C_R   0.862255 0.153535 0.910222 0.532431
C84   C     C_R   0.182278 0.134280 0.092671 0.486137
C85   C     C_R   0.445300 0.347161 0.091363 -0.038855
C86   C     C_R   0.594388 0.372177 0.908014 -0.110614
C87   C     C_R   0.945305 0.847159 0.091360 -0.038759
C88   C     C_R   0.094386 0.872177 0.908012 -0.110605
C89   C     C_R   0.385683 0.314954 0.001711 0.049704
C90   C     C_R   0.680030 0.355996 0.999384 0.038118
C91   C     C_R   0.885687 0.814952 0.001708 0.049659
C92   C     C_R   0.180028 0.855995 0.999382 0.038122
N1    N     N_R   0.395440 0.396300 0.944370 -0.050371
N2    N     N_R   0.604560 0.396300 0.055630 -0.051415
N3    N     N_R   0.895440 0.896300 0.944370 -0.050377
N4    N     N_R   0.104560 0.896300 0.055630 -0.051424
N5    N     N_R   0.449890 0.602500 0.055780 -0.131491
N6    N     N_R   0.550110 0.602500 0.944220 -0.115194
N7    N     N_R   0.949890 0.102500 0.055780 -0.131487
N8    N     N_R   0.050110 0.102500 0.944220 -0.115191
N9    N     N_R   0.525090 0.470990 0.205640 -0.118044
N10   N     N_R   0.474910 0.470990 0.794360 -0.127937
N11   N     N_R   0.025090 0.970990 0.205640 -0.118012
N12   N     N_R   0.974910 0.970990 0.794360 -0.127917
N13   N     N_R   0.320240 0.527820 0.794510 -0.097793
N14   N     N_R   0.679760 0.527820 0.205490 -0.121602
N15   N     N_R   0.820240 0.027820 0.794510 -0.097786
N16   N     N_R   0.179760 0.027820 0.205490 -0.121599
N17   N     N_R   0.524580 0.527810 0.205160 -0.124813
N18   N     N_R   0.475420 0.527810 0.794840 -0.131329
N19   N     N_R   0.024580 0.027810 0.205160 -0.124781
N20   N     N_R   0.975420 0.027810 0.794840 -0.131292
N21   N     N_R   0.320750 0.470990 0.794990 -0.056692
N22   N     N_R   0.679250 0.470990 0.205010 -0.068692
N23   N     N_R   0.820750 0.970990 0.794990 -0.056688
N24   N     N_R   0.179250 0.970990 0.205010 -0.068697
N25   N     N_R   0.393580 0.602500 0.942610 -0.141659
N26   N     N_R   0.606420 0.602500 0.057390 -0.143353
N27   N     N_R   0.893580 0.102500 0.942610 -0.141674
N28   N     N_R   0.106420 0.102500 0.057390 -0.143352
N29   N     N_R   0.451750 0.396300 0.057540 -0.052694
N30   N     N_R   0.548250 0.396300 0.942460 -0.044387
N31   N     N_R   0.951750 0.896300 0.057540 -0.052691
N32   N     N_R   0.048250 0.896300 0.942460 -0.044382
Ni1   Ni    Ni4+2 0.435420 0.434250 0.870220 0.265826
Ni2   Ni    Ni4+2 0.564580 0.434250 0.129780 0.242050
Ni3   Ni    Ni4+2 0.935420 0.934250 0.870220 0.265844
Ni4   Ni    Ni4+2 0.064580 0.934250 0.129780 0.242060
Ni5   Ni    Ni4+2 0.563400 0.564580 0.128670 0.309073
Ni6   Ni    Ni4+2 0.436600 0.564580 0.871330 0.337593
Ni7   Ni    Ni4+2 0.063400 0.064580 0.128670 0.309096
Ni8   Ni    Ni4+2 0.936600 0.064580 0.871330 0.337609
H1    H     H_    0.317871 0.332582 0.827773 0.131475
H2    H     H_    0.738610 0.358429 0.173785 0.128434
H3    H     H_    0.817871 0.832583 0.827770 0.131490
H4    H     H_    0.238609 0.858428 0.173784 0.128441
Cl1   Cl    Cl    0.002970 0.533214 0.452635 -0.440155
Cl2   Cl    Cl    0.016250 0.547579 0.696936 -0.420399
Cl3   Cl    Cl    0.502977 0.033208 0.452620 -0.440125
Cl4   Cl    Cl    0.516246 0.047579 0.696916 -0.420365
Cl5   Cl    Cl    0.179503 0.656364 0.908393 -0.520284
Cl6   Cl    Cl    0.900697 0.650263 0.228706 -0.453991
Cl7   Cl    Cl    0.679486 0.156371 0.908352 -0.520296
Cl8   Cl    Cl    0.400694 0.150265 0.228708 -0.453973
H5    H     H_    0.614583 0.257721 0.923801 0.182072
H6    H     H_    0.456474 0.247847 0.180934 0.186274
H7    H     H_    0.114594 0.757713 0.923839 0.182068
H8    H     H_    0.956479 0.747845 0.180929 0.186277
H9    H     H_    0.863492 0.361002 0.072622 0.155070
H10   H     H_    0.281259 0.244059 0.829378 0.153614
H11   H     H_    0.363476 0.861010 0.072572 0.155079
H12   H     H_    0.781254 0.744059 0.829374 0.153616
H13   H     H_    0.452794 0.784375 0.068179 0.179230
H14   H     H_    0.703996 0.662802 0.833770 0.197645
H15   H     H_    0.952806 0.284367 0.068221 0.179236
H16   H     H_    0.204002 0.162801 0.833772 0.197649
H17   H     H_    0.343133 0.547180 0.440097 0.188006
H18   H     H_    0.396353 0.550455 0.321815 0.168157
H19   H     H_    0.843439 0.047455 0.440365 0.188200
H20   H     H_    0.896713 0.050750 0.322156 0.168355
H21   H     H_    0.638798 0.451381 0.551128 0.169951
H22   H     H_    0.586708 0.448512 0.670185 0.134457
H23   H     H_    0.138531 0.951114 0.550891 0.170189
H24   H     H_    0.086384 0.948215 0.669873 0.134611
Cl9   Cl    Cl    0.435132 0.659835 0.201803 -0.544714
Cl10  Cl    Cl    0.538646 0.662953 0.785335 -0.520610
Cl11  Cl    Cl    0.935238 0.159869 0.201868 -0.544794
Cl12  Cl    Cl    0.038649 0.162942 0.785324 -0.520681
Cl13  Cl    Cl    0.564569 0.387388 0.349680 -0.626363
Cl14  Cl    Cl    0.399609 0.388163 0.644818 -0.570969
Cl15  Cl    Cl    0.064528 0.887382 0.349633 -0.626595
Cl16  Cl    Cl    0.899572 0.888163 0.644823 -0.571016
Cl17  Cl    Cl    0.180552 0.606529 0.693377 -0.346687
Cl18  Cl    Cl    0.795764 0.605603 0.362263 -0.345059
Cl19  Cl    Cl    0.680551 0.106528 0.693364 -0.346638
Cl20  Cl    Cl    0.295789 0.105605 0.362248 -0.344996
Cl21  Cl    Cl    0.614678 0.601466 0.373404 -0.443407
Cl22  Cl    Cl    0.360965 0.595801 0.624895 -0.435001
Cl23  Cl    Cl    0.114739 0.101453 0.373425 -0.443404
Cl24  Cl    Cl    0.860938 0.095798 0.624919 -0.435129
H25   H     H_    0.216670 0.409192 0.754690 0.143410
H26   H     H_    0.776693 0.409997 0.314983 0.156661
H27   H     H_    0.716670 0.909192 0.754687 0.143408
H28   H     H_    0.276694 0.909996 0.314974 0.156660
Cl25  Cl    Cl    0.350580 0.685644 0.798595 -0.414867
Cl26  Cl    Cl    0.704137 0.689880 0.178465 -0.450486
Cl27  Cl    Cl    0.850579 0.185642 0.798592 -0.414833
Cl28  Cl    Cl    0.204126 0.189885 0.178455 -0.450480
H29   H     H_    0.494287 0.332382 0.172854 0.173016
H30   H     H_    0.567505 0.363948 0.824627 0.180347
H31   H     H_    0.994299 0.832376 0.172845 0.173026
H32   H     H_    0.067501 0.863949 0.824624 0.180292
H33   H     H_    0.873058 0.432512 0.510934 0.160571
H34   H     H_    0.060361 0.414772 0.614775 0.146597
H35   H     H_    0.373060 0.932512 0.510923 0.160565
H36   H     H_    0.560365 0.914771 0.614771 0.146603

loop_
_geom_bond_atom_site_label_1
_geom_bond_atom_site_label_2
_ccdc_geom_bond_type
C25   C31   A    
N14   Ni5   S    
C7    C83   A    
C55   C56   A    
C79   H27   S    
C19   H35   S    
C6    C82   A    
C87   C91   A    
C27   C29   A    
N28   Ni7   S    
C10   C74   A    
C66   N10   A    
C17   H33   S    
C19   C20   S    
C16   C72   A    
C65   N9    A    
C88   N32   A    
N10   Ni1   S    
C5    C49   S    
C11   C59   S    
C67   N11   A    
C39   C41   A    
C53   C54   A    
C24   Cl4   S    
C63   H23   S    
C12   C68   A    
N4    Ni4   S    
C2    H2    S    
C10   C66   A    
C9    C73   A    
N14   N22   A    
C61   H21   S    
C32   C36   A    
C14   C21   S    
N13   N21   A    
C42   H14   S    
N1    N29   A    
C71   N15   A    
C26   C50   A    
C29   H5    S    
N22   Ni2   S    
C1    H1    S    
N21   Ni1   S    
N9    N17   A    
C81   N25   A    
C14   C78   A    
N23   Ni3   S    
C40   H12   S    
C3    C91   A    
C83   N27   A    
C73   Cl21  S    
C2    C90   A    
N16   Ni7   S    
C5    C81   A    
C4    N4    A    
C41   C49   A    
C15   C79   A    
C88   C92   A    
C29   C33   A    
C11   C67   A    
C74   Cl22  S    
C86   N30   A    
C47   N7    A    
C27   Cl7   S    
C85   N29   A    
N8    N28   A    
C21   Cl1   S    
N5    Ni5   S    
C75   Cl23  S    
C8    C52   S    
C3    H3    S    
C64   H24   S    
C4    H4    S    
C31   H7    S    
C35   C92   S    
C44   C52   A    
C40   C42   A    
C46   N6    A    
N24   Ni4   S    
C34   C38   A    
C55   C60   A    
C76   N20   A    
C14   C70   A    
C83   Cl27  S    
C78   N22   A    
C69   Cl17  S    
C77   N21   A    
C81   Cl25  S    
C53   H17   S    
C1    C89   A    
C27   C51   A    
C72   N16   A    
C30   H6    S    
C41   H13   S    
N2    Ni2   S    
C48   N8    A    
C13   C77   A    
C86   H30   S    
N4    N32   A    
C44   H16   S    
C20   C24   D    
C2    N2    A    
C18   H34   S    
C43   H15   S    
C79   N23   A    
C86   C90   A    
N12   N20   A    
C69   N13   A    
C26   C32   A    
C67   Cl15  S    
C5    C45   A    
N20   Ni8   S    
C65   Cl13  S    
C78   H26   S    
C7    C47   A    
C37   C43   A    
C35   C39   A    
C8    C48   A    
C38   C44   A    
N25   Ni6   S    
C54   H18   S    
C47   Cl11  S    
C77   H25   S    
C48   Cl12  S    
C36   C40   A    
C84   N28   A    
N6    Ni6   S    
C9    C65   A    
C17   C18   S    
C23   Cl3   S    
C6    C50   S    
C73   N17   A    
N11   Ni4   S    
C70   Cl18  S    
N15   N23   A    
C58   C62   A    
C42   C50   A    
N32   Ni3   S    
C28   Cl8   S    
N2    N30   A    
C36   C91   S    
N19   Ni7   S    
C15   C24   S    
N1    Ni1   S    
C82   Cl26  S    
C16   C23   S    
C12   C76   A    
C70   N14   A    
C31   C35   A    
C84   Cl28  S    
C82   N26   A    
N9    Ni2   S    
C45   Cl9   S    
C19   C23   D    
C87   H31   S    
N3    N31   A    
C88   H32   S    
C30   C34   A    
C85   C89   A    
C6    C46   A    
C10   C58   S    
C18   C22   D    
C75   N19   A    
C66   Cl14  S    
C80   N24   A    
C68   N12   A    
C80   H28   S    
C37   H9    S    
N15   Ni8   S    
C76   Cl24  S    
N27   Ni8   S    
C74   N18   A    
C3    N3    A    
C53   C58   A    
N8    Ni8   S    
C57   C61   A    
N13   Ni6   S    
C32   H8    S    
N11   N19   A    
C20   H36   S    
C15   C71   A    
C22   Cl2   S    
C59   C63   A    
C56   C59   A    
N7    Ni7   S    
C33   C37   A    
C60   C64   A    
N16   N24   A    
N30   Ni1   S    
C28   C30   A    
C34   C89   S    
C7    C51   S    
N29   Ni2   S    
C56   H20   S    
N26   Ni5   S    
C11   C75   A    
C33   C90   S    
C87   N31   A    
C28   C52   A    
C43   C51   A    
N31   Ni4   S    
C62   H22   S    
N12   Ni3   S    
C13   C69   A    
N6    N26   A    
C55   H19   S    
C71   Cl19  S    
C13   C22   S    
N18   Ni6   S    
C9    C57   S    
C72   Cl20  S    
N5    N25   A    
C61   C62   A    
C39   H11   S    
C25   C49   A    
N10   N18   A    
C46   Cl10  S    
N7    N27   A    
C63   C64   A    
C12   C60   S    
N3    Ni3   S    
C1    N1    A    
C25   Cl5   S    
C8    C84   A    
C45   N5    A    
C16   C80   A    
C26   Cl6   S    
N17   Ni5   S    
C85   H29   S    
C38   H10   S    
C68   Cl16  S    
C4    C92   A    
C54   C57   A    
C17   C21   D    
