data_mof_unit_38959.cif
_audit_creation_date              2012-12-10T17:13:38-0500
_audit_creation_method            fapswitch 2.2
_symmetry_space_group_name_H-M    P1
_symmetry_Int_Tables_number       1
_space_group_crystal_system       triclinic
_cell_length_a                    10.962745
_cell_length_b                    13.003287
_cell_length_c                    11.876834
_cell_angle_alpha                 99.927716
_cell_angle_beta                  91.585319
_cell_angle_gamma                 94.527045
_cell_volume                      1661.03909422

loop_
_atom_site_label
_atom_site_type_symbol
_atom_type_description
_atom_site_fract_x
_atom_site_fract_y
_atom_site_fract_z
_atom_type_partial_charge
C1    C     C_R   0.497395 0.299805 0.477809 0.845538
C2    C     C_3   0.877629 0.496122 0.497955 -0.213473
C3    C     C_3   0.940430 0.614788 0.508407 -0.161779
C4    C     C_3   0.917171 0.407059 0.396002 -0.193319
C5    C     C_R   0.481253 0.814521 0.533498 -0.186498
C6    C     C_R   0.491490 0.186250 0.461107 -0.035903
C7    C     C_R   0.423025 0.016822 0.346775 -0.020178
C8    C     C_R   0.436998 0.126072 0.360986 -0.172467
C9    C     C_R   0.539925 0.137986 0.544882 -0.178549
C10   C     C_R   0.521715 0.030123 0.536467 0.106355
C11   C     C_R   0.459318 0.966758 0.439242 0.044170
C12   C     C_R   0.260211 0.496351 0.501538 0.821205
C13   C     C_R   0.431663 0.858259 0.441616 -0.022076
C14   C     C_R   0.529133 0.882862 0.633475 -0.023848
C15   C     C_R   0.554951 0.988234 0.631168 -0.181263
C16   C     C_R   0.390906 0.388408 0.028586 0.090733
C17   C     C_R   0.405560 0.399896 0.147941 0.077795
C18   C     C_R   0.534792 0.555644 0.153520 0.132567
C19   C     C_R   0.523524 0.549149 0.031762 -0.077606
C20   C     C_R   0.457554 0.459680 0.967286 -0.085270
C21   C     C_R   0.462542 0.445169 0.844931 0.144580
C22   C     C_R   0.579907 0.607326 0.851649 0.068474
C23   C     C_R   0.491708 0.700060 0.521677 0.909184
C24   C     C_R   0.579176 0.626904 0.970631 0.070311
C25   C     C_R   0.739261 0.497061 0.498480 0.864344
C26   C     C_3   0.066769 0.454531 0.610622 0.097009
C27   C     C_3   0.925937 0.460113 0.610324 -0.426975
C28   C     C_3   0.084495 0.610058 0.501386 -0.288696
C29   C     C_3   0.063051 0.420590 0.389412 0.148827
C30   C     C_3   0.122158 0.496007 0.503421 -0.142042
Cu1   Cu    Cu3+1 0.509350 0.507730 0.615930 1.042128
Cu2   Cu    Cu3+1 0.490650 0.492270 0.384070 1.052259
H1    H     H_    0.112703 0.624321 0.417135 0.187550
H2    H     H_    0.593528 0.039944 0.707723 0.193582
H3    H     H_    0.405600 0.164535 0.292800 0.189131
H4    H     H_    0.588395 0.185217 0.619240 0.187666
H5    H     H_    0.086253 0.371285 0.603589 0.197997
H6    H     H_    0.623508 0.664551 0.806597 0.168550
H7    H     H_    0.357143 0.344494 0.192545 0.171326
H8    H     H_    0.879579 0.384834 0.624295 0.192512
H9    H     H_    0.899597 0.511286 0.688547 0.230400
N1    N     N_R   0.523430 0.519360 0.790130 -0.244022
N2    N     N_R   0.476570 0.480640 0.209880 -0.244366
O1    O     O_R   0.506640 0.354460 0.582000 -0.598731
O2    O     O_R   0.490840 0.341410 0.386200 -0.586200
O3    O     O_R   0.325590 0.506510 0.597900 -0.500045
O4    O     O_R   0.309790 0.493450 0.402100 -0.576156
O5    O     O_R   0.509160 0.658590 0.613800 -0.554876
O6    O     O_R   0.493360 0.645540 0.418000 -0.516284
O7    O     O_R   0.690210 0.506550 0.597900 -0.587521
O8    O     O_R   0.674410 0.493490 0.402100 -0.548442
I1    I     I_    0.138517 0.521889 0.782601 -0.121837
C31   C     C_2   0.860372 0.410682 0.278174 0.928578
O9    O     O_2   0.841845 0.494044 0.251645 -0.536612
O10   O     O_R   0.841455 0.319455 0.195249 -0.682911
H10   H     H_    0.806804 0.333224 0.119718 0.354008
C32   C     C_2   0.895773 0.675891 0.418181 0.933508
O11   O     O_2   0.787274 0.689133 0.409572 -0.548580
O12   O     O_R   0.978706 0.729529 0.356427 -0.695738
H11   H     H_    0.941162 0.784948 0.319645 0.359663
C33   C     C_2   0.326278 0.800465 0.369111 0.846193
O13   O     O_2   0.227499 0.838182 0.372612 -0.530265
O14   O     O_R   0.340296 0.709555 0.290624 -0.691278
H12   H     H_    0.263818 0.684893 0.240432 0.357376
C34   C     C_2   0.534910 0.852977 0.747511 0.872202
O15   O     O_2   0.622676 0.885809 0.812951 -0.573273
O16   O     O_R   0.433744 0.797561 0.784600 -0.687555
H13   H     H_    0.442091 0.790633 0.867953 0.343657
C35   C     C_2   0.375456 0.960842 0.232541 0.905908
O17   O     O_2   0.290824 0.993751 0.183798 -0.525612
O18   O     O_R   0.429630 0.872913 0.178763 -0.703303
H14   H     H_    0.387477 0.841139 0.102186 0.350748
C36   C     C_2   0.416453 0.343209 0.778365 0.923560
O19   O     O_2   0.469726 0.265837 0.788020 -0.613769
O20   O     O_R   0.311217 0.333671 0.707050 -0.731036
H15   H     H_    0.288929 0.258994 0.666667 0.337057
I2    I     I_    0.248809 0.268803 0.962791 -0.162223
I3    I     I_    0.654962 0.785002 0.032468 -0.182421
C37   C     C_2   0.626901 0.635895 0.211845 1.006074
O21   O     O_2   0.596574 0.717148 0.267261 -0.498008
O22   O     O_R   0.746352 0.631339 0.175138 -0.697549
H16   H     H_    0.798798 0.699396 0.198859 0.361322
C38   C     C_2   0.158688 0.702684 0.576628 0.901949
O23   O     O_2   0.239517 0.690188 0.644143 -0.518330
O24   O     O_R   0.130716 0.804540 0.569690 -0.688530
H17   H     H_    0.184905 0.859948 0.623111 0.356926
C39   C     C_2   0.903196 0.681128 0.622984 0.860662
O25   O     O_2   0.970225 0.696064 0.709303 -0.531392
O26   O     O_R   0.788340 0.721210 0.630654 -0.737486
H18   H     H_    0.775724 0.762739 0.709127 0.355924
I4    I     I_    0.118356 0.475970 0.227648 -0.218821
I5    I     I_    0.148670 0.272084 0.356009 -0.232446
C40   C     C_2   0.864695 0.298388 0.420876 0.859653
O27   O     O_2   0.758727 0.266121 0.390921 -0.584985
O28   O     O_R   0.930580 0.240045 0.486238 -0.747482
H19   H     H_    0.882620 0.173151 0.498300 0.358865

loop_
_geom_bond_atom_site_label_1
_geom_bond_atom_site_label_2
_ccdc_geom_bond_type
O10   H10   S    
C40   O27   D    
Cu1   N1    S    
C4    C31   S    
Cu2   O2    S    
O28   H19   S    
C39   O25   D    
C6    C9    A    
C17   N2    A    
O22   H16   S    
C7    C8    A    
O24   H17   S    
C7    C11   A    
C26   C27   S    
C3    C28   S    
C16   I2    S    
C10   C15   A    
C17   H7    S    
C23   O6    A    
C22   H6    S    
C21   C36   S    
C33   O14   S    
C18   C19   A    
C36   O19   D    
C35   O18   S    
C25   O7    A    
C14   C34   S    
Cu1   Cu2   S    
C18   C37   S    
C34   O16   S    
Cu1   O3    S    
C9    H4    S    
C2    C27   S    
C9    C10   A    
C15   H2    S    
C5    C13   A    
C4    C29   S    
O12   H11   S    
C40   O28   S    
C28   C38   S    
C36   O20   S    
C33   O13   D    
C12   O4    A    
C31   O10   S    
Cu1   O1    S    
C3    C39   S    
O16   H13   S    
C12   O3    A    
C37   O22   S    
C4    C40   S    
C16   C17   A    
C6    C8    A    
C31   O9    D    
C37   O21   D    
C8    H3    S    
C2    C4    S    
O20   H15   S    
C25   O8    A    
Cu2   O8    S    
C29   C30   S    
C26   I1    S    
C27   H9    S    
C1    O1    A    
C38   O23   D    
C5    C23   S    
C27   H8    S    
C16   C20   A    
C5    C14   A    
C21   N1    A    
C3    C32   S    
C24   I3    S    
C38   O24   S    
C28   H1    S    
C26   C30   S    
Cu1   O5    S    
C39   O26   S    
Cu2   O4    S    
C22   C24   A    
Cu1   O7    S    
C29   I4    S    
C23   O5    A    
C12   C30   S    
C7    C35   S    
C26   H5    S    
C19   C20   A    
C28   C30   S    
C2    C3    S    
O18   H14   S    
C18   N2    A    
C11   C13   A    
C1    O2    A    
C32   O11   D    
C22   N1    A    
Cu2   N2    S    
C19   C24   A    
C2    C25   S    
C35   O17   D    
Cu2   O6    S    
C32   O12   S    
C10   C11   A    
O14   H12   S    
C13   C33   S    
C20   C21   A    
C34   O15   D    
C1    C6    S    
C14   C15   A    
O26   H18   S    
C29   I5    S    
