data_mof_unit_50032.cif
_audit_creation_date              2012-10-26T19:20:39-0400
_audit_creation_method            fapswitch 2.2
_symmetry_space_group_name_H-M    P1
_symmetry_Int_Tables_number       1
_space_group_crystal_system       triclinic
_cell_length_a                    10.709409
_cell_length_b                    11.304998
_cell_length_c                    9.971041
_cell_angle_alpha                 112.615606
_cell_angle_beta                  98.710403
_cell_angle_gamma                 89.436925
_cell_volume                      1099.96206921

loop_
_atom_site_label
_atom_site_type_symbol
_atom_type_description
_atom_site_fract_x
_atom_site_fract_y
_atom_site_fract_z
_atom_type_partial_charge
C1    C     C_R   0.496258 0.255040 0.440210 0.577592
C2    C     C_R   0.737082 0.481750 0.492947 0.560622
C3    C     C_R   0.140632 0.564185 0.783251 0.269271
C4    C     C_R   0.859225 0.439667 0.218408 0.264456
C5    C     C_R   0.107217 0.504040 0.872654 -0.100117
C6    C     C_R   0.892150 0.501486 0.130495 -0.101136
C7    C     C_R   0.010721 0.407664 0.817477 -0.149129
C8    C     C_R   0.988634 0.597930 0.186611 -0.145224
C9    C     C_R   0.933762 0.386566 0.683015 0.003240
C10   C     C_R   0.065906 0.617588 0.320484 0.001552
C11   C     C_R   0.957883 0.459476 0.601768 -0.035044
C12   C     C_R   0.503906 0.744927 0.559925 0.577793
C13   C     C_R   0.042357 0.542797 0.399770 -0.036292
C14   C     C_R   0.076820 0.525122 0.636787 0.024629
C15   C     C_R   0.923434 0.477135 0.364474 0.024348
C16   C     C_R   0.873108 0.457675 0.478316 0.002045
C17   C     C_R   0.127226 0.543779 0.522578 0.000937
C18   C     C_1   0.858621 0.267942 0.609390 0.247781
C19   C     C_1   0.140068 0.736657 0.396346 0.248368
C20   C     C_1   0.418800 0.850698 0.341661 0.314121
C21   C     C_1   0.576821 0.151613 0.661659 0.315651
C22   C     C_1   0.393628 0.399146 0.818230 0.288666
C23   C     C_2   0.498246 0.116687 0.405780 0.201540
C24   C     C_1   0.601727 0.606803 0.184825 0.298781
C25   C     C_1   0.652181 0.646508 0.942359 0.402739
C26   C     C_1   0.381145 0.327891 0.051155 0.412481
C27   C     C_2   0.503248 0.883340 0.595452 0.201913
C28   C     C_2   0.515145 0.069018 0.514817 -0.030336
C29   C     C_2   0.484004 0.931966 0.487340 -0.030193
C30   C     C_2   0.510396 0.508659 0.081870 0.075617
C31   C     C_2   0.491539 0.490759 0.919072 0.078001
C32   C     C_R   0.263022 0.518640 0.507230 0.560117
Cl1   Cl    Cl    0.247180 0.700042 0.864805 -0.484141
Cl2   Cl    Cl    0.753969 0.302884 0.134872 -0.491842
Cl3   Cl    Cl    0.518082 0.976034 0.787502 -0.411612
Cl4   Cl    Cl    0.490415 0.022373 0.215000 -0.412422
Cu1   Cu    Cu3+1 0.521920 0.521810 0.644910 1.085816
Cu2   Cu    Cu3+1 0.478080 0.478190 0.355090 1.075034
H1    H     H_    0.002553 0.657356 0.126426 0.164915
H2    H     H_    0.996695 0.349225 0.878765 0.157740
H3    H     H_    0.160766 0.527045 0.981488 0.139182
H4    H     H_    0.838842 0.478938 0.021705 0.137212
N1    N     N_2   0.445130 0.445420 0.137360 -0.301367
N2    N     N_1   0.327859 0.229695 0.981309 -0.172612
N3    N     N_2   0.554870 0.554580 0.862640 -0.284140
N4    N     N_1   0.802489 0.170588 0.546106 -0.247054
N5    N     N_1   0.195338 0.834260 0.461590 -0.248633
N6    N     N_1   0.365829 0.785641 0.226504 -0.183522
N7    N     N_1   0.627216 0.217900 0.777635 -0.187696
N8    N     N_1   0.315786 0.324634 0.737309 -0.269764
N9    N     N_1   0.675221 0.685651 0.267165 -0.256895
N10   N     N_1   0.733463 0.723418 0.006271 -0.227560
O1    O     O_R   0.511700 0.332340 0.577400 -0.544542
O2    O     O_R   0.488300 0.667660 0.422600 -0.543435
O3    O     O_R   0.474680 0.295500 0.332650 -0.431624
O4    O     O_R   0.525320 0.704500 0.667350 -0.422924
O5    O     O_R   0.338170 0.518410 0.622370 -0.464877
O6    O     O_R   0.661830 0.481590 0.377630 -0.467570
O7    O     O_R   0.301150 0.481570 0.377630 -0.514419
O8    O     O_R   0.698850 0.518430 0.622370 -0.516039

loop_
_geom_bond_atom_site_label_1
_geom_bond_atom_site_label_2
_ccdc_geom_bond_type
C6    C8    A    
C7    H2    S    
C2    O6    A    
Cu1   O5    S    
Cu1   Cu2   S    
C8    H1    S    
C27   C29   D    
C2    C16   S    
C11   C16   A    
Cu2   O2    S    
C13   C17   A    
C10   C19   S    
C22   N8    T    
Cu1   O1    S    
C7    C9    A    
C24   N9    T    
C21   N7    T    
C1    O3    A    
C25   N10   T    
C26   N2    T    
Cu2   N1    S    
C20   N6    T    
C23   C28   D    
C9    C11   A    
C14   C17   A    
C12   O4    A    
C3    C14   A    
C32   O5    A    
C4    C15   A    
C15   C16   A    
C18   N4    T    
C4    C6    A    
C28   C29   S    
C21   C28   S    
C26   N1    S    
C1    C23   S    
C4    Cl2   S    
C20   C29   S    
C13   C15   A    
C6    H4    S    
C30   C31   S    
C11   C14   A    
C19   N5    T    
C30   N1    D    
Cu1   O8    S    
C22   C31   S    
C3    Cl1   S    
C12   C27   S    
Cu1   N3    S    
Cu2   O7    S    
C25   N3    S    
C9    C18   S    
C2    O8    A    
C8    C10   A    
C23   Cl4   S    
C31   N3    D    
C5    C7    A    
C17   C32   S    
C1    O1    A    
C5    H3    S    
C32   O7    A    
C27   Cl3   S    
Cu2   O6    S    
Cu1   O4    S    
C12   O2    A    
Cu2   O3    S    
C24   C30   S    
C3    C5    A    
C10   C13   A    
