data_mof_unit_13109.cif
_audit_creation_date              2012-12-10T18:48:20-0500
_audit_creation_method            fapswitch 2.2
_symmetry_space_group_name_H-M    P1
_symmetry_Int_Tables_number       1
_space_group_crystal_system       triclinic
_cell_length_a                    10.636711
_cell_length_b                    9.864987
_cell_length_c                    11.546517
_cell_angle_alpha                 90.019248
_cell_angle_beta                  89.817885
_cell_angle_gamma                 90.00441
_cell_volume                      1211.58156491

loop_
_atom_site_label
_atom_site_type_symbol
_atom_type_description
_atom_site_fract_x
_atom_site_fract_y
_atom_site_fract_z
_atom_type_partial_charge
C1    C     C_R   0.260595 0.499999 0.500852 0.920322
C2    C     C_R   0.935896 0.514733 0.392471 0.149781
C3    C     C_R   0.933002 0.485353 0.606208 0.138535
C4    C     C_R   0.067001 0.514725 0.393792 0.138526
C5    C     C_R   0.871988 0.499998 0.498901 -0.122826
C6    C     C_R   0.128013 0.500002 0.501096 -0.122882
C7    C     C_R   0.581655 0.071905 0.568193 -0.061574
C8    C     C_R   0.418345 0.928095 0.431807 -0.061574
C9    C     C_R   0.418346 0.071826 0.431808 -0.061098
C10   C     C_R   0.581654 0.928174 0.568191 -0.061105
C11   C     C_3   0.134210 0.470364 0.721473 -0.868374
C12   C     C_R   0.739405 0.500001 0.499148 0.920318
C13   C     C_3   0.865784 0.529496 0.278524 -0.868241
C14   C     C_3   0.855451 0.471193 0.716885 -0.887186
C15   C     C_3   0.144557 0.529064 0.283120 -0.887035
C16   C     C_R   0.499084 0.499977 0.281882 0.882177
C17   C     C_R   0.500913 0.500023 0.718118 0.882193
C18   C     C_1   0.499253 0.499953 0.161459 -0.186644
C19   C     C_1   0.500743 0.500047 0.838541 -0.186637
C20   C     C_1   0.499679 0.499978 0.059314 0.002809
C21   C     C_1   0.500316 0.500022 0.940686 0.002807
C22   C     C_R   0.064104 0.485242 0.607525 0.149845
H1    H     H_    0.647001 0.126243 0.622790 0.129486
H2    H     H_    0.891011 0.444542 0.219739 0.239806
H3    H     H_    0.795609 0.379170 0.711463 0.238115
H4    H     H_    0.911141 0.462122 0.797157 0.247494
H5    H     H_    0.794061 0.561448 0.727463 0.229479
H6    H     H_    0.204412 0.621067 0.288675 0.238128
H7    H     H_    0.205923 0.438795 0.272424 0.229451
H8    H     H_    0.088880 0.538342 0.202838 0.247434
H9    H     H_    0.352998 0.873756 0.377210 0.129466
H10   H     H_    0.353004 0.126100 0.377207 0.131428
H11   H     H_    0.646995 0.873899 0.622793 0.131422
H12   H     H_    0.237661 0.471543 0.712728 0.225498
H13   H     H_    0.109238 0.555463 0.780196 0.239788
H14   H     H_    0.109144 0.372294 0.762738 0.243492
H15   H     H_    0.762331 0.527931 0.287244 0.225418
H16   H     H_    0.890594 0.627693 0.237342 0.243466
N1    N     N_R   0.500000 0.857200 0.500000 -0.081042
N2    N     N_R   0.500000 0.142800 0.500000 -0.081042
O1    O     O_R   0.316770 0.614620 0.499990 -0.617565
O2    O     O_R   0.683230 0.385380 0.500010 -0.617570
O3    O     O_R   0.683230 0.614620 0.500010 -0.617335
O4    O     O_R   0.316770 0.385380 0.499990 -0.617363
O5    O     O_R   0.500020 0.614670 0.334450 -0.613624
O6    O     O_R   0.499980 0.385330 0.665550 -0.613660
O7    O     O_R   0.499980 0.614670 0.665550 -0.611365
O8    O     O_R   0.500020 0.385330 0.334450 -0.611384
Zn1   Zn    Zn3+2 0.500000 0.653120 0.500000 0.950228
Zn2   Zn    Zn3+2 0.500000 0.346880 0.500000 0.950216

loop_
_geom_bond_atom_site_label_1
_geom_bond_atom_site_label_2
_ccdc_geom_bond_type
C16   O5    A    
C8    C9    A    
C7    C10   A    
C2    C4    A    
C7    N2    A    
C8    N1    A    
C14   H5    S    
C10   H11   S    
O6    Zn2   S    
C11   C22   S    
C13   H15   S    
C15   H8    S    
O5    Zn1   S    
C16   O8    A    
C4    C15   S    
O8    Zn2   S    
C15   H6    S    
O7    Zn1   S    
C16   C18   S    
C14   H4    S    
C1    O1    A    
C13   H16   S    
C3    C14   S    
O2    Zn2   S    
C7    H1    S    
O1    Zn1   S    
C11   H14   S    
C19   C21   T    
C15   H7    S    
C12   O3    A    
C18   C20   T    
C11   H12   S    
C14   H3    S    
N2    Zn2   S    
C2    C5    A    
C17   C19   S    
C1    C6    S    
C6    C22   A    
C17   O6    A    
C5    C12   S    
C4    C6    A    
O4    Zn2   S    
C2    C13   S    
O3    Zn1   S    
C3    C22   A    
C12   O2    A    
C1    O4    A    
C9    H10   S    
N1    Zn1   S    
C20   C21   S    
C8    H9    S    
C11   H13   S    
C9    N2    A    
C17   O7    A    
C13   H2    S    
C10   N1    A    
C3    C5    A    
