data_mof_unit_37549.cif
_audit_creation_date              2012-10-26T19:17:58-0400
_audit_creation_method            fapswitch 2.2
_symmetry_space_group_name_H-M    P1
_symmetry_Int_Tables_number       1
_space_group_crystal_system       triclinic
_cell_length_a                    10.870337
_cell_length_b                    12.335223
_cell_length_c                    13.275936
_cell_angle_alpha                 116.989073
_cell_angle_beta                  77.284931
_cell_angle_gamma                 100.972227
_cell_volume                      1538.97410976

loop_
_atom_site_label
_atom_site_type_symbol
_atom_type_description
_atom_site_fract_x
_atom_site_fract_y
_atom_site_fract_z
_atom_type_partial_charge
Br1   Br    Br    0.529465 0.948480 0.893098 -0.495033
Br2   Br    Br    0.951772 0.649661 0.452692 -0.524345
Br3   Br    Br    0.245230 0.439261 0.340215 -0.476008
C1    C     C_R   0.519421 0.854813 0.286878 0.509655
C2    C     C_R   0.259135 0.275434 0.312891 0.180472
C3    C     C_R   0.351013 0.204954 0.227397 0.152008
C4    C     C_R   0.737001 0.999908 0.501527 0.541388
C5    C     C_R   0.353203 0.083693 0.207081 -0.082001
C6    C     C_R   0.265591 0.032693 0.271839 -0.076861
C7    C     C_R   0.177943 0.104368 0.361384 0.005201
C8    C     C_R   0.257982 0.321987 0.970904 -0.103423
C9    C     C_R   0.437336 0.232891 0.830137 0.055448
C10   C     C_R   0.662824 0.799822 0.103608 -0.092067
C11   C     C_R   0.705337 0.714946 0.994010 0.102066
C12   C     C_R   0.658536 0.741210 0.729928 -0.104260
C13   C     C_R   0.637258 0.600141 0.946860 -0.085979
C14   C     C_R   0.527624 0.566500 0.010480 0.023051
C15   C     C_R   0.476740 0.658836 0.115999 0.015953
C16   C     C_R   0.478482 0.145979 0.712812 0.572141
C17   C     C_R   0.461467 0.447029 0.969239 0.047798
C18   C     C_R   0.333085 0.432281 0.019267 0.043797
C19   C     C_R   0.280026 0.527933 0.116763 -0.076692
C20   C     C_R   0.352540 0.638007 0.167477 -0.079143
C21   C     C_R   0.516385 0.340990 0.881616 0.076043
C22   C     C_R   0.308124 0.226306 0.873283 -0.113384
C23   C     C_R   0.040335 0.940423 0.551578 -0.091823
C24   C     C_R   0.549304 0.772364 0.165526 -0.025473
C25   C     C_R   0.705527 0.345002 0.328774 -0.097725
C26   C     C_R   0.328422 0.755771 0.647378 0.294689
C27   C     C_R   0.294682 0.658017 0.676151 -0.085702
C28   C     C_R   0.263172 0.998808 0.496921 0.533807
C29   C     C_R   0.359584 0.556484 0.619637 -0.140774
C30   C     C_R   0.460854 0.550053 0.531856 0.009954
C31   C     C_R   0.493816 0.652089 0.503154 0.180632
C32   C     C_R   0.530677 0.445885 0.472686 -0.002512
C33   C     C_R   0.633536 0.444844 0.386142 0.051634
C34   C     C_R   0.129738 0.997505 0.493057 0.000704
C35   C     C_R   0.663583 0.543148 0.357356 -0.109369
C36   C     C_R   0.596280 0.644978 0.415363 -0.065203
C37   C     C_R   0.502780 0.341780 0.495983 0.046507
C38   C     C_R   0.673761 0.245972 0.356258 0.061543
C39   C     C_R   0.653022 0.865902 0.767091 0.197510
C40   C     C_R   0.737134 0.929653 0.711505 -0.035782
C41   C     C_R   0.824987 0.868049 0.615350 0.019125
C42   C     C_R   0.832372 0.742199 0.580252 0.177450
C43   C     C_R   0.749047 0.680091 0.637992 -0.096003
C44   C     C_R   0.089343 0.052665 0.434691 -0.019168
C45   C     C_R   0.960029 0.054577 0.442404 -0.130155
C46   C     C_R   0.870541 0.997748 0.501855 0.007190
C47   C     C_R   0.911385 0.936451 0.554861 -0.002277
C48   C     C_R   0.174036 0.225305 0.380176 -0.103675
Cu1   Cu    Cu3+1 0.529370 0.098270 0.475420 0.946755
Cu2   Cu    Cu3+1 0.470630 0.901730 0.524580 1.007247
H1    H     H_    0.593304 0.691701 0.772751 0.141500
H2    H     H_    0.728379 0.168174 0.311804 0.129153
H3    H     H_    0.741642 0.542336 0.290282 0.159353
H4    H     H_    0.785077 0.343208 0.262644 0.140977
H5    H     H_    0.425371 0.333089 0.558884 0.124565
H6    H     H_    0.327887 0.485197 0.647752 0.105689
H7    H     H_    0.217151 0.660699 0.744112 0.159219
H8    H     H_    0.629772 0.716976 0.389755 0.181069
H9    H     H_    0.732143 0.026486 0.741418 0.165269
H10   H     H_    0.753504 0.583669 0.610803 0.159590
H11   H     H_    0.070572 0.896916 0.595034 0.194374
H12   H     H_    0.423457 0.028809 0.141516 0.183122
H13   H     H_    0.929156 0.096684 0.397360 0.136952
H14   H     H_    0.105421 0.280942 0.447757 0.153277
H15   H     H_    0.268376 0.938381 0.254410 0.116742
H16   H     H_    0.243652 0.150367 0.828093 0.149749
H17   H     H_    0.182571 0.516660 0.155558 0.167448
H18   H     H_    0.158332 0.312162 0.004781 0.142600
H19   H     H_    0.720307 0.885994 0.141664 0.145890
H20   H     H_    0.668340 0.540376 0.858881 0.155534
H21   H     H_    0.307875 0.709046 0.243978 0.150606
I1    I     I_    0.489538 0.276203 0.128064 -0.274969
I2    I     I_    0.716081 0.321885 0.842943 -0.346790
I3    I     I_    0.879006 0.756795 0.904044 -0.345736
I4    I     I_    0.214529 0.898393 0.751913 -0.274584
N1    N     N_R   0.573890 0.246290 0.438210 -0.240681
N2    N     N_R   0.426890 0.754320 0.561170 -0.226534
O1    O     O_R   0.536940 0.972510 0.318130 -0.511097
O2    O     O_R   0.487330 0.806530 0.359650 -0.509231
O3    O     O_R   0.705160 0.082990 0.479250 -0.501246
O4    O     O_R   0.655550 0.917010 0.520760 -0.531154
O5    O     O_R   0.512670 0.193470 0.640350 -0.504159
O6    O     O_R   0.463060 0.027490 0.681870 -0.454031
O7    O     O_R   0.344450 0.082990 0.479240 -0.506935
O8    O     O_R   0.294840 0.917010 0.520750 -0.480463

loop_
_geom_bond_atom_site_label_1
_geom_bond_atom_site_label_2
_ccdc_geom_bond_type
C5    C6    A    
C4    O3    A    
C32   C33   A    
C16   O6    A    
C3    I1    S    
C25   H4    S    
C41   C42   A    
Cu2   O4    S    
Cu1   O5    S    
C23   C47   A    
C35   C36   A    
C8    H18   S    
C8    C22   A    
C25   C38   A    
C14   C17   A    
C11   I3    S    
C23   H11   S    
C38   H2    S    
C31   N2    A    
C26   I4    S    
C17   C21   A    
C13   C14   A    
C27   H7    S    
Cu2   O6    S    
C34   C44   A    
Cu1   N1    S    
C6    C7    A    
C4    O4    A    
C5    H12   S    
C10   C11   A    
C7    C48   A    
C14   C15   A    
Br2   C42   S    
C36   H8    S    
C28   O7    A    
C1    O1    A    
C15   C20   A    
C12   H1    S    
Cu2   N2    S    
C37   H5    S    
C4    C46   S    
C21   I2    S    
C3    C5    A    
C16   O5    A    
C42   C43   A    
C8    C18   A    
C31   C36   A    
Cu2   O2    S    
Cu1   O3    S    
C40   C41   A    
C26   C27   A    
C44   C45   A    
C30   C31   A    
C37   N1    A    
C35   H3    S    
C48   H14   S    
C45   C46   A    
C11   C13   A    
C22   H16   S    
C39   C40   A    
C20   H21   S    
C1    C24   S    
Cu1   Cu2   S    
C41   C47   S    
C9    C21   A    
C28   O8    A    
Cu1   O7    S    
C10   C24   A    
C15   C24   A    
C12   C39   A    
Br3   C2    S    
C13   H20   S    
C38   N1    A    
C23   C34   A    
C10   H19   S    
C43   H10   S    
C29   H6    S    
C9    C22   A    
C29   C30   A    
C33   C35   A    
C32   C37   A    
C6    H15   S    
C27   C29   A    
C2    C3    A    
C26   N2    A    
C9    C16   S    
C30   C32   A    
Cu2   O8    S    
Cu1   O1    S    
C28   C34   S    
Br1   C39   S    
C1    O2    A    
C17   C18   A    
C25   C33   A    
C46   C47   A    
C7    C44   S    
C19   C20   A    
C2    C48   A    
C12   C43   A    
C45   H13   S    
C18   C19   A    
C19   H17   S    
C40   H9    S    
