data_mof_unit_11413.cif
_audit_creation_date              2012-12-10T18:12:38-0500
_audit_creation_method            fapswitch 2.2
_symmetry_space_group_name_H-M    P1
_symmetry_Int_Tables_number       1
_space_group_crystal_system       triclinic
_cell_length_a                    12.712885
_cell_length_b                    12.978815
_cell_length_c                    15.719516
_cell_angle_alpha                 91.529415
_cell_angle_beta                  102.674909
_cell_angle_gamma                 82.601608
_cell_volume                      2509.41505572

loop_
_atom_site_label
_atom_site_type_symbol
_atom_type_description
_atom_site_fract_x
_atom_site_fract_y
_atom_site_fract_z
_atom_type_partial_charge
C1    C     C_R   0.439536 0.691711 0.494648 0.854164
C2    C     C_3   0.503775 0.501062 0.917872 0.186180
C3    C     C_3   0.429057 0.437623 0.012320 -0.145435
C4    C     C_3   0.498669 0.499110 0.082664 0.192391
C5    C     C_3   0.531050 0.402998 0.974946 -0.179445
C6    C     C_3   0.600834 0.464380 0.047265 -0.222471
C7    C     C_1   0.504468 0.501041 0.826884 -0.007123
C8    C     C_1   0.496547 0.498350 0.173282 -0.058229
C9    C     C_R   0.701269 0.071118 0.639786 -0.199064
C10   C     C_R   0.594420 0.200073 0.536753 -0.055003
C11   C     C_R   0.297290 0.840620 0.450715 -0.181802
C12   C     C_R   0.501178 0.500389 0.661807 0.883997
C13   C     C_R   0.259252 0.945767 0.452662 -0.178363
C14   C     C_R   0.327559 0.016289 0.495798 0.152605
C15   C     C_R   0.438298 0.978220 0.533016 0.063151
C16   C     C_R   0.466385 0.871195 0.549218 0.052049
C17   C     C_R   0.523006 0.040728 0.554441 0.085378
C18   C     C_R   0.619744 0.005804 0.615712 0.166667
C19   C     C_R   0.633847 0.905386 0.649420 -0.244720
C20   C     C_R   0.559353 0.837331 0.614352 -0.179324
C21   C     C_R   0.518722 0.131545 0.508732 -0.241958
C22   C     C_R   0.687034 0.169739 0.602119 -0.195433
C23   C     C_R   0.560382 0.308310 0.511649 0.843354
C24   C     C_R   0.400382 0.802214 0.499706 -0.129900
C25   C     C_R   0.086822 0.341949 0.381870 -0.268978
C26   C     C_R   0.802377 0.620925 0.611456 -0.006076
C27   C     C_R   0.910363 0.633703 0.646893 0.133067
C28   C     C_R   0.990976 0.581560 0.608171 -0.168817
C29   C     C_R   0.963692 0.521926 0.531725 0.009855
C30   C     C_R   0.854348 0.502591 0.505792 0.206787
C31   C     C_R   0.041196 0.474593 0.484329 -0.028995
C32   C     C_R   0.009567 0.396244 0.422137 0.092088
C33   C     C_R   0.901036 0.373787 0.401213 -0.042349
C34   C     C_R   0.498879 0.499419 0.338203 0.894695
C35   C     C_R   0.826191 0.426802 0.443754 -0.277688
C36   C     C_R   0.148262 0.502678 0.494351 0.033522
C37   C     C_R   0.191412 0.368302 0.396452 0.271673
C38   C     C_3   0.471406 0.597430 0.026063 -0.232954
C39   C     C_3   0.572505 0.561787 0.988797 0.046607
C40   C     C_1   0.503731 0.500883 0.751340 -0.164314
C41   C     C_1   0.496562 0.498491 0.248699 -0.181569
C42   C     C_3   0.401899 0.535774 0.953807 -0.182842
H1    H     H_    0.455831 0.150383 0.450901 0.130191
H2    H     H_    0.244527 0.788797 0.413075 0.199302
H3    H     H_    0.175666 0.971769 0.421234 0.151696
H4    H     H_    0.573677 0.759044 0.639701 0.164893
H5    H     H_    0.067266 0.278525 0.337774 0.199073
H6    H     H_    0.738762 0.658290 0.641365 0.141079
H7    H     H_    0.447333 0.676921 0.048810 0.141851
H8    H     H_    0.074207 0.584255 0.641539 0.123858
H9    H     H_    0.745416 0.406675 0.427544 0.205376
H10   H     H_    0.682168 0.435540 0.087351 0.169430
H11   H     H_    0.555411 0.323575 0.952235 0.147083
H12   H     H_    0.369987 0.386610 0.024146 0.135401
H13   H     H_    0.320624 0.564871 0.913790 0.140255
H14   H     H_    0.746161 0.222795 0.625516 0.160911
H15   H     H_    0.705258 0.877614 0.698533 0.149492
H16   H     H_    0.774406 0.046741 0.688404 0.139736
N1    N     N_R   0.222180 0.444680 0.455580 -0.147017
N2    N     N_R   0.776980 0.554790 0.543960 -0.139524
O1    O     O_R   0.366730 0.627160 0.478790 -0.617923
O2    O     O_R   0.544830 0.662520 0.507160 -0.607696
O3    O     O_R   0.410960 0.482330 0.609040 -0.641439
O4    O     O_R   0.589060 0.517690 0.637410 -0.608286
O5    O     O_R   0.455170 0.337480 0.492840 -0.633781
O6    O     O_R   0.633270 0.372840 0.521210 -0.633842
O7    O     O_R   0.410940 0.482310 0.362590 -0.614689
O8    O     O_R   0.589040 0.517670 0.390960 -0.617353
Zn1   Zn    Zn3+2 0.381080 0.476390 0.481050 0.925087
Zn2   Zn    Zn3+2 0.618920 0.523610 0.518950 0.935536
C43   C     C_2   0.653391 0.631832 0.977660 0.373771
H17   H     H_    0.697394 0.669915 0.034171 0.066710
O9    O     O_2   0.670221 0.646503 0.905740 -0.583061
C44   C     C_3   0.274330 0.123725 0.515413 -0.436080
C45   C     C_3   0.281643 0.138832 0.613078 -0.808556
H18   H     H_    0.244924 0.076761 0.639201 0.259502
H19   H     H_    0.367617 0.137378 0.648450 0.261102
H20   H     H_    0.236802 0.215310 0.624692 0.242700
H21   H     H_    0.308634 0.187510 0.490870 0.215640
H22   H     H_    0.186715 0.134339 0.482723 0.200599
C46   C     C_3   0.262005 0.315967 0.337666 -0.408058
C47   C     C_3   0.226519 0.360788 0.245379 -0.817653
H23   H     H_    0.228733 0.446095 0.246671 0.276719
H24   H     H_    0.282380 0.324565 0.204614 0.236445
H25   H     H_    0.142815 0.344660 0.214966 0.266229
H26   H     H_    0.348186 0.321677 0.360569 0.259710
H27   H     H_    0.255644 0.231229 0.334510 0.165599
C48   C     C_2   0.858549 0.299406 0.332589 0.365825
H28   H     H_    0.797776 0.252285 0.342887 0.061646
O10   O     O_2   0.884112 0.295594 0.262004 -0.579248
C49   C     C_2   0.176391 0.603528 0.531538 0.420698
H29   H     H_    0.247926 0.607712 0.582759 0.093153
O11   O     O_2   0.118690 0.683815 0.504858 -0.585160
C50   C     C_3   0.939256 0.700831 0.726273 -0.447834
C51   C     C_3   0.916791 0.652523 0.806951 -0.814908
H30   H     H_    0.828866 0.645853 0.798306 0.287686
H31   H     H_    0.964020 0.574186 0.819392 0.257038
H32   H     H_    0.941409 0.702379 0.864543 0.254197
H33   H     H_    0.026629 0.711957 0.739428 0.215443
H34   H     H_    0.891377 0.778909 0.714260 0.206070

loop_
_geom_bond_atom_site_label_1
_geom_bond_atom_site_label_2
_ccdc_geom_bond_type
C3    C42   S    
C51   H30   S    
C4    C8    S    
C36   N1    A    
C1    O2    A    
C46   C47   S    
C51   H32   S    
C38   H7    S    
O6    Zn2   S    
C19   H15   S    
C26   C27   A    
C30   C35   A    
C14   C44   S    
C23   O6    A    
C5    H11   S    
C28   C29   A    
C33   C48   S    
C38   C42   S    
C38   C39   S    
C12   O4    A    
O4    Zn2   S    
C9    C22   A    
C15   C16   A    
C11   C24   A    
O2    Zn2   S    
C9    H16   S    
C2    C7    S    
C25   C37   A    
C21   H1    S    
C28   H8    S    
C2    C39   S    
C19   C20   A    
C30   N2    A    
C7    C40   T    
C50   H34   S    
C25   H5    S    
C46   H26   S    
C26   H6    S    
C25   C32   A    
C16   C24   A    
C44   H22   S    
C13   C14   A    
C37   C46   S    
C34   C41   S    
C10   C21   A    
C44   C45   S    
O3    Zn1   S    
C8    C41   T    
C4    C6    S    
C34   O8    A    
C49   H29   S    
C43   O9    D    
C12   O3    A    
C18   C19   A    
C22   H14   S    
C10   C22   A    
O7    Zn1   S    
C12   C40   S    
C45   H18   S    
C29   C30   A    
C42   H13   S    
C49   O11   D    
C31   C32   A    
C14   C15   A    
N2    Zn2   S    
C16   C20   A    
C17   C18   A    
C11   H2    S    
C46   H27   S    
C45   H19   S    
C37   N1    A    
N1    Zn1   S    
C36   C49   S    
C4    C38   S    
C47   H24   S    
C44   H21   S    
C35   H9    S    
C2    C5    S    
C3    C4    S    
O1    Zn1   S    
C15   C17   A    
C6    C39   S    
C48   O10   D    
C3    C5    S    
C1    O1    A    
C34   O7    A    
C51   H31   S    
C10   C23   S    
C47   H25   S    
C32   C33   A    
C23   O5    A    
C43   H17   S    
C29   C31   A    
C13   H3    S    
C11   C13   A    
C33   C35   A    
C5    C6    S    
C50   H33   S    
C2    C42   S    
O5    Zn1   S    
C3    H12   S    
C50   C51   S    
C45   H20   S    
C17   C21   A    
C9    C18   A    
C48   H28   S    
C1    C24   S    
O8    Zn2   S    
C47   H23   S    
C27   C28   A    
C39   C43   S    
C31   C36   A    
C27   C50   S    
C6    H10   S    
C26   N2    A    
C20   H4    S    
