data_mof_unit_33423.cif
_audit_creation_date              2012-10-26T20:43:32-0400
_audit_creation_method            fapswitch 2.2
_symmetry_space_group_name_H-M    P1
_symmetry_Int_Tables_number       1
_space_group_crystal_system       triclinic
_cell_length_a                    10.888847
_cell_length_b                    9.506535
_cell_length_c                    23.543531
_cell_angle_alpha                 90.000554
_cell_angle_beta                  90.962907
_cell_angle_gamma                 89.551347
_cell_volume                      2436.69455718

loop_
_atom_site_label
_atom_site_type_symbol
_atom_type_description
_atom_site_fract_x
_atom_site_fract_y
_atom_site_fract_z
_atom_type_partial_charge
C1    C     C_R   0.262360 0.500597 0.500221 0.569604
C2    C     C_R   0.609676 0.486829 0.703002 0.003738
C3    C     C_R   0.395506 0.514689 0.237020 -0.009161
C4    C     C_R   0.605726 0.484905 0.762797 -0.012852
C5    C     C_R   0.508339 0.497710 0.209438 0.160005
C6    C     C_R   0.493194 0.502179 0.790612 0.164265
C7    C     C_R   0.066309 0.395924 0.530706 -0.040454
C8    C     C_R   0.933706 0.604045 0.469250 -0.040058
C9    C     C_R   0.938150 0.393531 0.529656 -0.054364
C10   C     C_R   0.061872 0.606339 0.470247 -0.054119
C11   C     C_R   0.871631 0.498376 0.499344 -0.024818
C12   C     C_R   0.737644 0.499398 0.499764 0.569276
C13   C     C_R   0.128380 0.501588 0.500613 -0.024781
C14   C     C_R   0.447406 0.074905 0.456048 0.040169
C15   C     C_R   0.552590 0.925095 0.543953 0.040800
C16   C     C_R   0.552018 0.073853 0.544067 0.043127
C17   C     C_R   0.447969 0.926147 0.455935 0.042743
C18   C     C_R   0.499234 0.499719 0.391173 0.582965
C19   C     C_R   0.500772 0.500280 0.608828 0.582362
C20   C     C_R   0.529998 0.619853 0.880134 0.458094
C21   C     C_R   0.473365 0.379241 0.119951 0.462769
C22   C     C_R   0.457379 0.384264 0.879723 0.438016
C23   C     C_R   0.618718 0.480621 0.241176 0.076569
C24   C     C_R   0.544142 0.615531 0.120317 0.449410
C25   C     C_R   0.450830 0.383455 0.939689 0.004348
C26   C     C_R   0.551385 0.616066 0.060369 0.014638
C27   C     C_R   0.499340 0.500283 0.969973 -0.058775
C28   C     C_R   0.503487 0.498893 0.030085 -0.058046
C29   C     C_R   0.543695 0.618515 0.939971 0.002606
C30   C     C_R   0.459729 0.380350 0.060095 0.011519
C31   C     C_R   0.398035 0.270094 0.969868 0.035198
C32   C     C_R   0.604267 0.729411 0.030226 0.042315
C33   C     C_R   0.403323 0.267990 0.029815 0.042960
C34   C     C_R   0.382591 0.519478 0.759117 0.076527
C35   C     C_R   0.600725 0.730459 0.970258 0.035625
C36   C     C_2   0.324036 0.161346 0.939822 0.660850
C37   C     C_2   0.676966 0.838774 0.060561 0.661851
C38   C     C_2   0.336136 0.156041 0.060194 0.659190
C39   C     C_2   0.670068 0.841018 0.940064 0.659980
C40   C     C_2   0.737844 0.463203 0.211548 0.632794
C41   C     C_2   0.264202 0.537611 0.789311 0.639042
C42   C     C_1   0.725024 0.449942 0.334320 0.277684
C43   C     C_1   0.275390 0.549769 0.666077 0.272946
C44   C     C_2   0.270509 0.517409 0.325597 0.579920
C45   C     C_R   0.614497 0.479542 0.301064 -0.073700
C46   C     C_2   0.729934 0.482478 0.673999 0.584208
C47   C     C_1   0.283970 0.529237 0.202939 0.314111
C48   C     C_1   0.717540 0.469741 0.796642 0.314726
C49   C     C_1   0.133333 0.292513 0.565011 0.270472
C50   C     C_1   0.866679 0.707495 0.434967 0.270413
C51   C     C_1   0.876476 0.284522 0.561402 0.276588
C52   C     C_1   0.123579 0.715059 0.438354 0.276114
C53   C     C_R   0.386242 0.520536 0.699165 -0.078073
C54   C     C_R   0.501428 0.497960 0.328731 -0.045515
C55   C     C_R   0.499042 0.502025 0.671282 -0.044485
C56   C     C_R   0.391029 0.512977 0.296809 0.003585
Cu1   Cu    Cu3+1 0.500000 0.640660 0.500000 1.033359
Cu2   Cu    Cu3+1 0.500000 0.359340 0.500000 1.032474
H1    H     H_    0.404734 0.131093 0.420901 0.154346
H2    H     H_    0.173756 0.623881 0.855019 0.366669
H3    H     H_    0.157190 0.425764 0.381136 0.342030
H4    H     H_    0.842997 0.574702 0.618507 0.342843
H5    H     H_    0.595260 0.868908 0.579100 0.155233
H6    H     H_    0.592834 0.129191 0.579611 0.154249
H7    H     H_    0.407134 0.870809 0.420397 0.154042
H8    H     H_    0.305197 0.957304 0.918085 0.368187
H9    H     H_    0.824257 0.882473 0.110357 0.368371
H10   H     H_    0.194455 0.106956 0.110357 0.364856
H11   H     H_    0.683818 0.045825 0.918884 0.362049
H12   H     H_    0.917931 0.510947 0.208669 0.375788
N1    N     N_R   0.492281 0.502456 0.851785 -0.387606
N2    N     N_1   0.813515 0.789710 0.407650 -0.226419
N3    N     N_1   0.828691 0.196890 0.586758 -0.240574
N4    N     N_1   0.171403 0.802438 0.412873 -0.242800
N5    N     N_R   0.509841 0.497156 0.148271 -0.392946
N6    N     N_R   0.500000 0.852070 0.500000 -0.240146
N7    N     N_R   0.500000 0.147930 0.500000 -0.240107
N8    N     N_1   0.813298 0.425177 0.360606 -0.253946
N9    N     N_1   0.186861 0.574181 0.639923 -0.250259
N10   N     N_1   0.195109 0.540728 0.175614 -0.197578
N11   N     N_1   0.806638 0.457752 0.823767 -0.164498
N12   N     N_1   0.186494 0.210328 0.592345 -0.224661
O1    O     O_R   0.319640 0.618740 0.500000 -0.494536
O2    O     O_2   0.451788 0.261665 0.150149 -0.411729
O3    O     O_2   0.431479 0.267881 0.849146 -0.421437
O4    O     O_2   0.568813 0.732297 0.150861 -0.416306
O5    O     O_2   0.228948 0.195436 0.914900 -0.433480
O6    O     O_R   0.363139 0.020982 0.940086 -0.588005
O7    O     O_2   0.644046 0.961981 0.058919 -0.397682
O8    O     O_R   0.782748 0.799449 0.091282 -0.631645
O9    O     O_2   0.372055 0.034014 0.058227 -0.404067
O10   O     O_R   0.232157 0.191534 0.091304 -0.642533
O11   O     O_2   0.762882 0.809067 0.914355 -0.450105
O12   O     O_R   0.680360 0.381260 0.500000 -0.494979
O13   O     O_R   0.629105 0.980670 0.941075 -0.586874
O14   O     O_2   0.744088 0.390405 0.168853 -0.451473
O15   O     O_R   0.842935 0.530771 0.232416 -0.635954
O16   O     O_2   0.171490 0.479197 0.771604 -0.432599
O17   O     O_R   0.258833 0.620815 0.838198 -0.656544
O18   O     O_2   0.192766 0.604792 0.311579 -0.466517
O19   O     O_R   0.244564 0.417839 0.367281 -0.685987
O20   O     O_2   0.807635 0.394768 0.687716 -0.455708
O21   O     O_R   0.755716 0.582546 0.632486 -0.684253
O22   O     O_R   0.680360 0.618740 0.500000 -0.484045
O23   O     O_R   0.319640 0.381260 0.500000 -0.484235
O24   O     O_R   0.499960 0.618810 0.417880 -0.502993
O25   O     O_R   0.500040 0.381190 0.582120 -0.503460
O26   O     O_R   0.500040 0.618810 0.582120 -0.483488
O27   O     O_R   0.499960 0.381190 0.417880 -0.484057
O28   O     O_2   0.552480 0.737304 0.849998 -0.413186

loop_
_geom_bond_atom_site_label_1
_geom_bond_atom_site_label_2
_ccdc_geom_bond_type
C25   C31   A    
C26   C32   A    
C23   C45   A    
C27   C29   A    
Cu2   O27   S    
C35   C39   S    
C9    C51   S    
C18   O27   A    
H2    O17   S    
C10   C52   S    
C2    C46   S    
C14   H1    S    
C46   O20   D    
C37   O8    S    
C1    O1    A    
Cu1   N6    S    
C24   C26   A    
Cu2   O25   S    
C52   N4    T    
C2    C55   A    
H8    O6    S    
C22   O3    S    
C43   N9    T    
C23   C40   S    
C38   O10   S    
C48   N11   T    
C16   N7    A    
C14   N7    A    
C50   N2    T    
C39   O11   D    
Cu2   N7    S    
C43   C53   S    
C22   C25   A    
C17   N6    A    
Cu1   O1    S    
C20   N1    A    
H12   O15   S    
C19   O26   A    
C15   N6    A    
C14   C17   A    
C12   O12   A    
C34   C41   S    
C47   N10   T    
C40   O14   D    
C20   C29   A    
C53   C55   A    
C36   O5    D    
C6    N1    S    
C54   C56   A    
C32   C35   A    
C7    C49   S    
C4    C6    A    
C40   O15   S    
C3    C5    A    
C38   O9    D    
H9    O8    S    
C36   O6    S    
H3    O19   S    
C6    C34   A    
C42   C45   S    
C49   N12   T    
C5    N5    S    
C2    C4    A    
C18   O24   A    
C3    C56   A    
C44   C56   S    
C5    C23   A    
C21   O2    S    
C11   C12   S    
C31   C33   A    
C32   C37   S    
C9    C11   A    
C39   O13   S    
C20   O28   S    
C45   C54   A    
C42   N8    T    
C1    C13   S    
C8    C50   S    
C22   N1    A    
H4    O21   S    
C4    C48   S    
C19   C55   S    
C7    C9    A    
Cu1   O22   S    
C21   N5    A    
C30   C33   A    
C31   C36   S    
C46   O21   S    
C17   H7    S    
C51   N3    T    
H11   O13   S    
C10   C13   A    
C41   O17   S    
C44   O19   S    
C24   N5    A    
C12   O22   A    
C25   C27   A    
C21   C30   A    
C29   C35   A    
C26   C28   A    
C33   C38   S    
C37   O7    D    
Cu2   O23   S    
C28   C30   A    
Cu2   O12   S    
C44   O18   D    
Cu1   Cu2   S    
C8    C11   A    
C3    C47   S    
H10   O10   S    
Cu1   O24   S    
C18   C54   S    
C7    C13   A    
Cu1   O26   S    
C34   C53   A    
C8    C10   A    
C27   C28   A    
C15   H5    S    
C41   O16   D    
C16   H6    S    
C24   O4    S    
C15   C16   A    
C1    O23   A    
C19   O25   A    
