data_mof_unit_29437.cif
_audit_creation_date              2012-12-10T17:16:37-0500
_audit_creation_method            fapswitch 2.2
_symmetry_space_group_name_H-M    P1
_symmetry_Int_Tables_number       1
_space_group_crystal_system       triclinic
_cell_length_a                    10.173567
_cell_length_b                    10.411529
_cell_length_c                    10.806937
_cell_angle_alpha                 91.672806
_cell_angle_beta                  95.773774
_cell_angle_gamma                 79.538584
_cell_volume                      1119.8882423

loop_
_atom_site_label
_atom_site_type_symbol
_atom_type_description
_atom_site_fract_x
_atom_site_fract_y
_atom_site_fract_z
_atom_type_partial_charge
C1    C     C_R   0.443616 0.514724 0.267618 1.009075
C2    C     C_R   0.556240 0.492554 0.732903 0.982426
C3    C     C_2   0.411264 0.534704 0.135924 -0.309534
C4    C     C_2   0.587808 0.499936 0.865602 -0.249134
C5    C     C_2   0.511618 0.540879 0.067332 -0.132758
C6    C     C_2   0.487363 0.543111 0.934957 -0.124127
C7    C     C_2   0.072075 0.491666 0.487009 -0.117158
C8    C     C_2   0.927723 0.508651 0.512936 -0.115074
C9    C     C_R   0.496255 0.259879 0.477873 0.938814
C10   C     C_R   0.503628 0.740338 0.521613 0.915091
C11   C     C_R   0.723139 0.044200 0.389791 -0.143186
C12   C     C_R   0.276507 0.956633 0.608669 -0.171940
C13   C     C_R   0.841460 0.950141 0.404970 0.352689
C14   C     C_R   0.158322 0.050942 0.593251 0.431308
C15   C     C_R   0.861608 0.865103 0.506134 -0.277683
C16   C     C_R   0.138516 0.135669 0.491833 -0.249069
C17   C     C_R   0.754422 0.857616 0.575740 0.438877
C18   C     C_R   0.245866 0.142717 0.422198 0.421515
C19   C     C_R   0.625524 0.923806 0.532332 -0.054971
C20   C     C_R   0.374481 0.076452 0.465937 -0.048353
C21   C     C_R   0.614934 0.032977 0.457574 -0.024719
C22   C     C_R   0.384899 0.967452 0.540899 -0.022299
C23   C     C_R   0.507108 0.878852 0.551939 -0.099151
C24   C     C_R   0.492792 0.121539 0.446771 -0.094782
H1    H     H_    0.040719 0.194256 0.467023 0.183159
H2    H     H_    0.959446 0.806432 0.530603 0.190165
H3    H     H_    0.710835 0.117742 0.318636 0.187990
H4    H     H_    0.288573 0.883299 0.679997 0.189289
H5    H     H_    0.384179 0.572579 0.894641 0.198215
H6    H     H_    0.614951 0.534197 0.107899 0.200626
H7    H     H_    0.690777 0.470881 0.906351 0.173266
H8    H     H_    0.308280 0.540823 0.094830 0.180768
H9    H     H_    0.892473 0.573051 0.587100 0.225563
H10   H     H_    0.107188 0.427393 0.412793 0.215235
H11   H     H_    0.878521 0.388526 0.377719 0.207866
H12   H     H_    0.121793 0.611578 0.622216 0.220303
N1    N     N_2   0.157300 0.551390 0.551120 -0.190544
N2    N     N_2   0.842700 0.448610 0.448880 -0.194695
O1    O     O_R   0.568940 0.489660 0.307530 -0.630642
O2    O     O_R   0.431060 0.510340 0.692470 -0.628985
O3    O     O_R   0.348880 0.522640 0.340350 -0.564475
O4    O     O_R   0.651120 0.477360 0.659650 -0.565641
O5    O     O_R   0.610030 0.300280 0.483580 -0.594479
O6    O     O_R   0.389970 0.699720 0.516420 -0.597753
O7    O     O_R   0.389970 0.333270 0.516400 -0.609541
O8    O     O_R   0.610030 0.666730 0.483600 -0.622586
Zn1   Zn    Zn3+2 0.646940 0.477980 0.478080 1.012937
Zn2   Zn    Zn3+2 0.353060 0.522020 0.521920 1.019035
S1    S     S_3+6 0.956855 0.930917 0.292318 0.068993
O9    O     O_2   0.947057 0.057399 0.225870 -0.191073
O10   O     O_2   0.097712 0.886890 0.350624 -0.304081
O11   O     O_3   0.917995 0.817201 0.188234 -0.476768
H13   H     H_    0.926539 0.736501 0.237039 0.344023
S2    S     S_3+6 0.042639 0.070847 0.705683 0.057287
O12   O     O_2   0.902289 0.115276 0.646334 -0.304876
O13   O     O_2   0.051892 0.944859 0.772832 -0.222143
O14   O     O_3   0.082108 0.185542 0.808376 -0.520515
H14   H     H_    0.016177 0.191259 0.870718 0.412253
S3    S     S_3+6 0.785144 0.804947 0.731945 0.061104
O15   O     O_2   0.772025 0.924414 0.814434 -0.173080
O16   O     O_2   0.682965 0.726335 0.761345 -0.362039
O17   O     O_3   0.940058 0.716678 0.762059 -0.584787
H15   H     H_    0.947015 0.694697 0.851309 0.408497
S4    S     S_3+6 0.215623 0.193471 0.265277 0.056369
O18   O     O_2   0.220511 0.072785 0.184834 -0.177875
O19   O     O_2   0.080103 0.278569 0.239848 -0.322286
O20   O     O_3   0.335169 0.272620 0.227384 -0.617858
H16   H     H_    0.325448 0.274134 0.135287 0.387923

loop_
_geom_bond_atom_site_label_1
_geom_bond_atom_site_label_2
_ccdc_geom_bond_type
C10   O8    A    
C2    C4    S    
C9    C24   S    
C9    O7    A    
O17   H15   S    
C12   C22   A    
C10   C23   S    
C20   C22   A    
O5    Zn1   S    
S2    O12   D    
C19   C23   A    
C11   H3    S    
C8    H9    S    
S1    O11   S    
S4    O18   D    
H11   N2    S    
S1    O10   D    
O14   H14   S    
S3    O15   D    
C14   S2    S    
N1    Zn2   S    
C11   C13   A    
C18   S4    S    
N2    Zn1   S    
C5    C6    S    
C8    N2    D    
C2    O4    A    
C13   S1    S    
C16   C18   A    
H12   N1    S    
C19   C21   A    
O3    Zn2   S    
C17   S3    S    
C5    H6    S    
C18   C20   A    
O4    Zn1   S    
C13   C15   A    
C7    N1    D    
C3    H8    S    
C20   C24   A    
C7    H10   S    
C14   C16   A    
C9    O5    A    
C4    H7    S    
S3    O16   D    
C1    O1    A    
C10   O6    A    
O20   H16   S    
S3    O17   S    
S4    O20   S    
C2    O2    A    
C7    C8    S    
C6    H5    S    
O11   H13   S    
C12   H4    S    
O1    Zn1   S    
S1    O9    D    
C21   C24   A    
C1    O3    A    
C16   H1    S    
C15   C17   A    
O2    Zn2   S    
O8    Zn1   S    
C17   C19   A    
C15   H2    S    
O7    Zn2   S    
C1    C3    S    
C22   C23   A    
C4    C6    D    
C11   C21   A    
O6    Zn2   S    
C12   C14   A    
S2    O13   D    
C3    C5    D    
S2    O14   S    
S4    O19   D    
