data_mof_unit_29849.cif
_audit_creation_date              2012-12-10T16:49:30-0500
_audit_creation_method            fapswitch 2.2
_symmetry_space_group_name_H-M    P1
_symmetry_Int_Tables_number       1
_space_group_crystal_system       triclinic
_cell_length_a                    7.726675
_cell_length_b                    8.608147
_cell_length_c                    12.840073
_cell_angle_alpha                 90.939297
_cell_angle_beta                  86.249157
_cell_angle_gamma                 92.455293
_cell_volume                      851.332660974

loop_
_atom_site_label
_atom_site_type_symbol
_atom_type_description
_atom_site_fract_x
_atom_site_fract_y
_atom_site_fract_z
_atom_type_partial_charge
C1    C     C_R   0.457124 0.205735 0.495426 0.958779
C2    C     C_R   0.707448 0.419191 0.133065 0.139058
C3    C     C_R   0.564447 0.442751 0.866731 -0.290351
C4    C     C_R   0.435553 0.557249 0.133269 -0.290351
C5    C     C_R   0.566778 0.460663 0.972875 0.133463
C6    C     C_R   0.433222 0.539336 0.027125 0.133464
C7    C     C_2   0.450067 0.045275 0.472040 -0.077444
C8    C     C_2   0.549933 0.954725 0.527960 -0.077444
C9    C     C_3   0.857402 0.358258 0.190491 -0.358748
C10   C     C_3   0.997898 0.276091 0.123473 -0.917711
C11   C     C_3   0.142598 0.641742 0.809508 -0.358748
C12   C     C_R   0.542876 0.794265 0.504574 0.958777
C13   C     C_3   0.002102 0.723908 0.876526 -0.917712
C14   C     C_3   0.358599 0.993516 0.372977 -0.411015
C15   C     C_3   0.400497 0.101015 0.280232 -0.892243
C16   C     C_3   0.641401 0.006484 0.627023 -0.411015
C17   C     C_3   0.599498 0.898987 0.719768 -0.892243
C18   C     C_R   0.462214 0.502910 0.700393 0.860918
C19   C     C_R   0.537786 0.497090 0.299607 0.860919
C20   C     C_R   0.566016 0.493174 0.187170 -0.119934
C21   C     C_R   0.433983 0.506825 0.812829 -0.119934
C22   C     C_R   0.296418 0.596751 0.975436 -0.212456
C23   C     C_R   0.703582 0.403249 0.024564 -0.212455
C24   C     C_R   0.292551 0.580809 0.866935 0.139060
H1    H     H_    0.331327 0.618452 0.174628 0.163959
H2    H     H_    0.922720 0.457878 0.230408 0.220076
H3    H     H_    0.804873 0.274220 0.250386 0.219682
H4    H     H_    0.938038 0.643512 0.935255 0.268106
H5    H     H_    0.058388 0.828518 0.915749 0.259881
H6    H     H_    0.901537 0.762122 0.825860 0.263899
H7    H     H_    0.195126 0.725780 0.749614 0.219682
H8    H     H_    0.077280 0.542121 0.769591 0.220076
H9    H     H_    0.337972 0.213511 0.293570 0.281096
H10   H     H_    0.542923 0.120478 0.266736 0.253793
H11   H     H_    0.349395 0.046829 0.208720 0.247280
H12   H     H_    0.668673 0.381548 0.825372 0.163959
H13   H     H_    0.396950 0.877911 0.342723 0.225535
H14   H     H_    0.215980 0.987909 0.391459 0.222734
H15   H     H_    0.457071 0.879529 0.733264 0.253794
H16   H     H_    0.662018 0.786488 0.706432 0.281095
H17   H     H_    0.650601 0.953172 0.791281 0.247280
H18   H     H_    0.784021 0.012086 0.608542 0.222733
H19   H     H_    0.603055 0.122091 0.657276 0.225536
H20   H     H_    0.194381 0.653764 0.021091 0.155780
H21   H     H_    0.805618 0.346235 0.978909 0.155780
H22   H     H_    0.998157 0.614145 0.422038 0.186106
H23   H     H_    0.001843 0.385854 0.577962 0.186107
H24   H     H_    0.941612 0.171481 0.084251 0.259881
H25   H     H_    0.061962 0.356488 0.064745 0.268106
H26   H     H_    0.098463 0.237877 0.174140 0.263899
N1    N     N_2   0.054030 0.541640 0.471970 -0.177313
N2    N     N_2   0.945970 0.458360 0.528030 -0.177313
O1    O     O_R   0.609680 0.261530 0.506880 -0.634878
O2    O     O_R   0.390320 0.738470 0.493120 -0.634877
O3    O     O_R   0.323330 0.288220 0.488910 -0.619987
O4    O     O_R   0.676670 0.711780 0.511090 -0.619987
O5    O     O_R   0.619510 0.488830 0.661140 -0.624447
O6    O     O_R   0.380490 0.511170 0.338860 -0.624447
O7    O     O_R   0.333160 0.515520 0.643180 -0.639035
O8    O     O_R   0.666840 0.484480 0.356820 -0.639036
Zn1   Zn    Zn3+2 0.691200 0.482180 0.511990 0.915416
Zn2   Zn    Zn3+2 0.308800 0.517820 0.488010 0.915416

loop_
_geom_bond_atom_site_label_1
_geom_bond_atom_site_label_2
_ccdc_geom_bond_type
O6    Zn2   S    
C13   H4    S    
O5    Zn1   S    
H23   N2    S    
C23   H21   S    
C19   O8    A    
C14   H14   S    
C18   C21   S    
O2    Zn2   S    
C9    C10   S    
C11   C24   S    
C18   O5    A    
C19   C20   S    
C5    C23   A    
C8    C12   S    
C6    C22   A    
C4    H1    S    
C1    O3    A    
C11   H7    S    
C7    C8    D    
C8    C16   S    
C1    C7    S    
C14   H13   S    
C11   C13   S    
C16   H19   S    
C12   O4    A    
N1    Zn2   S    
C3    H12   S    
C15   H11   S    
C9    H2    S    
C17   H17   S    
N2    Zn1   S    
C19   O6    A    
C10   H24   S    
C5    C6    A    
C22   C24   A    
C3    C21   A    
C10   H25   S    
C2    C20   A    
N1    N2    D    
C10   H26   S    
O3    Zn2   S    
C16   H18   S    
C18   O7    A    
C13   H6    S    
C9    H3    S    
C4    C6    A    
C17   H15   S    
C21   C24   A    
C13   H5    S    
C2    C23   A    
C1    O1    A    
O4    Zn1   S    
C16   C17   S    
O7    Zn2   S    
C22   H20   S    
C15   H10   S    
C3    C5    A    
C14   C15   S    
C2    C9    S    
O1    Zn1   S    
H22   N1    S    
C15   H9    S    
C7    C14   S    
C12   O2    A    
O8    Zn1   S    
C11   H8    S    
C17   H16   S    
C4    C20   A    
