data_mof_unit_48268.cif
_audit_creation_date              2012-12-10T17:19:54-0500
_audit_creation_method            fapswitch 2.2
_symmetry_space_group_name_H-M    P1
_symmetry_Int_Tables_number       1
_space_group_crystal_system       triclinic
_cell_length_a                    9.656811
_cell_length_b                    10.786807
_cell_length_c                    15.490885
_cell_angle_alpha                 87.287851
_cell_angle_beta                  73.718675
_cell_angle_gamma                 89.930858
_cell_volume                      1547.05689377

loop_
_atom_site_label
_atom_site_type_symbol
_atom_type_description
_atom_site_fract_x
_atom_site_fract_y
_atom_site_fract_z
_atom_type_partial_charge
C1    C     C_R   0.999534 0.262730 0.501168 0.828414
C2    C     C_R   0.668038 0.537298 0.903598 0.039433
C3    C     C_R   0.763669 0.587324 0.948485 0.074832
C4    C     C_R   0.517911 0.525871 0.948247 0.069796
C5    C     C_R   0.468765 0.546739 0.041510 0.000340
C6    C     C_R   0.565339 0.598739 0.083860 -0.232108
C7    C     C_R   0.709306 0.621979 0.037837 0.336826
C8    C     C_R   0.414564 0.498405 0.902287 -0.188901
C9    C     C_R   0.268763 0.485915 0.947704 -0.227053
C10   C     C_R   0.221592 0.495272 0.040681 0.153995
C11   C     C_R   0.322200 0.520980 0.088781 0.107592
C12   C     C_R   0.917791 0.502249 0.671847 0.748741
C13   C     C_R   0.074927 0.478403 0.086461 -0.140005
C14   C     C_R   0.027514 0.485215 0.179786 -0.149597
C15   C     C_R   0.273932 0.515734 0.183100 -0.168674
C16   C     C_R   0.049269 0.120614 0.653225 -0.184033
C17   C     C_R   0.075337 0.051965 0.725532 -0.127482
C18   C     C_R   0.075991 0.922940 0.726390 -0.112288
C19   C     C_R   0.050142 0.861810 0.655066 -0.180137
C20   C     C_R   0.024113 0.929465 0.580944 0.112811
C21   C     C_R   0.024488 0.060672 0.579469 0.097671
C22   C     C_R   0.997768 0.128023 0.504969 -0.188533
C23   C     C_R   0.998022 0.736469 0.503876 0.826055
C24   C     C_R   0.966068 0.065473 0.434684 -0.040158
C25   C     C_R   0.963046 0.936963 0.438354 -0.177266
C26   C     C_R   0.994540 0.869585 0.508986 -0.063378
C27   C     C_R   0.692724 0.683698 0.400651 -0.139155
C28   C     C_R   0.643661 0.799301 0.383143 -0.261330
C29   C     C_R   0.497038 0.818604 0.400109 -0.083531
C30   C     C_R   0.405699 0.712814 0.415944 0.352832
C31   C     C_R   0.447319 0.598926 0.455453 0.104011
C32   C     C_R   0.597512 0.592679 0.452318 0.163851
C33   C     C_R   0.553519 0.410107 0.544633 -0.035253
C34   C     C_R   0.082066 0.500043 0.327893 0.906748
C35   C     C_R   0.406715 0.408959 0.543368 -0.043959
C36   C     C_R   0.870930 0.520027 0.769034 -0.032725
C37   C     C_R   0.127492 0.501232 0.228883 -0.059175
C38   C     C_R   0.911217 0.602787 0.902431 -0.168529
C39   C     C_R   0.964135 0.569871 0.813388 -0.239591
C40   C     C_R   0.725763 0.499903 0.815215 -0.203258
Cu1   Cu    Cu3+1 0.140660 0.499990 0.500010 0.988014
Cu2   Cu    Cu3+1 0.859340 0.500010 0.499990 0.958118
H1    H     H_    0.996950 0.459668 0.050122 0.157929
H2    H     H_    0.047246 0.220519 0.656498 0.132425
H3    H     H_    0.094196 0.099135 0.781420 0.143605
H4    H     H_    0.095354 0.869930 0.782896 0.147543
H5    H     H_    0.049104 0.761546 0.659097 0.133918
H6    H     H_    0.945390 0.888472 0.382560 0.155088
H7    H     H_    0.591287 0.336455 0.581822 0.134572
H8    H     H_    0.806204 0.671113 0.376172 0.214615
H9    H     H_    0.720890 0.872610 0.353364 0.231363
H10   H     H_    0.350376 0.518127 0.222024 0.187267
H11   H     H_    0.336084 0.334296 0.579340 0.134280
H12   H     H_    0.913641 0.472768 0.213709 0.188576
H13   H     H_    0.192891 0.466685 0.909917 0.142090
H14   H     H_    0.986511 0.641887 0.934211 0.190159
H15   H     H_    0.076968 0.586823 0.778565 0.151863
H16   H     H_    0.659697 0.453925 0.780498 0.142047
H17   H     H_    0.529446 0.628911 0.151926 0.212229
H18   H     H_    0.441960 0.491469 0.830302 0.137563
N1    N     N_R   0.648320 0.501210 0.499140 -0.189466
N2    N     N_R   0.352470 0.501290 0.499110 -0.186885
O1    O     O_R   0.118810 0.319640 0.500010 -0.574479
O2    O     O_R   0.881240 0.319660 0.500000 -0.577338
O3    O     O_R   0.055570 0.499980 0.629840 -0.602901
O4    O     O_R   0.818000 0.500010 0.629830 -0.582519
O5    O     O_R   0.118760 0.680340 0.500000 -0.544352
O6    O     O_R   0.881190 0.680360 0.499990 -0.609011
O7    O     O_R   0.182000 0.499990 0.370170 -0.521124
O8    O     O_R   0.944430 0.500020 0.370160 -0.605746
Cl1   Cl    Cl    0.816081 0.697907 0.095363 -0.635001
C41   C     C_2   0.949564 0.130472 0.352043 0.875011
O9    O     O_2   0.852337 0.100273 0.320688 -0.553339
O10   O     O_R   0.050736 0.220556 0.306784 -0.779061
H19   H     H_    0.035615 0.248696 0.246845 0.332217
C42   C     C_2   0.445777 0.945675 0.383840 0.944422
O11   O     O_2   0.532411 0.029991 0.352141 -0.546516
O12   O     O_R   0.298425 0.970075 0.406496 -0.735886
H20   H     H_    0.278218 0.059726 0.391952 0.345174
Cl2   Cl    Cl    0.312369 0.718017 0.333364 -0.614294

loop_
_geom_bond_atom_site_label_1
_geom_bond_atom_site_label_2
_ccdc_geom_bond_type
C16   C21   A    
C35   H11   S    
C34   C37   S    
Cu1   Cu2   S    
C19   C20   A    
C4    C8    A    
Cu1   O5    S    
C29   C42   S    
C28   C29   A    
C17   H3    S    
C32   N1    A    
C5    C11   A    
C3    C7    A    
C7    Cl1   S    
C38   C39   A    
C28   H9    S    
C19   H5    S    
C33   H7    S    
C39   H15   S    
C1    O1    A    
Cu2   O8    S    
C18   C19   A    
C23   C26   S    
C23   O5    A    
C15   C37   A    
C11   C15   A    
C3    C38   A    
C8    C9    A    
C9    H13   S    
C12   C36   S    
C9    C10   A    
C34   O8    A    
C27   H8    S    
C30   Cl2   S    
C1    C22   S    
C21   C22   A    
Cu2   O6    S    
C31   N2    A    
Cu1   N2    S    
C18   H4    S    
C40   H16   S    
O10   H19   S    
C36   C40   A    
C42   O11   D    
C41   O10   S    
O12   H20   S    
C16   C17   A    
Cu1   O3    S    
C25   C26   A    
C12   O4    A    
C23   O6    A    
C2    C4    A    
C29   C30   A    
C31   C32   A    
Cu2   N1    S    
C30   C31   A    
C17   C18   A    
C15   H10   S    
C24   C25   A    
C34   O7    A    
C14   H12   S    
C22   C24   A    
Cu1   O1    S    
C1    O2    A    
Cu2   O2    S    
C13   H1    S    
C24   C41   S    
Cu1   O7    S    
C16   H2    S    
C27   C32   A    
C6    H17   S    
C36   C39   A    
C42   O12   S    
C41   O9    D    
C10   C13   A    
C6    C7    A    
C12   O3    A    
C2    C3    A    
C8    H18   S    
C14   C37   A    
C5    C6    A    
C20   C26   A    
C33   C35   A    
C35   N2    A    
C10   C11   A    
C2    C40   A    
C4    C5    A    
C38   H14   S    
C20   C21   A    
C33   N1    A    
C27   C28   A    
Cu2   O4    S    
C13   C14   A    
C25   H6    S    
