data_mof_unit_25929.cif
_audit_creation_date              2012-12-11T15:48:49-0500
_audit_creation_method            fapswitch 2.2
_symmetry_space_group_name_H-M    P1
_symmetry_Int_Tables_number       1
_space_group_crystal_system       triclinic
_cell_length_a                    11.028727
_cell_length_b                    11.048317
_cell_length_c                    18.809757
_cell_angle_alpha                 90.43412
_cell_angle_beta                  90.378506
_cell_angle_gamma                 59.672921
_cell_volume                      1978.24364126

loop_
_atom_site_label
_atom_site_type_symbol
_atom_type_description
_atom_site_fract_x
_atom_site_fract_y
_atom_site_fract_z
_atom_type_partial_charge
C1    C     C_R   0.239943 0.645710 0.610227 0.539164
C2    C     C_R   0.581865 0.139181 0.709227 -0.186311
C3    C     C_R   0.577523 0.142993 0.782256 -0.172418
C4    C     C_R   0.654256 0.621134 0.600995 0.545102
C5    C     C_3   0.925446 0.116891 0.789429 -0.274966
C6    C     C_3   0.921195 0.125698 0.708921 -0.286427
C7    C     C_R   0.673395 0.169165 0.673037 0.006426
C8    C     C_R   0.176735 0.670772 0.834368 0.011724
C9    C     C_R   0.155066 0.577319 0.793512 0.019929
C10   C     C_R   0.163651 0.574646 0.719880 -0.003810
C11   C     C_R   0.205271 0.768234 0.724904 -0.174688
C12   C     C_3   0.589968 0.625229 0.801219 0.149210
C13   C     C_R   0.203114 0.766101 0.798770 -0.178022
C14   C     C_3   0.230005 0.421452 0.797780 -0.287414
C15   C     C_3   0.237817 0.418822 0.717279 -0.267997
C16   C     C_R   0.629878 0.227239 0.602163 0.538504
C17   C     C_R   0.192598 0.667409 0.684096 0.015057
C18   C     C_R   0.656597 0.668360 0.167183 -0.022907
C19   C     C_R   0.776135 0.605387 0.211016 0.062320
C20   C     C_R   0.770994 0.607076 0.283635 -0.058172
C21   C     C_R   0.517319 0.716974 0.273815 -0.128576
C22   C     C_R   0.519778 0.730804 0.199091 0.208283
C23   C     C_3   0.698918 0.672534 0.812179 0.077479
C24   C     C_3   0.895077 0.456310 0.209326 0.167663
C25   C     C_3   0.903616 0.466992 0.288944 -0.219534
C26   C     C_R   0.642175 0.654417 0.316202 -0.053642
C27   C     C_R   0.631643 0.184719 0.169036 0.021478
C28   C     C_R   0.220364 0.649168 0.402461 0.550749
C29   C     C_R   0.523295 0.187485 0.208637 -0.003128
C30   C     C_R   0.518708 0.205795 0.280618 0.031800
C31   C     C_R   0.713083 0.245387 0.275150 -0.166372
C32   C     C_R   0.715576 0.230470 0.201195 -0.172196
C33   C     C_3   0.469919 0.086917 0.214505 -0.236229
C34   C     C_3   0.672290 0.643844 0.676421 0.024869
C35   C     C_3   0.459327 0.113256 0.294327 -0.135968
C36   C     C_R   0.621998 0.219798 0.315915 0.026218
C37   C     C_R   0.115755 0.692402 0.189104 0.069705
C38   C     C_R   0.050501 0.810047 0.233920 0.047311
C39   C     C_R   0.065103 0.798036 0.306459 0.005230
C40   C     C_R   0.637009 0.618567 0.389984 0.557043
C41   C     C_R   0.196677 0.546197 0.292324 -0.159198
C42   C     C_R   0.181981 0.559565 0.219095 -0.109158
C43   C     C_3   0.059255 0.940561 0.234688 -0.277271
C44   C     C_3   0.066848 0.931828 0.314604 -0.284009
C45   C     C_3   0.829201 0.557223 0.698044 -0.253587
C46   C     C_R   0.150121 0.666426 0.335753 0.013465
C47   C     C_R   0.701968 0.098917 0.895226 0.531107
C48   C     C_R   0.723331 0.688071 0.888194 0.566763
C49   C     C_R   0.117803 0.706272 0.905832 0.523348
C50   C     C_R   0.672615 0.109470 0.102631 0.547336
C51   C     C_R   0.692906 0.687728 0.095464 0.514029
C52   C     C_R   0.609070 0.243294 0.391583 0.541769
C53   C     C_R   0.087821 0.713024 0.114129 0.564348
C54   C     C_3   0.644783 0.814472 0.772695 -0.271945
C55   C     C_3   0.618723 0.799552 0.693385 -0.273822
C56   C     C_3   0.588411 0.592020 0.721267 -0.167270
C57   C     C_3   0.841668 0.563744 0.778151 -0.224483
C58   C     C_3   0.381867 0.855611 0.099855 -0.007142
C59   C     C_3   0.238680 0.936985 0.065121 -0.360507
C60   C     C_3   0.071892 0.314598 0.130492 -0.003737
C61   C     C_3   0.177877 0.310652 0.077353 -0.343201
C62   C     C_3   0.553303 0.983299 0.338911 -0.394168
C63   C     C_3   0.538702 0.537385 0.903300 -0.011450
C64   C     C_3   0.624491 0.447018 0.965607 -0.360912
C65   C     C_R   0.680202 0.153289 0.822762 0.031546
C66   C     C_R   0.770216 0.186199 0.786926 0.063455
C67   C     C_R   0.764596 0.197452 0.713005 0.026039
Cr1   Cr    Cr6+3 0.392960 0.397920 0.502240 0.999302
Cr2   Cr    Cr6+3 0.398340 0.708480 0.501250 0.995449
Cr3   Cr    Cr6+3 0.708670 0.393570 0.496460 1.002097
Cr4   Cr    Cr6+3 0.937650 0.938540 0.007610 0.967565
Cr5   Cr    Cr6+3 0.625330 0.937370 0.994520 0.966525
Cr6   Cr    Cr6+3 0.937940 0.625230 0.001190 0.999912
H1    H     H_    0.723542 0.848801 0.777939 0.143650
H2    H     H_    0.967376 0.022055 0.681902 0.144008
H3    H     H_    0.227779 0.843124 0.700410 0.134699
H4    H     H_    0.544601 0.896628 0.796644 0.121598
H5    H     H_    0.216448 0.843600 0.827894 0.119858
H6    H     H_    0.161804 0.382603 0.818555 0.129283
H7    H     H_    0.333459 0.378463 0.824719 0.142818
H8    H     H_    0.345718 0.374601 0.696740 0.182057
H9    H     H_    0.173519 0.379359 0.691337 0.124933
H10   H     H_    0.416914 0.750506 0.298715 0.156021
H11   H     H_    0.855432 0.385742 0.193929 0.068003
H12   H     H_    0.634191 0.477555 0.713242 0.160832
H13   H     H_    0.894699 0.384795 0.317284 0.117043
H14   H     H_    0.504335 0.863879 0.681575 0.126932
H15   H     H_    0.993412 0.477887 0.307327 0.156362
H16   H     H_    0.786963 0.268304 0.300407 0.123745
H17   H     H_    0.794421 0.235864 0.170115 0.098385
H18   H     H_    0.550090 0.978585 0.198369 0.160832
H19   H     H_    0.365756 0.127505 0.189144 0.115973
H20   H     H_    0.349168 0.173807 0.313707 0.141930
H21   H     H_    0.258727 0.441569 0.313630 0.143124
H22   H     H_    0.230259 0.466974 0.186406 0.148519
H23   H     H_    0.880110 0.457585 0.800909 0.162632
H24   H     H_    0.964088 0.031115 0.213884 0.144624
H25   H     H_    0.674018 0.839309 0.660016 0.126192
H26   H     H_    0.157964 0.925532 0.212267 0.194428
H27   H     H_    0.166508 0.920718 0.335101 0.162549
H28   H     H_    0.970460 0.014793 0.341090 0.141242
H29   H     H_    0.920020 0.594939 0.790149 0.138858
H30   H     H_    0.890009 0.599178 0.671276 0.128081
H31   H     H_    0.483256 0.715400 0.813563 0.082330
H32   H     H_    0.478375 0.642132 0.702305 0.106593
H33   H     H_    0.443447 0.776845 0.058233 0.156681
H34   H     H_    0.877258 0.444896 0.682757 0.140658
H35   H     H_    0.409718 0.936979 0.112061 0.169960
H36   H     H_    0.240288 0.010611 0.026134 0.053517
H37   H     H_    0.221083 0.865312 0.031250 0.197247
H38   H     H_    0.153680 0.998969 0.103465 0.149936
H39   H     H_    0.989400 0.308902 0.098475 0.118594
H40   H     H_    0.124518 0.221037 0.165389 0.102630
H41   H     H_    0.264958 0.315108 0.104149 0.138247
H42   H     H_    0.225034 0.212219 0.046384 0.067832
H43   H     H_    0.125197 0.397685 0.038972 0.187530
H44   H     H_    0.574863 0.011700 0.392070 0.163554
H45   H     H_    0.505328 0.122404 0.681206 0.134692
H46   H     H_    0.495468 0.927543 0.348251 0.144558
H47   H     H_    0.655308 0.913543 0.312368 0.144274
H48   H     H_    0.453635 0.514580 0.891022 0.141561
H49   H     H_    0.490196 0.648609 0.921385 0.105324
H50   H     H_    0.677060 0.334770 0.950951 0.169444
H51   H     H_    0.554748 0.466079 0.011814 0.093560
H52   H     H_    0.705782 0.473142 0.981238 0.173027
H53   H     H_    0.499122 0.125020 0.806219 0.140509
H54   H     H_    0.973015 0.008883 0.809984 0.168186
H55   H     H_    0.961535 0.183938 0.815391 0.133205
H56   H     H_    0.957653 0.195747 0.688212 0.130185
O1    O     O_R   0.507380 0.255700 0.581440 -0.534417
O2    O     O_R   0.837170 0.593410 0.915250 -0.530564
O3    O     O_R   0.065200 0.635530 0.931570 -0.512448
O4    O     O_R   0.280320 0.527350 0.578930 -0.502687
O5    O     O_R   0.068260 0.828890 0.091840 -0.540498
O6    O     O_R   0.798870 0.057410 0.079340 -0.511006
O7    O     O_R   0.584930 0.080350 0.076780 -0.532933
O8    O     O_R   0.626960 0.809650 0.067060 -0.541136
O9    O     O_R   0.816040 0.596610 0.076510 -0.487675
O10   O     O_R   0.045610 0.638500 0.081060 -0.481780
O11   O     O_3   0.833640 0.833710 0.001100 -0.239405
O12   O     O_R   0.524480 0.695810 0.424040 -0.515331
O13   O     O_R   0.260510 0.739590 0.584590 -0.533175
O14   O     O_R   0.532300 0.695080 0.573820 -0.508689
O15   O     O_R   0.744840 0.503500 0.576370 -0.527618
O16   O     O_R   0.699120 0.276560 0.571960 -0.499720
O17   O     O_R   0.498940 0.256500 0.419860 -0.528446
O18   O     O_R   0.272500 0.528080 0.429150 -0.512321
O19   O     O_R   0.252060 0.740380 0.423010 -0.530235
O20   O     O_3   0.389983 0.783004 0.162854 -0.588757
O21   O     O_3   0.014760 0.438416 0.172552 -0.524408
O22   O     O_3   0.626096 0.504415 0.842700 -0.569344
O23   O     O_R   0.736390 0.504290 0.414790 -0.522395
O24   O     O_R   0.691300 0.277290 0.422170 -0.516265
O25   O     O_3   0.499990 0.499990 0.499980 -0.254020
O26   O     O_R   0.089400 0.825690 0.930570 -0.552033
O27   O     O_R   0.818460 0.054440 0.929850 -0.506678
O28   O     O_R   0.606060 0.077150 0.915510 -0.538068
O29   O     O_R   0.646550 0.806680 0.917570 -0.529679

loop_
_geom_bond_atom_site_label_1
_geom_bond_atom_site_label_2
_ccdc_geom_bond_type
C21   C26   A    
Cr6   O2    S    
C34   C56   S    
C8    C13   A    
C10   C15   S    
C27   C29   A    
Cr3   O24   S    
C11   C13   A    
C41   C42   A    
C2    C7    A    
C43   C44   S    
C4    O14   A    
C2    H45   S    
C3    H53   S    
C6    H2    S    
C15   H8    S    
C57   H29   S    
C12   C23   S    
C45   C57   S    
C29   C30   A    
C30   C35   S    
Cr1   O4    S    
C43   H26   S    
C12   H31   S    
Cr1   O25   S    
C11   H3    S    
C33   H18   S    
Cr4   O6    S    
C38   C39   A    
Cr5   O7    S    
Cr6   O9    S    
C10   C17   A    
Cr2   O12   S    
C29   C33   S    
C59   H37   S    
Cr5   O29   S    
C40   O23   A    
C18   C19   A    
C37   C42   A    
C62   H44   S    
C1    O13   A    
C45   H30   S    
C59   H36   S    
C54   H1    S    
C32   H17   S    
C21   H10   S    
C8    C9    A    
C31   H16   S    
C57   H23   S    
C61   H42   S    
C59   H38   S    
C41   C46   A    
C48   O2    A    
C47   O27   A    
C14   H7    S    
C16   O1    A    
C9    C10   A    
C31   C36   A    
C62   H47   S    
C36   C52   S    
C58   O20   S    
C54   H4    S    
C37   C53   S    
C55   H25   S    
C66   C67   A    
Cr6   O3    S    
C34   C55   S    
Cr3   O25   S    
C21   C22   A    
C55   H14   S    
C12   O22   S    
C60   H40   S    
C3    C65   A    
Cr4   O5    S    
C6    H56   S    
C1    O4    A    
C63   H48   S    
C18   C51   S    
C15   H9    S    
C35   H20   S    
C49   O3    A    
C4    C34   S    
C28   O19   A    
C42   H22   S    
Cr3   O23   S    
C24   C25   S    
C33   H19   S    
Cr3   O16   S    
Cr6   O10   S    
Cr2   O13   S    
C64   H51   S    
C48   O29   A    
C25   H15   S    
Cr5   O28   S    
C16   O16   A    
C58   H33   S    
C9    C14   S    
C37   C38   A    
C60   H39   S    
C41   H21   S    
Cr4   O26   S    
C5    H54   S    
C61   H43   S    
C34   C45   S    
C60   O21   S    
C14   H6    S    
Cr1   O1    S    
C63   O22   S    
C62   H46   S    
C12   C56   S    
Cr1   O18   S    
C24   O21   S    
C39   C46   A    
C51   O8    A    
Cr5   O8    S    
C52   O24   A    
C65   C66   A    
C39   C44   S    
C63   H49   S    
Cr1   O17   S    
C23   C54   S    
C47   O28   A    
C23   C57   S    
C28   C46   S    
C54   C55   S    
C11   C17   A    
C28   O18   A    
C52   O17   A    
C23   C48   S    
C27   C32   A    
C18   C22   A    
C1    C17   S    
C49   O26   A    
C31   C32   A    
C7    C16   S    
C53   O5    A    
C43   H24   S    
C5    C66   S    
C4    O15   A    
C44   H28   S    
C27   C50   S    
Cr4   O11   S    
Cr6   O11   S    
Cr2   O14   S    
C64   H50   S    
Cr3   O15   S    
Cr2   O25   S    
C30   C36   A    
C50   O6    A    
C19   C20   A    
C2    C3    A    
C58   C59   S    
C38   C43   S    
C6    C67   S    
C44   H27   S    
C26   C40   S    
C56   H12   S    
C5    C6    S    
C20   C26   A    
Cr4   O27   S    
C5    H55   S    
C25   H13   S    
C33   C35   S    
C19   C24   S    
C35   C62   S    
C58   H35   S    
C24   H11   S    
C56   H32   S    
C22   O20   S    
C53   O10   A    
C13   H5    S    
C7    C67   A    
C63   C64   S    
C51   O9    A    
Cr5   O11   S    
C64   H52   S    
C20   C25   S    
C61   H41   S    
Cr2   O19   S    
C14   C15   S    
C60   C61   S    
C50   O7    A    
C40   O12   A    
C8    C49   S    
C47   C65   S    
C45   H34   S    
