data_mof_unit_50217.cif
_audit_creation_date              2013-03-05T16:00:13-0500
_audit_creation_method            fapswitch 2.2
_symmetry_space_group_name_H-M    P1
_symmetry_Int_Tables_number       1
_space_group_crystal_system       triclinic
_cell_length_a                    12.577536
_cell_length_b                    13.080789
_cell_length_c                    23.114616
_cell_angle_alpha                 90.680342
_cell_angle_beta                  102.061978
_cell_angle_gamma                 82.592639
_cell_volume                      3687.46981792

loop_
_atom_site_label
_atom_site_type_symbol
_atom_site_description
_atom_site_fract_x
_atom_site_fract_y
_atom_site_fract_z
_atom_type_partial_charge
O1    O     O_R   0.366740 0.627150 0.485570 -0.614129
O2    O     O_R   0.544830 0.662520 0.504870 -0.602425
C1    C     C_R   0.439209 0.691246 0.489050 0.882803
O3    O     O_R   0.410930 0.482340 0.574190 -0.612027
O4    O     O_R   0.589010 0.517710 0.593490 -0.614803
C2    C     C_R   0.501756 0.497091 0.610704 0.868590
Zn1   Zn    Zn3+2 0.381090 0.476380 0.487110 0.936923
Zn2   Zn    Zn3+2 0.618910 0.523620 0.512890 0.914963
O5    O     O_R   0.455170 0.337480 0.495130 -0.604759
O6    O     O_R   0.633260 0.372850 0.514430 -0.633699
O7    O     O_R   0.410990 0.482290 0.406510 -0.603821
O8    O     O_R   0.589070 0.517660 0.425810 -0.634066
C3    C     C_R   0.560896 0.308808 0.509753 0.889701
C4    C     C_R   0.501034 0.495105 0.389614 0.872287
C5    C     C_R   0.436184 0.389327 0.114212 0.528809
N1    N     N_R   0.531336 0.399260 0.153235 -0.351258
C6    C     C_R   0.629158 0.394932 0.136285 0.519887
C7    C     C_R   0.633360 0.390110 0.075549 -0.045627
C8    C     C_R   0.534089 0.380145 0.034233 -0.118356
C9    C     C_R   0.436330 0.373240 0.054123 -0.175525
C10   C     C_R   0.731969 0.394430 0.054769 0.153928
C11   C     C_R   0.729866 0.385398 0.993584 0.196308
C12   C     C_R   0.627781 0.392855 0.952981 -0.044877
C13   C     C_R   0.531200 0.381574 0.972952 -0.098101
C14   C     C_R   0.431311 0.375033 0.931504 -0.083797
C15   C     C_R   0.334779 0.361875 0.952308 0.070382
C16   C     C_R   0.340155 0.354390 0.013553 0.511396
C17   C     C_R   0.618043 0.417359 0.892963 0.507988
N2    N     N_R   0.522692 0.409644 0.853281 -0.346969
C18   C     C_R   0.432656 0.382798 0.870628 0.536473
O9    O     O_2   0.341637 0.397673 0.133827 -0.518033
O10   O     O_2   0.720752 0.394964 0.178696 -0.556218
O11   O     O_2   0.701041 0.454299 0.874631 -0.563931
O12   O     O_2   0.345959 0.363646 0.828643 -0.578057
C19   C     C_R   0.436372 0.506572 0.761248 -0.093330
H1    H     H_    0.376867 0.548629 0.783412 0.152926
C20   C     C_R   0.432132 0.527933 0.701978 -0.282450
H2    H     H_    0.368346 0.585355 0.678536 0.146745
C21   C     C_R   0.510762 0.476610 0.673372 -0.038418
C22   C     C_R   0.593319 0.400948 0.704068 0.147561
C23   C     C_R   0.594151 0.377855 0.762950 -0.096909
H3    H     H_    0.655307 0.318751 0.786887 0.145036
C24   C     C_R   0.517090 0.431073 0.791888 0.259684
C25   C     C_R   0.529818 0.519897 0.233362 -0.139502
H4    H     H_    0.537047 0.580497 0.203428 0.149771
C26   C     C_R   0.521386 0.543908 0.290769 -0.269611
H5    H     H_    0.522735 0.622913 0.304684 0.155334
C27   C     C_R   0.508959 0.467240 0.329264 -0.057745
C28   C     C_R   0.508434 0.363271 0.310828 0.136518
C29   C     C_R   0.518842 0.338599 0.252253 0.241184
C30   C     C_R   0.527621 0.418694 0.213784 0.281692
C31   C     C_R   0.727460 0.057297 0.493731 0.499358
H6    H     H_    0.765073 0.211906 0.507003 0.178510
H7    H     H_    0.731851 0.875618 0.440353 0.193869
C32   C     C_R   0.598810 0.198950 0.514554 -0.147772
C33   C     C_R   0.291749 0.839772 0.474621 -0.200127
C34   C     C_R   0.259427 0.946107 0.471398 0.251350
C35   C     C_R   0.339339 0.012254 0.475478 -0.195923
C36   C     C_R   0.450628 0.972489 0.479781 0.032194
C37   C     C_R   0.475243 0.868541 0.465862 0.074348
C38   C     C_R   0.537189 0.033576 0.493837 0.014543
C39   C     C_R   0.641431 0.995988 0.481705 -0.040062
C40   C     C_R   0.656301 0.900659 0.455005 -0.260539
C41   C     C_R   0.572601 0.838484 0.444497 0.172090
C42   C     C_R   0.524544 0.130729 0.520056 0.144148
C43   C     C_R   0.703186 0.161083 0.505726 -0.362524
C44   C     C_R   0.400832 0.800314 0.474023 -0.175587
H8    H     H_    0.232313 0.788267 0.477989 0.161540
H9    H     H_    0.313265 0.094298 0.473562 0.161601
C45   C     C_R   0.086517 0.355158 0.410959 -0.252058
H10   H     H_    0.252827 0.345373 0.400752 0.133811
H11   H     H_    0.064364 0.304856 0.374076 0.180799
N3    N     N_R   0.222200 0.444670 0.469780 -0.104441
C46   C     C_R   0.808498 0.625428 0.572987 0.257840
C47   C     C_R   0.920388 0.621231 0.601762 0.162922
C48   C     C_R   0.998239 0.549388 0.582430 0.149224
C49   C     C_R   0.967459 0.501773 0.527285 -0.063853
C50   C     C_R   0.854685 0.495234 0.505769 0.085290
C51   C     C_R   0.044078 0.459942 0.493199 -0.052519
C52   C     C_R   0.010101 0.397514 0.443912 0.081666
C53   C     C_R   0.900273 0.380753 0.426967 0.415290
C54   C     C_R   0.824684 0.428270 0.458875 -0.282027
C55   C     C_R   0.151027 0.487348 0.502391 -0.024595
C56   C     C_R   0.193259 0.378364 0.425556 -0.007468
N4    N     N_R   0.776960 0.554790 0.529910 -0.130435
H12   H     H_    0.178289 0.544914 0.533766 0.147920
H13   H     H_    0.742651 0.413589 0.444711 0.217302
C57   C     C_3   0.837874 0.414556 0.096258 -0.758377
H14   H     H_    0.822592 0.484541 0.122468 0.263259
H15   H     H_    0.871815 0.346530 0.125709 0.264216
H16   H     H_    0.902430 0.431812 0.073180 0.226569
C58   C     C_3   0.500261 0.280600 0.354567 -0.908338
H17   H     H_    0.568547 0.280635 0.393456 0.214504
H18   H     H_    0.421187 0.296224 0.368958 0.255714
H19   H     H_    0.505051 0.201441 0.337159 0.245645
C59   C     C_3   0.521711 0.228456 0.231031 -0.896239
H20   H     H_    0.443597 0.199239 0.233277 0.249057
H21   H     H_    0.532916 0.219875 0.184871 0.233711
H22   H     H_    0.591544 0.179148 0.258991 0.230640
O13   O     O_3   0.831807 0.020234 0.486516 -0.664023
C60   C     C_3   0.891966 0.970018 0.539391 0.071114
H23   H     H_    0.956234 0.912370 0.527289 0.170108
H24   H     H_    0.841416 0.925730 0.561804 0.126404
C61   C     C_3   0.947387 0.047537 0.581954 -0.359676
H25   H     H_    0.989668 0.096829 0.557714 0.229275
H26   H     H_    0.884391 0.098194 0.599891 0.220047
C62   C     C_3   0.030578 0.993111 0.633466 -0.944486
H27   H     H_    0.989080 0.946684 0.659725 0.263470
H28   H     H_    0.070237 0.051375 0.662762 0.272363
H29   H     H_    0.095037 0.942029 0.616895 0.266263
C63   C     C_3   0.448676 0.156062 0.562939 -0.873531
H30   H     H_    0.491253 0.195907 0.602010 0.233356
H31   H     H_    0.373355 0.207196 0.542181 0.253989
H32   H     H_    0.425869 0.085079 0.580347 0.240985
C64   C     C_3   0.141708 0.989917 0.466503 -0.929679
H33   H     H_    0.087992 0.928244 0.463688 0.246018
H34   H     H_    0.133374 0.037596 0.505701 0.243461
H35   H     H_    0.114095 0.039015 0.425972 0.240044
C65   C     C_3   0.836340 0.356998 0.972494 -0.805118
H36   H     H_    0.823321 0.313110 0.930751 0.249658
H37   H     H_    0.873520 0.427468 0.966154 0.267340
H38   H     H_    0.895329 0.303991 0.004687 0.220080
C66   C     C_3   0.584331 0.750713 0.402818 -0.827232
H39   H     H_    0.601079 0.780204 0.361181 0.217901
H40   H     H_    0.654493 0.692959 0.422962 0.271543
H41   H     H_    0.508003 0.714642 0.390451 0.216574
O14   O     O_3   0.864399 0.341826 0.371055 -0.626497
C67   C     C_3   0.806931 0.256204 0.372335 0.094644
H42   H     H_    0.742245 0.260665 0.331273 0.201183
H43   H     H_    0.764467 0.255181 0.409712 0.103750
C68   C     C_3   0.884374 0.155761 0.372838 -0.355336
H44   H     H_    0.943436 0.164174 0.344068 0.229227
H45   H     H_    0.931383 0.138948 0.418749 0.233551
C69   C     C_3   0.821400 0.065807 0.350504 -0.860292
H46   H     H_    0.752693 0.062178 0.373389 0.278111
H47   H     H_    0.877578 0.992284 0.358608 0.269745
H48   H     H_    0.787373 0.075039 0.302220 0.247307
C70   C     C_3   0.724214 0.707345 0.589699 -0.808217
H49   H     H_    0.756849 0.758643 0.625460 0.205265
H50   H     H_    0.688837 0.758910 0.551152 0.242586
H51   H     H_    0.659922 0.673535 0.605701 0.272055
C71   C     C_3   0.104751 0.511060 0.625124 -0.882741
H52   H     H_    0.144184 0.436568 0.611310 0.247948
H53   H     H_    0.162956 0.569062 0.629678 0.226333
H54   H     H_    0.087956 0.495799 0.669322 0.260113
C72   C     C_3   0.955999 0.691504 0.652975 -0.921963
H55   H     H_    0.934804 0.773109 0.637797 0.229868
H56   H     H_    0.914886 0.677426 0.689685 0.254757
H57   H     H_    0.045418 0.681382 0.671110 0.253940
C73   C     C_3   0.224101 0.360639 0.910785 -0.746032
H58   H     H_    0.155478 0.360029 0.933992 0.247450
H59   H     H_    0.203508 0.431496 0.882596 0.256734
H60   H     H_    0.225197 0.290703 0.883142 0.251979
O15   O     O_3   0.247906 0.334336 0.033334 -0.609240
C74   C     C_3   0.261931 0.230811 0.054030 0.149364
H61   H     H_    0.213097 0.228307 0.088757 0.188388
H62   H     H_    0.348390 0.201550 0.075466 0.114625
C75   C     C_3   0.219043 0.159319 0.003991 -0.423401
H63   H     H_    0.133047 0.189182 0.982878 0.237607
H64   H     H_    0.270118 0.157055 0.970066 0.227210
C76   C     C_3   0.222741 0.049857 0.027089 -0.924313
H65   H     H_    0.308263 0.017950 0.047804 0.264752
H66   H     H_    0.191921 0.999873 0.989802 0.272055
H67   H     H_    0.170266 0.049300 0.060204 0.265037
C77   C     C_3   0.678621 0.342239 0.674790 -0.867783
H68   H     H_    0.732207 0.395602 0.662339 0.266276
H69   H     H_    0.731912 0.281776 0.704643 0.228651
H70   H     H_    0.638172 0.303668 0.634789 0.224563

loop_
_geom_bond_atom_site_label_1
_geom_bond_atom_site_label_2
_geom_bond_distance
_ccdc_geom_bond_type
C77   H68   1.109718 S    
C74   H62   1.116484 S    
C7    C10   1.428217 A    
C62   H28   1.110335 S    
C23   H3    1.083732 S    
C8    C9    1.413243 A    
N1    C30   1.428765 S    
C68   C69   1.527552 S    
C67   H42   1.110188 S    
C76   H67   1.110883 S    
C69   H48   1.110678 S    
C61   H26   1.110935 S    
C53   C54   1.401433 A    
C31   C43   1.390239 A    
C66   H39   1.110850 S    
C34   C64   1.498725 S    
C33   C44   1.405040 A    
C49   C50   1.414923 A    
Zn1   O7    1.980417 S    
C46   C70   1.513145 S    
C15   C16   1.407053 A    
C60   H23   1.110227 S    
C17   N2    1.363471 A    
C19   C20   1.390174 A    
Zn2   N4    2.037404 S    
C54   H13   1.056904 S    
O4    C2    1.302615 A    
O7    C4    1.303314 A    
C66   H40   1.109515 S    
H7    C40   1.084686 S    
C5    N1    1.359757 A    
C59   H22   1.109836 S    
C33   C34   1.396254 A    
C6    C7    1.416247 A    
C7    C8    1.424298 A    
O5    C3    1.307586 A    
C42   C63   1.519500 S    
C75   C76   1.525777 S    
C32   C42   1.397243 A    
C63   H30   1.110269 S    
C37   C44   1.414619 A    
N1    C6    1.361430 A    
C64   H34   1.109188 S    
C73   H60   1.109904 S    
C59   H21   1.107622 S    
C12   C13   1.411626 A    
N2    C18   1.364604 A    
C19   C24   1.401852 A    
N3    C56   1.354447 A    
C16   O15   1.388209 S    
C49   C51   1.421243 A    
C10   C57   1.521121 S    
C36   C37   1.403887 A    
C60   H24   1.117145 S    
C10   C11   1.412794 A    
N2    C24   1.435233 S    
C74   C75   1.531970 S    
C75   H64   1.110640 S    
C23   C24   1.399050 A    
C71   H54   1.110888 S    
C5    C9    1.402645 A    
O3    Zn1   1.971415 S    
C61   H25   1.110849 S    
C76   H66   1.110379 S    
C25   C26   1.382366 A    
C76   H65   1.110958 S    
C72   H56   1.110384 S    
C65   H37   1.110353 S    
C47   C72   1.518435 S    
C11   C65   1.519656 S    
C1    C44   1.467379 S    
C36   C38   1.414104 A    
C45   H11   1.082625 S    
C46   C47   1.419721 A    
C18   O12   1.347576 S    
C45   C52   1.403404 A    
C15   C73   1.518658 S    
C48   C49   1.414090 A    
Zn1   N3    2.049758 S    
C21   C22   1.415966 A    
C66   H41   1.106740 S    
C69   H47   1.110414 S    
C14   C15   1.426487 A    
C33   H8    1.083634 S    
C31   O13   1.382309 S    
C58   H19   1.105381 S    
C40   C41   1.392095 A    
O1    C1    1.305773 A    
C19   H1    1.082879 S    
C47   C48   1.406145 A    
C20   H2    1.083529 S    
C72   H57   1.106353 S    
C50   C54   1.405810 A    
C57   H16   1.107207 S    
Zn2   O8    1.971415 S    
C64   H35   1.109785 S    
C2    C21   1.454560 S    
C59   H20   1.110249 S    
C39   C40   1.393067 A    
C58   H18   1.107162 S    
C29   C30   1.411927 A    
O15   C74   1.418568 S    
C63   H31   1.108756 S    
C12   C17   1.404193 A    
C13   C14   1.423502 A    
H6    C43   1.082639 S    
C22   C77   1.509140 S    
C72   H55   1.109074 S    
C70   H50   1.103645 S    
C25   C30   1.395726 A    
O3    C2    1.305602 A    
C22   C23   1.395276 A    
O8    C4    1.305489 A    
C17   O11   1.350023 S    
C77   H70   1.107606 S    
C75   H63   1.111598 S    
C62   H29   1.111079 S    
C71   H53   1.109858 S    
C62   H27   1.110198 S    
O14   C67   1.412861 S    
C70   H51   1.098828 S    
C67   C68   1.529960 S    
C32   C43   1.397247 A    
C45   C56   1.386288 A    
C25   H4    1.083181 S    
C50   N4    1.376681 A    
H10   C56   1.080072 S    
C65   H38   1.110778 S    
C14   C18   1.415761 A    
Zn1   O5    1.924322 S    
C26   H5    1.079875 S    
C27   C28   1.420778 A    
O1    Zn1   1.957188 S    
Zn2   O6    1.957186 S    
O2    Zn2   1.924322 S    
C57   H15   1.110157 S    
C52   C53   1.399854 A    
C68   H45   1.110816 S    
O6    C3    1.301990 A    
C67   H43   1.107624 S    
O4    Zn2   1.980417 S    
C4    C27   1.457858 S    
C65   H36   1.110123 S    
C35   H9    1.079623 S    
C5    O9    1.349929 S    
C69   H46   1.109541 S    
C9    C16   1.414485 A    
C60   C61   1.534266 S    
C41   C66   1.502486 S    
C73   H58   1.108215 S    
C37   C41   1.421948 A    
O2    C1    1.308136 A    
C35   C36   1.412459 A    
C20   C21   1.399108 A    
C31   C39   1.408536 A    
C68   H44   1.111505 S    
C51   C55   1.409324 A    
C29   C59   1.514893 S    
C34   C35   1.396590 A    
C58   H17   1.105952 S    
C8    C13   1.409629 A    
C63   H32   1.110008 S    
C73   H59   1.110238 S    
C46   N4    1.382090 A    
C38   C39   1.422521 A    
C70   H49   1.103657 S    
C51   C52   1.418371 A    
C26   C27   1.393443 A    
C38   C42   1.406238 A    
C55   H12   1.077144 S    
C57   H14   1.110041 S    
C77   H69   1.110806 S    
C28   C29   1.416788 A    
C74   H61   1.111092 S    
C71   H52   1.109782 S    
C6    O10   1.347702 S    
C11   C12   1.416046 A    
O13   C60   1.414966 S    
C28   C58   1.516627 S    
N3    C55   1.350686 A    
C61   C62   1.525364 S    
C53   O14   1.390316 S    
C64   H33   1.110147 S    
C3    C32   1.452491 S    
C48   C71   1.518544 S    
