data_mof_unit_8932.cif
_audit_creation_date              2012-12-10T17:43:19-0500
_audit_creation_method            fapswitch 2.2
_symmetry_space_group_name_H-M    P1
_symmetry_Int_Tables_number       1
_space_group_crystal_system       triclinic
_cell_length_a                    14.98415
_cell_length_b                    13.710727
_cell_length_c                    10.649287
_cell_angle_alpha                 90.241319
_cell_angle_beta                  91.42116
_cell_angle_gamma                 89.936101
_cell_volume                      2187.13425559

loop_
_atom_site_label
_atom_site_type_symbol
_atom_type_description
_atom_site_fract_x
_atom_site_fract_y
_atom_site_fract_z
_atom_type_partial_charge
C1    C     C_R   0.328868 0.500031 0.496545 0.804156
C2    C     C_R   0.671102 0.499948 0.502965 0.803756
C3    C     C_R   0.953062 0.501168 0.499409 0.021751
C4    C     C_R   0.046775 0.501282 0.499480 0.021677
C5    C     C_R   0.903339 0.503462 0.384113 0.098187
C6    C     C_R   0.096448 0.502764 0.614858 0.097838
C7    C     C_R   0.957893 0.500034 0.728396 -0.260152
C8    C     C_R   0.041905 0.501927 0.270467 -0.260907
C9    C     C_R   0.051306 0.505043 0.730227 0.088830
C10   C     C_R   0.948417 0.506585 0.268733 0.089565
C11   C     C_R   0.446617 0.793704 0.580589 0.009771
C12   C     C_R   0.553368 0.206285 0.419396 0.009676
C13   C     C_R   0.553417 0.793058 0.419456 0.015718
C14   C     C_R   0.446600 0.206929 0.580558 0.015667
C15   C     C_R   0.554644 0.896077 0.417483 -0.006993
C16   C     C_R   0.445367 0.103903 0.582523 -0.007147
C17   C     C_R   0.445378 0.896743 0.582547 -0.006194
C18   C     C_R   0.554614 0.103238 0.417444 -0.006279
C19   C     C_R   0.500005 0.948188 0.500006 0.087875
C20   C     C_R   0.499997 0.051793 0.499993 0.087771
C21   C     C_R   0.608978 0.948027 0.335309 -0.201630
C22   C     C_R   0.391032 0.051947 0.664696 -0.200944
C23   C     C_R   0.391038 0.949362 0.664709 -0.202677
C24   C     C_R   0.608956 0.050612 0.335282 -0.202026
C25   C     C_R   0.500103 0.499771 0.259071 0.774751
C26   C     C_R   0.500386 0.500269 0.740975 0.775222
C27   C     C_3   0.428690 0.548860 0.039768 -0.168749
C28   C     C_3   0.572573 0.451492 0.960420 -0.172497
C29   C     C_3   0.503446 0.592955 0.960347 -0.127032
C30   C     C_3   0.497753 0.407337 0.039803 -0.130771
C31   C     C_3   0.425883 0.456935 0.955113 -0.175090
C32   C     C_3   0.575237 0.543407 0.045171 -0.185092
C33   C     C_3   0.500674 0.500913 0.877882 0.027685
C34   C     C_3   0.500452 0.499331 0.122246 0.025411
C35   C     C_R   0.809878 0.502268 0.388080 -0.263435
C36   C     C_R   0.189902 0.501660 0.611027 -0.262734
C37   C     C_R   0.767288 0.499857 0.502563 -0.044457
C38   C     C_R   0.232608 0.500191 0.496592 -0.044992
C39   C     C_R   0.815844 0.498293 0.615699 -0.232739
C40   C     C_R   0.184082 0.499666 0.383309 -0.232522
C41   C     C_R   0.908884 0.499228 0.614993 0.103095
C42   C     C_R   0.090980 0.500435 0.383887 0.103725
Cu1   Cu    Cu3+1 0.500000 0.597420 0.500000 0.936914
Cu2   Cu    Cu3+1 0.500000 0.402580 0.500000 0.937123
H1    H     H_    0.364666 0.421869 0.915214 0.119429
H2    H     H_    0.635999 0.578744 0.085969 0.131355
H3    H     H_    0.370500 0.589180 0.076126 0.128046
H4    H     H_    0.631560 0.411897 0.924913 0.124929
H5    H     H_    0.505743 0.669018 0.925225 0.136456
H6    H     H_    0.495462 0.331274 0.074923 0.135707
H7    H     H_    0.768594 0.502621 0.303366 0.125768
H8    H     H_    0.231088 0.501292 0.695828 0.125270
H9    H     H_    0.780993 0.497089 0.703814 0.120993
H10   H     H_    0.218988 0.499218 0.295225 0.120455
H11   H     H_    0.922878 0.498789 0.816113 0.143494
H12   H     H_    0.076907 0.501206 0.182736 0.144795
H13   H     H_    0.404913 0.753151 0.643434 0.127514
H14   H     H_    0.595055 0.246833 0.356533 0.128348
H15   H     H_    0.595162 0.752010 0.356648 0.127914
H16   H     H_    0.404870 0.247971 0.643383 0.128912
H17   H     H_    0.651501 0.909341 0.271034 0.135765
H18   H     H_    0.348517 0.090627 0.728979 0.136190
H19   H     H_    0.348524 0.911201 0.728997 0.135717
H20   H     H_    0.651461 0.088769 0.270985 0.136171
N1    N     N_R   0.500000 0.743810 0.500000 -0.183248
N2    N     N_R   0.500000 0.256190 0.500000 -0.183624
O1    O     O_R   0.370260 0.582280 0.500030 -0.579917
O2    O     O_R   0.629740 0.417720 0.499970 -0.579699
O3    O     O_R   0.629740 0.582280 0.499970 -0.580611
O4    O     O_R   0.370260 0.417720 0.500030 -0.579855
O5    O     O_R   0.499980 0.582260 0.316850 -0.585949
O6    O     O_R   0.500020 0.417740 0.683150 -0.585979
O7    O     O_R   0.500020 0.582260 0.683150 -0.591036
O8    O     O_R   0.499980 0.417740 0.316850 -0.591464
C43   C     C_3   0.099690 0.517491 0.856073 -0.411612
C44   C     C_3   0.131596 0.623238 0.874199 -0.325013
C45   C     C_3   0.164657 0.642204 0.008694 -0.875661
H21   H     H_    0.107214 0.644891 0.072414 0.256379
H22   H     H_    0.211694 0.584131 0.040126 0.246403
H23   H     H_    0.199482 0.713596 0.014030 0.244594
H24   H     H_    0.186596 0.639189 0.809451 0.214921
H25   H     H_    0.075792 0.674469 0.852291 0.224440
H26   H     H_    0.054626 0.498979 0.933043 0.189490
H27   H     H_    0.156229 0.465430 0.865638 0.180412
C46   C     C_3   0.899692 0.518506 0.143060 -0.411349
C47   C     C_3   0.866629 0.623861 0.125702 -0.332852
C48   C     C_3   0.828432 0.640681 0.993380 -0.875386
H28   H     H_    0.883020 0.640398 0.924884 0.257397
H29   H     H_    0.778891 0.583438 0.967221 0.249136
H30   H     H_    0.794956 0.712920 0.989042 0.245130
H31   H     H_    0.814156 0.640891 0.194239 0.213289
H32   H     H_    0.922949 0.675400 0.142746 0.225046
H33   H     H_    0.944767 0.500459 0.065704 0.188929
H34   H     H_    0.843700 0.465823 0.133385 0.183352

loop_
_geom_bond_atom_site_label_1
_geom_bond_atom_site_label_2
_ccdc_geom_bond_type
Cu1   O7    S    
C48   H28   S    
C10   C46   S    
C27   C29   S    
C26   O6    A    
Cu2   N2    S    
C19   C20   A    
C7    H11   S    
Cu1   Cu2   S    
C8    H12   S    
C6    C9    A    
C39   C41   A    
C29   H5    S    
C45   H21   S    
C15   C19   A    
C17   C23   A    
C18   C24   A    
C35   C37   A    
C8    C42   A    
C29   C32   S    
C2    O2    A    
C47   H31   S    
C30   C31   S    
C43   H27   S    
C29   C33   S    
C26   O7    A    
C25   O8    A    
C17   C19   A    
C46   H33   S    
C11   C17   A    
C16   C22   A    
C31   C33   S    
Cu2   O4    S    
C25   O5    A    
C2    O3    A    
C21   H17   S    
C36   H8    S    
C16   C20   A    
C25   C34   S    
C12   H14   S    
C23   H19   S    
C30   H6    S    
C24   H20   S    
C28   H4    S    
C45   H22   S    
C27   C34   S    
C30   C34   S    
C27   C31   S    
C28   C32   S    
C44   C45   S    
C4    C6    A    
C44   H25   S    
C47   C48   S    
C13   N1    A    
C46   C47   S    
C12   N2    A    
C32   C34   S    
C43   C44   S    
Cu1   O1    S    
C22   H18   S    
C46   H34   S    
C26   C33   S    
Cu1   N1    S    
C14   N2    A    
Cu2   O8    S    
C1    C38   S    
C8    C10   A    
C28   C33   S    
C40   H10   S    
C13   C15   A    
C35   H7    S    
C14   C16   A    
Cu2   O2    S    
C21   C24   A    
C3    C4    A    
C45   H23   S    
C27   H3    S    
C7    C9    A    
C3    C41   A    
Cu1   O5    S    
C32   H2    S    
C3    C5    A    
C44   H24   S    
C13   H15   S    
C14   H16   S    
C1    O4    A    
C28   C30   S    
C5    C10   A    
C37   C39   A    
C47   H32   S    
C36   C38   A    
C38   C40   A    
C2    C37   S    
C43   H26   S    
C39   H9    S    
C4    C42   A    
C5    C35   A    
C40   C42   A    
C1    O1    A    
C6    C36   A    
Cu2   O6    S    
C18   C20   A    
C7    C41   A    
C15   C21   A    
Cu1   O3    S    
C31   H1    S    
C48   H30   S    
C12   C18   A    
C48   H29   S    
C22   C23   A    
C9    C43   S    
C11   H13   S    
C11   N1    A    
