data_mof_unit_7609.cif
_audit_creation_date              2012-12-11T15:43:10-0500
_audit_creation_method            fapswitch 2.2
_symmetry_space_group_name_H-M    P1
_symmetry_Int_Tables_number       1
_space_group_crystal_system       triclinic
_cell_length_a                    19.228441
_cell_length_b                    10.983766
_cell_length_c                    18.686864
_cell_angle_alpha                 89.967216
_cell_angle_beta                  89.75958
_cell_angle_gamma                 89.82885
_cell_volume                      3946.62572068

loop_
_atom_site_label
_atom_site_type_symbol
_atom_type_description
_atom_site_fract_x
_atom_site_fract_y
_atom_site_fract_z
_atom_type_partial_charge
Br1   Br    Br    0.616007 0.831307 0.591118 -0.397411
Br2   Br    Br    0.379552 0.795146 0.410216 -0.293166
Br3   Br    Br    0.138868 0.239784 0.568791 -0.402590
Br4   Br    Br    0.900108 0.365481 0.397788 -0.321834
C1    C     C_R   0.711419 0.328443 0.138942 0.573898
C2    C     C_R   0.993931 0.000646 0.036393 -0.129298
C3    C     C_R   0.772776 0.509189 0.560737 -0.005876
C4    C     C_R   0.731302 0.383938 0.350577 0.551785
C5    C     C_R   0.288673 0.330190 0.640304 0.610239
C6    C     C_R   0.228730 0.877071 0.352810 0.570801
C7    C     C_R   0.771018 0.877942 0.647476 0.599762
C8    C     C_R   0.563701 0.153782 0.360868 0.574161
C9    C     C_R   0.469443 0.157315 0.648041 0.535251
C10   C     C_R   0.059466 0.653463 0.361082 0.544538
C11   C     C_R   0.965063 0.657306 0.645750 0.559319
C12   C     C_R   0.741295 0.971433 0.354086 0.542825
C13   C     C_R   0.505874 0.500466 0.963019 -0.130511
C14   C     C_R   0.258482 0.969724 0.646373 0.581747
C15   C     C_R   0.243688 0.464479 0.351915 0.520084
C16   C     C_R   0.773099 0.524058 0.638856 0.576239
C17   C     C_R   0.498238 0.165136 0.924984 0.017017
C18   C     C_R   0.501682 0.165433 0.075027 0.014984
C19   C     C_R   0.998254 0.665136 0.924975 0.018610
C20   C     C_R   0.001694 0.665434 0.075020 0.014907
C21   C     C_R   0.502080 0.277938 0.962004 0.012665
C22   C     C_R   0.497826 0.278104 0.037810 0.010357
C23   C     C_R   0.002096 0.777937 0.961995 0.012612
C24   C     C_R   0.493926 0.500646 0.036406 -0.129933
C25   C     C_R   0.997840 0.778105 0.037802 0.011041
C26   C     C_R   0.498841 0.056469 0.036717 -0.122195
C27   C     C_R   0.500969 0.056305 0.963493 -0.121980
C28   C     C_R   0.998859 0.556470 0.036709 -0.122325
C29   C     C_R   0.000990 0.556305 0.963485 -0.121453
C30   C     C_R   0.780316 0.839200 0.938584 0.019672
C31   C     C_R   0.219794 0.839011 0.061405 0.018976
C32   C     C_R   0.280316 0.339207 0.938584 0.018898
C33   C     C_R   0.719799 0.339022 0.061410 0.019377
C34   C     C_R   0.723539 0.791495 0.976649 -0.017497
C35   C     C_R   0.276983 0.791721 0.023582 -0.017301
C36   C     C_R   0.223546 0.291486 0.976652 -0.017913
C37   C     C_R   0.288562 0.328627 0.861032 0.578954
C38   C     C_R   0.777003 0.291771 0.023597 -0.016404
C39   C     C_R   0.713394 0.820978 0.048469 0.042951
C40   C     C_R   0.287176 0.821170 0.951758 0.047432
C41   C     C_R   0.213403 0.320967 0.048474 0.043833
C42   C     C_R   0.787198 0.321225 0.951776 0.044926
C43   C     C_R   0.822655 0.926011 0.049063 -0.146213
C44   C     C_R   0.177276 0.925265 0.950680 -0.144230
C45   C     C_R   0.322653 0.426029 0.049061 -0.144559
C46   C     C_R   0.677279 0.425259 0.950684 -0.145833
C47   C     C_R   0.832264 0.897897 0.977393 -0.139182
C48   C     C_R   0.211419 0.828440 0.138942 0.573384
C49   C     C_R   0.167633 0.897258 0.022381 -0.139563
C50   C     C_R   0.332260 0.397923 0.977391 -0.138846
C51   C     C_R   0.667632 0.397241 0.022382 -0.140094
C52   C     C_3   0.647439 0.798836 0.961315 0.273588
C53   C     C_3   0.352980 0.799936 0.039170 0.273218
C54   C     C_3   0.147445 0.298812 0.961324 0.273412
C55   C     C_3   0.852994 0.300049 0.039200 0.273469
C56   C     C_3   0.636720 0.831352 0.039510 0.271419
C57   C     C_3   0.363731 0.832454 0.960982 0.270343
C58   C     C_3   0.136728 0.331321 0.039520 0.271025
C59   C     C_R   0.788562 0.828626 0.861032 0.577440
C60   C     C_3   0.863749 0.332576 0.961016 0.269917
C61   C     C_R   0.759982 0.898053 0.083830 -0.001605
C62   C     C_R   0.240227 0.897762 0.916152 0.003948
C63   C     C_R   0.259985 0.398053 0.083832 0.000326
C64   C     C_R   0.740237 0.397783 0.916162 0.000930
C65   C     C_R   0.530879 0.155900 0.147236 0.553167
C66   C     C_R   0.469110 0.155702 0.852764 0.542837
C67   C     C_R   0.030880 0.655900 0.147234 0.541234
C68   C     C_R   0.969117 0.655702 0.852758 0.552131
C69   C     C_R   0.508339 0.165394 0.581756 0.014436
C70   C     C_R   0.510005 0.390364 0.925922 -0.117051
C71   C     C_R   0.548330 0.163828 0.437120 0.018827
C72   C     C_R   0.990752 0.670690 0.574709 0.029490
C73   C     C_R   0.033900 0.663619 0.432790 0.035244
C74   C     C_R   0.521433 0.056805 0.546128 0.073460
C75   C     C_R   0.543803 0.056570 0.475447 -0.051027
C76   C     C_R   0.056445 0.630893 0.557340 0.127816
C77   C     C_R   0.078154 0.629396 0.487455 -0.042570
C78   C     C_R   0.525958 0.272069 0.470004 -0.122021
C79   C     C_R   0.511900 0.274349 0.543380 -0.091292
C80   C     C_R   0.969382 0.716340 0.449577 -0.070588
C81   C     C_R   0.489864 0.390705 0.073702 -0.117557
C82   C     C_R   0.947581 0.718588 0.521056 -0.146000
C83   C     C_3   0.465365 0.967057 0.530718 0.314303
C84   C     C_3   0.490892 0.965566 0.455788 0.312041
C85   C     C_3   0.092386 0.516988 0.576033 0.333975
C86   C     C_3   0.115134 0.513025 0.498199 0.257140
C87   C     C_R   0.758463 0.907462 0.573470 0.058797
C88   C     C_R   0.244817 0.915048 0.424750 -0.008952
C89   C     C_R   0.281168 0.335260 0.561532 0.025129
C90   C     C_R   0.756502 0.451928 0.414242 -0.009494
C91   C     C_R   0.816725 0.936442 0.532431 -0.078408
C92   C     C_R   0.010018 0.890361 0.925911 -0.117086
C93   C     C_R   0.192395 0.973636 0.464000 -0.020290
C94   C     C_R   0.335324 0.385142 0.521982 -0.099241
C95   C     C_R   0.708581 0.526886 0.450468 -0.003800
C96   C     C_R   0.814359 0.941504 0.459588 -0.036132
C97   C     C_R   0.194843 0.977257 0.537066 0.013425
C98   C     C_R   0.327634 0.408665 0.449233 0.013449
C99   C     C_R   0.715235 0.549460 0.522899 -0.026478
C100  C     C_R   0.694858 0.875017 0.463467 -0.124275
C101  C     C_R   0.303482 0.868818 0.536279 -0.107641
C102  C     C_R   0.217987 0.308122 0.447995 -0.088283
C103  C     C_R   0.989875 0.890706 0.073691 -0.117693
C104  C     C_R   0.829376 0.461122 0.521282 -0.101005
C105  C     C_R   0.697678 0.871084 0.538220 0.101953
C106  C     C_R   0.302753 0.867076 0.461269 0.130937
C107  C     C_R   0.222912 0.289873 0.522778 0.129635
C108  C     C_R   0.821584 0.432118 0.447896 0.129083
C109  C     C_3   0.867126 0.038683 0.538746 0.306890
C110  C     C_3   0.115610 0.949146 0.466070 0.321308
C111  C     C_3   0.370365 0.504172 0.535446 0.289661
C112  C     C_3   0.632571 0.506406 0.458981 0.300385
C113  C     C_R   0.742145 0.967299 0.148276 0.529124
C114  C     C_R   0.005880 0.000464 0.963006 -0.131353
C115  C     C_R   0.257914 0.967164 0.851745 0.536299
C116  C     C_R   0.242146 0.467298 0.148277 0.526013
C117  C     C_R   0.757917 0.467172 0.851747 0.543220
C118  C     C_3   0.864035 0.046820 0.458043 0.335751
C119  C     C_3   0.119604 0.950927 0.546593 0.281362
C120  C     C_3   0.361853 0.527739 0.457534 0.339208
C121  C     C_3   0.640599 0.522624 0.537966 0.283065
C122  C     C_R   0.752113 0.919350 0.423959 -0.032745
C123  C     C_R   0.249191 0.925076 0.574436 0.037551
C124  C     C_R   0.264973 0.385958 0.413489 -0.053405
Cr1   Cr    Cr6+3 0.772010 0.169670 0.250090 1.108468
Cr2   Cr    Cr6+3 0.383290 0.010760 0.749160 1.132871
Cr3   Cr    Cr6+3 0.116710 0.510760 0.250840 1.140887
Cr4   Cr    Cr6+3 0.883290 0.510760 0.749160 1.111646
Cr5   Cr    Cr6+3 0.227990 0.169670 0.749910 1.114180
Cr6   Cr    Cr6+3 0.272010 0.669670 0.250090 1.126144
Cr7   Cr    Cr6+3 0.727990 0.669670 0.749910 1.107804
Cr8   Cr    Cr6+3 0.615000 0.323260 0.249260 1.089547
Cr9   Cr    Cr6+3 0.385000 0.323260 0.750740 1.072563
Cr10  Cr    Cr6+3 0.115000 0.823260 0.249260 1.090544
Cr11  Cr    Cr6+3 0.885000 0.823260 0.750740 1.062209
Cr12  Cr    Cr6+3 0.616710 0.010760 0.250840 1.115106
F1    F     F_    0.472964 0.856466 0.564956 -0.576438
F2    F     F_    0.111591 0.840268 0.579190 -0.653843
F3    F     F_    0.424316 0.532490 0.420477 -0.574483
F4    F     F_    0.633123 0.413915 0.574720 -0.633691
F5    F     F_    0.631293 0.894822 0.916216 -0.632259
F6    F     F_    0.368313 0.896168 0.084209 -0.630595
F7    F     F_    0.131290 0.394798 0.916228 -0.628252
F8    F     F_    0.868293 0.396295 0.084242 -0.634057
F9    F     F_    0.601939 0.741432 0.077056 -0.647084
F10   F     F_    0.399285 0.742912 0.923654 -0.646147
F11   F     F_    0.101957 0.241389 0.077065 -0.647193
F12   F     F_    0.441589 0.017618 0.410611 -0.601563
F13   F     F_    0.899337 0.243065 0.923696 -0.648996
F14   F     F_    0.147218 0.537898 0.622147 -0.553659
F15   F     F_    0.082664 0.420942 0.460473 -0.592401
F16   F     F_    0.838055 0.139656 0.571849 -0.608072
F17   F     F_    0.078117 0.046583 0.439159 -0.532536
F18   F     F_    0.329974 0.583866 0.575581 -0.594093
F19   F     F_    0.593674 0.597876 0.427320 -0.587009
F20   F     F_    0.926498 0.015413 0.425875 -0.570060
H1    H     H_    0.499300 0.968884 0.063350 0.212702
H2    H     H_    0.171798 0.523418 0.489352 0.134753
H3    H     H_    0.412729 0.007654 0.536936 0.116957
H4    H     H_    0.514453 0.878552 0.437130 0.217087
H5    H     H_    0.645968 0.855344 0.437466 0.188250
H6    H     H_    0.346771 0.829187 0.564630 0.247651
H7    H     H_    0.171314 0.280328 0.420397 0.255505
H8    H     H_    0.877817 0.439643 0.547878 0.185495
H9    H     H_    0.918474 0.010428 0.560416 0.178723
H10   H     H_    0.101259 0.861098 0.442853 0.134387
H11   H     H_    0.424952 0.500003 0.553040 0.163758
H12   H     H_    0.500445 0.968642 0.937016 0.212977
H13   H     H_    0.619421 0.413892 0.443133 0.142447
H14   H     H_    0.841063 0.133312 0.438424 0.197812
H15   H     H_    0.086902 0.021095 0.572415 0.214625
H16   H     H_    0.323315 0.600085 0.447984 0.177233
H17   H     H_    0.609162 0.597176 0.560462 0.218578
H18   H     H_    0.521498 0.394671 0.869323 0.158539
H19   H     H_    0.478427 0.395283 0.130305 0.161666
H20   H     H_    0.021513 0.894665 0.869313 0.158609
H21   H     H_    0.978437 0.895286 0.130294 0.159601
H22   H     H_    0.011282 0.085727 0.934524 0.191389
H23   H     H_    0.999314 0.468885 0.063343 0.212416
H24   H     H_    0.988576 0.086058 0.064729 0.192529
H25   H     H_    0.511279 0.585730 0.934538 0.192690
H26   H     H_    0.488576 0.586057 0.064745 0.192770
H27   H     H_    0.860614 0.983690 0.074275 0.147380
H28   H     H_    0.139066 0.982560 0.925231 0.146558
H29   H     H_    0.360608 0.483716 0.074271 0.147527
H30   H     H_    0.639062 0.482532 0.925229 0.146992
H31   H     H_    0.877157 0.933612 0.950481 0.185444
H32   H     H_    0.122502 0.932677 0.049170 0.185360
H33   H     H_    0.377146 0.433655 0.950477 0.185238
H34   H     H_    0.000465 0.468643 0.937009 0.212581
H35   H     H_    0.622491 0.432629 0.049167 0.185306
H36   H     H_    0.124651 0.210314 0.945058 0.142131
H37   H     H_    0.876363 0.211850 0.055661 0.143935
H38   H     H_    0.624640 0.710341 0.945050 0.143297
H39   H     H_    0.376330 0.711718 0.055626 0.143688
H40   H     H_    0.617245 0.924881 0.049270 0.142879
H41   H     H_    0.382535 0.926215 0.951182 0.141203
H42   H     H_    0.117245 0.424843 0.049284 0.143038
H43   H     H_    0.882526 0.426354 0.951219 0.141445
H44   H     H_    0.516110 0.353068 0.438785 0.207467
H45   H     H_    0.498449 0.358801 0.568934 0.165129
H46   H     H_    0.934956 0.748442 0.407857 0.179166
H47   H     H_    0.895454 0.747521 0.533969 0.100473
H48   H     H_    0.055980 0.444316 0.593370 0.187992
O1    O     O_R   0.787520 0.042810 0.170440 -0.532926
O2    O     O_R   0.454050 0.051210 0.669140 -0.454522
O3    O     O_R   0.045950 0.551210 0.330860 -0.402726
O4    O     O_R   0.954050 0.551210 0.669140 -0.526015
O5    O     O_R   0.681390 0.959480 0.325510 -0.520462
O6    O     O_R   0.318610 0.959480 0.674490 -0.496973
O7    O     O_R   0.181390 0.459480 0.325510 -0.480233
O8    O     O_R   0.818610 0.459480 0.674490 -0.460247
O9    O     O_3   0.667900 0.167900 0.250060 -0.346750
O10   O     O_3   0.332100 0.167900 0.749940 -0.360581
O11   O     O_3   0.167900 0.667900 0.250060 -0.349126
O12   O     O_R   0.212480 0.042810 0.829560 -0.538325
O13   O     O_3   0.832100 0.667900 0.749940 -0.356874
O14   O     O_R   0.765640 0.292100 0.175020 -0.434576
O15   O     O_R   0.234360 0.292100 0.824980 -0.426936
O16   O     O_R   0.265640 0.792100 0.175020 -0.431920
O17   O     O_R   0.734360 0.792100 0.824980 -0.433480
O18   O     O_R   0.670190 0.408840 0.168540 -0.481657
O19   O     O_R   0.329810 0.408840 0.831460 -0.470924
O20   O     O_R   0.170190 0.908840 0.168540 -0.480396
O21   O     O_R   0.829810 0.908840 0.831460 -0.479158
O22   O     O_R   0.556620 0.251410 0.175160 -0.533445
O23   O     O_R   0.287520 0.542810 0.170440 -0.533111
O24   O     O_R   0.443380 0.251410 0.824840 -0.539424
O25   O     O_R   0.056620 0.751410 0.175160 -0.535669
O26   O     O_R   0.943380 0.751410 0.824840 -0.535133
O27   O     O_R   0.545960 0.049620 0.170320 -0.480744
O28   O     O_R   0.454040 0.049620 0.829680 -0.483548
O29   O     O_R   0.045960 0.549620 0.170320 -0.486623
O30   O     O_R   0.954040 0.549620 0.829680 -0.484651
O31   O     O_R   0.681390 0.958010 0.176690 -0.481710
O32   O     O_R   0.318610 0.958010 0.823310 -0.475643
O33   O     O_R   0.181390 0.458010 0.176690 -0.484699
O34   O     O_R   0.712480 0.542810 0.829560 -0.532816
O35   O     O_R   0.818610 0.458010 0.823310 -0.475472
O36   O     O_R   0.787510 0.044390 0.330970 -0.488193
O37   O     O_R   0.212490 0.044390 0.669030 -0.489089
O38   O     O_R   0.287510 0.544390 0.330970 -0.478272
O39   O     O_R   0.712490 0.544390 0.669030 -0.434266
O40   O     O_R   0.765630 0.293570 0.323840 -0.465127
O41   O     O_R   0.234370 0.293570 0.676160 -0.414869
O42   O     O_R   0.265630 0.793570 0.323840 -0.451469
O43   O     O_R   0.734370 0.793570 0.676160 -0.484250
O44   O     O_R   0.670190 0.410420 0.329080 -0.497856
O45   O     O_R   0.556610 0.252880 0.323980 -0.483874
O46   O     O_R   0.329810 0.410420 0.670920 -0.412632
O47   O     O_R   0.170190 0.910420 0.329080 -0.487804
O48   O     O_R   0.829810 0.910420 0.670920 -0.489613
O49   O     O_R   0.443390 0.252880 0.676020 -0.537864
O50   O     O_R   0.056610 0.752880 0.323980 -0.500024
O51   O     O_R   0.943390 0.752880 0.676020 -0.490410
O52   O     O_R   0.545950 0.051210 0.330860 -0.426235

loop_
_geom_bond_atom_site_label_1
_geom_bond_atom_site_label_2
_ccdc_geom_bond_type
C74   C83   S    
C54   C58   S    
C95   C99   A    
C83   C84   S    
Cr10  O50   S    
C7    C87   S    
C1    C33   S    
C31   C49   A    
C15   C124  S    
C28   H23   S    
C40   C62   A    
C5    O46   A    
Cr4   O4    S    
C101  C106  A    
C83   F1    S    
C37   O19   A    
C32   C37   S    
C11   O51   A    
C59   O17   A    
C1    O18   A    
C17   C27   A    
Cr2   O32   S    
C30   C47   A    
C97   C119  S    
C83   H3    S    
C10   O3    A    
C86   H2    S    
C31   C48   S    
C96   C122  A    
C16   O8    A    
Cr7   O34   S    
C92   C114  A    
C80   C82   A    
C44   H28   S    
C98   C124  A    
Br4   C108  S    
C100  C105  A    
C115  O32   A    
C85   H48   S    
C45   H29   S    
C27   H12   S    
C121  F4    S    
C45   C50   A    
C35   C53   S    
C102  C124  A    
C41   C58   S    
C52   F5    S    
C101  H6    S    
Cr3   O11   S    
C21   C70   A    
C38   C42   A    
C10   C73   S    
Cr2   O28   S    
C76   C85   S    
Cr2   O10   S    
Cr4   O30   S    
C20   C25   A    
C58   H42   S    
Cr1   O9    S    
Br1   C105  S    
C100  H5    S    
C48   O20   A    
C16   O39   A    
C117  O35   A    
C109  C118  S    
C13   H25   S    
C119  H15   S    
C19   C29   A    
C94   C98   A    
Cr11  O51   S    
Cr9   O10   S    
C41   C63   A    
Cr12  O27   S    
C2    C103  A    
C120  F3    S    
Cr4   O8    S    
C19   C23   A    
C54   H36   S    
C45   C63   A    
C63   C116  S    
C18   C65   S    
C15   O7    A    
Cr9   O46   S    
C67   O29   A    
C39   C61   A    
C59   O21   A    
C57   H41   S    
C55   F8    S    
Cr11  O13   S    
C1    O14   A    
C104  H8    S    
C6    C88   S    
C50   H33   S    
C3    C99   A    
C53   F6    S    
C53   H39   S    
C84   F12   S    
C4    O44   A    
C23   C92   A    
C14   O6    A    
Cr9   O24   S    
C98   C120  S    
C19   C68   S    
C116  O23   A    
C75   C84   S    
C88   C93   A    
C33   C38   A    
C52   H38   S    
C102  C107  A    
C114  H22   S    
C56   F9    S    
C117  O34   A    
Cr7   O13   S    
C55   H37   S    
Cr7   O43   S    
Cr5   O12   S    
C36   C54   S    
C58   F11   S    
C101  C123  A    
C111  F18   S    
Cr3   O7    S    
Cr4   O13   S    
Cr7   O39   S    
Cr8   O45   S    
C32   C36   A    
C4    O40   A    
C4    C90   S    
Cr12  O5    S    
C118  F20   S    
C112  F19   S    
C111  H11   S    
C10   O50   A    
Br3   C107  S    
C95   C112  S    
Cr7   O17   S    
C91   C96   A    
Cr1   O14   S    
C43   C47   A    
Cr8   O9    S    
C73   C80   A    
C21   C22   A    
C118  H14   S    
C5    C89   S    
Cr8   O22   S    
C60   F13   S    
C3    C16   S    
Cr12  O31   S    
C7    O43   A    
C104  C108  A    
C42   C60   S    
C6    O42   A    
C30   C34   A    
C64   C117  S    
C31   C35   A    
C20   C28   A    
C110  F17   S    
C42   C64   A    
C11   O4    A    
C18   C26   A    
C24   H26   S    
C14   C123  S    
C12   O36   A    
Cr4   O35   S    
Cr8   O18   S    
C70   H18   S    
C73   C77   A    
C81   H19   S    
C80   H46   S    
Cr11  O26   S    
C7    O48   A    
C55   C60   S    
C34   C52   S    
Cr11  O21   S    
C66   O28   A    
Cr6   O23   S    
C92   H20   S    
Cr10  O20   S    
C110  C119  S    
C37   O15   A    
Cr3   O3    S    
C39   C56   S    
C89   C107  A    
C68   O26   A    
C77   C86   S    
C112  H13   S    
Cr5   O10   S    
C60   H43   S    
C103  H21   S    
Cr10  O11   S    
C48   O16   A    
Cr6   O16   S    
C62   C115  S    
Cr3   O33   S    
C13   C70   A    
C40   C57   S    
C68   O30   A    
Cr2   O2    S    
C71   C75   A    
Cr6   O42   S    
C109  F16   S    
Cr1   O1    S    
Cr10  O47   S    
C85   C86   S    
C72   C82   A    
C111  C120  S    
C43   H27   S    
C47   H31   S    
C20   C67   S    
C5    O41   A    
C57   F10   S    
C6    O47   A    
C110  H10   S    
C17   C21   A    
Br2   C106  S    
C9    O49   A    
C8    O45   A    
Cr12  O52   S    
C54   F7    S    
C13   C24   A    
C9    O2    A    
Cr8   O44   S    
C72   C76   A    
Cr5   O41   S    
C9    C69   S    
C76   C77   A    
C38   C55   S    
C29   H34   S    
C109  H9    S    
C71   C78   A    
C53   C57   S    
C35   C40   A    
C120  H16   S    
Cr1   O36   S    
Cr9   O49   S    
C44   C49   A    
Cr6   O38   S    
C82   H47   S    
C78   H44   S    
C46   C51   A    
C17   C66   S    
C112  C121  S    
C102  H7    S    
C87   C105  A    
C113  O1    A    
Cr11  O48   S    
C86   F15   S    
C34   C39   A    
Cr9   O19   S    
C84   H4    S    
C65   O22   A    
C28   C29   A    
C121  H17   S    
C74   C75   A    
C14   O37   A    
C88   C106  A    
C85   F14   S    
C26   C27   A    
C23   C25   A    
C90   C95   A    
C91   C109  S    
C22   C81   A    
Cr5   O15   S    
Cr3   O29   S    
C119  F2    S    
C90   C108  A    
C30   C59   S    
C97   C123  A    
C43   C61   A    
C69   C74   A    
Cr2   O6    S    
C94   C111  S    
C96   C118  S    
C116  O33   A    
C67   O25   A    
C65   O27   A    
C12   O5    A    
C46   H30   S    
C49   H32   S    
C66   O24   A    
C12   C122  S    
C32   C50   A    
C51   H35   S    
C56   H40   S    
C87   C91   A    
C33   C51   A    
C52   C56   S    
Cr12  O9    S    
C100  C122  A    
C36   C41   A    
C113  O31   A    
C79   H45   S    
C78   C79   A    
C18   C22   A    
C8    C71   S    
Cr5   O37   S    
C24   C81   A    
C61   C113  S    
C3    C104  A    
C25   C103  A    
Cr10  O25   S    
C11   C72   S    
C8    O52   A    
C26   H1    S    
C44   C62   A    
C93   C110  S    
C2    H24   S    
C99   C121  S    
C46   C64   A    
C89   C94   A    
C69   C79   A    
C115  O12   A    
C93   C97   A    
Cr6   O11   S    
C15   O38   A    
C2    C114  A    
Cr1   O40   S    
