data_mof_unit_12295.cif
_audit_creation_date              2012-12-10T18:21:14-0500
_audit_creation_method            fapswitch 2.2
_symmetry_space_group_name_H-M    P1
_symmetry_Int_Tables_number       1
_space_group_crystal_system       triclinic
_cell_length_a                    9.411168
_cell_length_b                    10.624296
_cell_length_c                    17.220948
_cell_angle_alpha                 89.921696
_cell_angle_beta                  86.323214
_cell_angle_gamma                 89.563981
_cell_volume                      1718.27694249

loop_
_atom_site_label
_atom_site_type_symbol
_atom_type_description
_atom_site_fract_x
_atom_site_fract_y
_atom_site_fract_z
_atom_type_partial_charge
C1    C     C_R   0.499497 0.740633 0.499958 0.785263
C2    C     C_R   0.500502 0.259366 0.500045 0.784501
C3    C     C_3   0.364599 0.960701 0.499904 -0.137067
C4    C     C_3   0.635401 0.039294 0.500105 -0.137564
C5    C     C_3   0.440729 0.042815 0.436045 -0.164252
C6    C     C_3   0.559271 0.957180 0.563965 -0.168495
C7    C     C_3   0.501456 0.122389 0.500035 0.020154
C8    C     C_3   0.498543 0.877607 0.499973 0.020065
C9    C     C_3   0.425442 0.042547 0.563896 -0.166905
C10   C     C_3   0.574558 0.957448 0.436114 -0.162877
C11   C     C_3   0.950284 0.386356 0.502762 -0.039088
C12   C     C_3   0.049717 0.613644 0.497236 -0.039794
C13   C     C_3   0.043808 0.446964 0.562187 -0.038905
C14   C     C_3   0.956192 0.553036 0.437812 -0.027173
C15   C     C_3   0.058031 0.439439 0.440513 -0.027005
C16   C     C_3   0.941970 0.560563 0.559485 -0.037781
C17   C     C_R   0.481866 0.503835 0.650052 0.793394
C18   C     C_R   0.518123 0.496716 0.349923 0.799040
C19   C     C_R   0.474031 0.519276 0.734681 -0.025109
C20   C     C_R   0.525843 0.484614 0.265082 -0.087896
C21   C     C_R   0.595738 0.556849 0.771342 -0.299355
C22   C     C_R   0.403668 0.450122 0.227792 -0.171864
C23   C     C_R   0.591169 0.575685 0.851630 0.044816
C24   C     C_R   0.407443 0.437362 0.146886 0.027423
C25   C     C_R   0.462709 0.550674 0.896155 0.157814
C26   C     C_R   0.536021 0.463667 0.103009 0.067438
C27   C     C_R   0.339986 0.518145 0.859109 -0.203297
C28   C     C_R   0.659241 0.492669 0.140594 -0.097466
C29   C     C_R   0.345314 0.502806 0.778786 -0.194408
C30   C     C_R   0.654405 0.503112 0.221197 -0.193449
C31   C     C_2   0.455268 0.545376 0.981191 -0.153896
C32   C     C_2   0.543880 0.470094 0.017958 -0.205658
Cu1   Cu    Cu3+1 0.356850 0.500010 0.499980 0.934021
Cu2   Cu    Cu3+1 0.643150 0.499990 0.500020 0.934907
H1    H     H_    0.694216 0.574683 0.737052 0.139093
H2    H     H_    0.305541 0.431000 0.262015 0.184082
H3    H     H_    0.904286 0.290453 0.505139 0.113315
H4    H     H_    0.095715 0.709547 0.494859 0.113186
H5    H     H_    0.111769 0.388332 0.390534 0.121218
H6    H     H_    0.888236 0.611689 0.609456 0.105995
H7    H     H_    0.750344 0.528078 0.248953 0.160075
H8    H     H_    0.249688 0.475568 0.751480 0.144519
H9    H     H_    0.630038 0.420538 0.985579 0.161737
H10   H     H_    0.369223 0.595194 0.013482 0.150103
H11   H     H_    0.241072 0.499901 0.892852 0.138182
H12   H     H_    0.758315 0.511569 0.107164 0.170995
H13   H     H_    0.392396 0.081070 0.383723 0.133691
H14   H     H_    0.607599 0.918918 0.616286 0.129091
H15   H     H_    0.253623 0.926028 0.499824 0.128373
H16   H     H_    0.746377 0.073966 0.500185 0.128667
H17   H     H_    0.364588 0.080552 0.616164 0.128215
H18   H     H_    0.635410 0.919439 0.383846 0.133031
H19   H     H_    0.085480 0.402102 0.614458 0.109749
H20   H     H_    0.914522 0.597899 0.385540 0.117440
N1    N     N_3   0.141720 0.500030 0.499940 -0.156646
N2    N     N_3   0.858280 0.499970 0.500060 -0.156090
O1    O     O_R   0.379130 0.683150 0.499960 -0.587593
O2    O     O_R   0.620870 0.316850 0.500040 -0.587647
O3    O     O_R   0.620910 0.683140 0.500000 -0.583189
O4    O     O_R   0.379090 0.316860 0.500000 -0.582999
O5    O     O_R   0.365090 0.500030 0.613580 -0.588553
O6    O     O_R   0.634910 0.499970 0.386420 -0.582915
O7    O     O_R   0.606870 0.500020 0.613610 -0.585298
O8    O     O_R   0.393130 0.499980 0.386390 -0.587396
C33   C     C_2   0.278778 0.392582 0.109673 0.320705
H21   H     H_    0.284783 0.365712 0.048822 0.084008
O9    O     O_2   0.164262 0.383913 0.146810 -0.557045
C34   C     C_2   0.721269 0.624701 0.885283 0.322631
H22   H     H_    0.822922 0.619010 0.851851 0.057131
O10   O     O_2   0.716316 0.676233 0.948725 -0.529391

loop_
_geom_bond_atom_site_label_1
_geom_bond_atom_site_label_2
_ccdc_geom_bond_type
C25   C31   S    
C14   N2    S    
Cu2   N2    S    
C29   H8    S    
C27   C29   A    
C1    C8    S    
C2    C7    S    
C9    H17   S    
C10   H18   S    
C6    C9    S    
C3    H15   S    
C20   C30   A    
C26   C32   S    
C5    H13   S    
C28   H12   S    
C6    H14   S    
C19   C21   A    
C24   C26   A    
C1    O3    A    
C2    O4    A    
Cu2   O6    S    
C11   H3    S    
C17   O5    A    
C11   C15   S    
C12   C16   S    
C34   H22   S    
C33   O9    D    
C30   H7    S    
C27   H11   S    
C4    C7    S    
C13   H19   S    
C31   H10   S    
C4    C6    S    
C3    C8    S    
C5    C7    S    
C18   O6    A    
C6    C8    S    
C4    H16   S    
C15   N1    S    
C23   C34   S    
C16   N2    S    
C3    C9    S    
C1    O1    A    
C31   C32   D    
Cu1   Cu2   S    
Cu1   N1    S    
C15   H5    S    
C24   C33   S    
C16   H6    S    
C8    C10   S    
C14   H20   S    
C12   C14   S    
Cu1   O4    S    
C21   C23   A    
Cu2   O3    S    
C22   C24   A    
C4    C10   S    
C19   C29   A    
C7    C9    S    
Cu1   O1    S    
C20   C22   A    
C3    C5    S    
C2    O2    A    
C21   H1    S    
C25   C27   A    
C22   H2    S    
C26   C28   A    
C28   C30   A    
C5    C10   S    
C17   O7    A    
C11   C13   S    
C18   O8    A    
Cu1   O8    S    
Cu2   O7    S    
C17   C19   S    
C32   H9    S    
C18   C20   S    
C23   C25   A    
C12   H4    S    
C12   N1    S    
Cu1   O5    S    
C33   H21   S    
C13   C16   S    
Cu2   O2    S    
C34   O10   D    
C14   C15   S    
C11   N2    S    
C13   N1    S    
