data_mof_unit_32404.cif
_audit_creation_date              2012-12-11T14:46:29-0500
_audit_creation_method            fapswitch 2.2
_symmetry_space_group_name_H-M    P1
_symmetry_Int_Tables_number       1
_space_group_crystal_system       triclinic
_cell_length_a                    17.467509
_cell_length_b                    17.60615
_cell_length_c                    6.943615
_cell_angle_alpha                 89.87773
_cell_angle_beta                  90.662173
_cell_angle_gamma                 90.058105
_cell_volume                      2135.26017579

loop_
_atom_site_label
_atom_site_type_symbol
_atom_type_description
_atom_site_fract_x
_atom_site_fract_y
_atom_site_fract_z
_atom_type_partial_charge
O1    O     O_R   0.796490 0.328940 0.373020 -0.526720
O2    O     O_R   0.203510 0.671060 0.626980 -0.526720
O3    O     O_R   0.203510 0.828940 0.626980 -0.529782
O4    O     O_R   0.796490 0.171060 0.373020 -0.529782
O5    O     O_R   0.805560 0.173330 0.702970 -0.521006
O6    O     O_R   0.194440 0.826670 0.297030 -0.521005
O7    O     O_R   0.194440 0.673330 0.297030 -0.526703
O8    O     O_R   0.805560 0.326670 0.702970 -0.526703
O9    O     O_R   0.658440 0.172360 0.870170 -0.530227
O10   O     O_R   0.341560 0.827640 0.129830 -0.530227
O11   O     O_R   0.341560 0.672360 0.129830 -0.536873
O12   O     O_R   0.658440 0.327640 0.870170 -0.536873
C1    C     C_R   0.825280 0.147708 0.535346 0.787494
C2    C     C_R   0.174720 0.852292 0.464654 0.787493
C3    C     C_R   0.174890 0.647533 0.464960 0.787432
C4    C     C_R   0.825109 0.352467 0.535040 0.787432
O13   O     O_3   0.679200 0.250000 0.537050 -0.375994
O14   O     O_3   0.320800 0.750000 0.462950 -0.375994
V1    V     V_3+5 0.736420 0.250000 0.813120 1.564483
V2    V     V_3+5 0.263580 0.750000 0.186880 1.564483
O15   O     O_R   0.649370 0.327980 0.199650 -0.532937
O16   O     O_R   0.350630 0.672020 0.800350 -0.532937
O17   O     O_R   0.350630 0.827980 0.800350 -0.540461
O18   O     O_R   0.649370 0.172020 0.199650 -0.540461
C5    C     C_R   0.630532 0.354365 0.029678 0.725467
C6    C     C_R   0.369468 0.645635 0.970322 0.725468
C7    C     C_R   0.369565 0.854275 0.970069 0.729409
C8    C     C_R   0.630435 0.145725 0.029931 0.729408
V3    V     V_3+5 0.718510 0.250000 0.312740 1.545346
V4    V     V_3+5 0.281490 0.750000 0.687260 1.545346
O19   O     O_3   0.775740 0.250000 0.038930 -0.347947
O20   O     O_3   0.224260 0.750000 0.961070 -0.347948
C9    C     C_1   0.573995 0.083304 0.017749 -0.140432
C10   C     C_1   0.426005 0.916696 0.982251 -0.140432
C11   C     C_1   0.425892 0.583208 0.982886 -0.136882
C12   C     C_1   0.574108 0.416792 0.017114 -0.136882
C13   C     C_1   0.527411 0.030955 0.006694 0.054726
C14   C     C_1   0.472589 0.969045 0.993306 0.054726
C15   C     C_1   0.472531 0.530916 0.993614 0.058369
C16   C     C_1   0.527469 0.469083 0.006386 0.058370
C17   C     C_R   0.881733 0.085087 0.530893 -0.120253
C18   C     C_R   0.118267 0.914913 0.469106 -0.120252
C19   C     C_R   0.119345 0.584134 0.474514 -0.122225
C20   C     C_R   0.880655 0.415866 0.525486 -0.122225
C21   C     C_R   0.086901 0.046244 0.394213 -0.076226
C22   C     C_R   0.913099 0.953756 0.605784 -0.076226
C23   C     C_R   0.906116 0.547909 0.445559 -0.075933
C24   C     C_R   0.093883 0.452092 0.554438 -0.075932
C25   C     C_R   0.137931 0.984881 0.387047 0.057325
C26   C     C_R   0.862069 0.015119 0.612951 0.057324
C27   C     C_R   0.854823 0.486916 0.461775 0.053407
C28   C     C_R   0.145176 0.513084 0.538223 0.053407
C29   C     C_R   0.047221 0.906370 0.562042 0.076819
C30   C     C_R   0.952779 0.093630 0.437958 0.076819
C31   C     C_R   0.958250 0.405763 0.577950 0.074698
C32   C     C_R   0.041750 0.594238 0.422050 0.074698
C33   C     C_R   0.989920 0.964314 0.543024 0.017533
C34   C     C_R   0.010081 0.035686 0.456974 0.017533
C35   C     C_R   0.013284 0.463740 0.534223 0.018100
C36   C     C_R   0.986715 0.536261 0.465776 0.018101
C37   C     C_1   0.119550 0.120338 0.359086 0.453566
N1    N     N_1   0.147340 0.179003 0.331108 -0.243129
C38   C     C_1   0.880450 0.879661 0.640907 0.453566
N2    N     N_1   0.852661 0.820996 0.668882 -0.243131
C39   C     C_1   0.872040 0.622409 0.430313 0.454635
N3    N     N_1   0.843120 0.681415 0.419049 -0.245799
C40   C     C_1   0.127959 0.377591 0.569676 0.454636
N4    N     N_1   0.156877 0.318585 0.580933 -0.245799
I1    I     I_    0.962720 0.189248 0.244612 -0.295195
I2    I     I_    0.037281 0.810754 0.755394 -0.295193
I3    I     I_    0.016853 0.692901 0.247875 -0.305470
I4    I     I_    0.983147 0.307102 0.752130 -0.305467
I5    I     I_    0.749341 0.998549 0.728528 -0.363975
I6    I     I_    0.250659 0.001451 0.271468 -0.363975
I7    I     I_    0.265626 0.495499 0.591710 -0.364644
I8    I     I_    0.734373 0.504500 0.408287 -0.364645

loop_
_geom_bond_atom_site_label_1
_geom_bond_atom_site_label_2
_ccdc_geom_bond_type
O10   C7    A    
C31   C35   A    
O13   V3    S    
C28   I7    S    
V1    O19   S    
C1    C17   S    
C30   I1    S    
C18   C29   A    
C30   C34   A    
C19   C28   A    
O4    C1    A    
O18   V3    S    
C23   C36   A    
O9    V1    S    
O10   V2    S    
O14   V4    S    
O17   C7    A    
C4    C20   S    
O5    C1    A    
C31   I4    S    
C2    C18   S    
O7    C3    A    
C35   C36   A    
O8    C4    A    
C29   I2    S    
C7    C10   S    
C21   C34   A    
O11   V2    S    
O8    V1    S    
C40   N4    T    
O17   V4    S    
C12   C16   T    
C27   I8    S    
C26   I5    S    
C15   C16   S    
C29   C33   A    
C23   C27   A    
C18   C25   A    
O11   C6    A    
O15   V3    S    
C9    C13   T    
C32   C36   A    
O3    V4    S    
C11   C15   T    
C13   C14   S    
O6    C2    A    
C6    C11   S    
C21   C25   A    
C32   I3    S    
O1    V3    S    
O1    C4    A    
O2    C3    A    
O3    C2    A    
C20   C27   A    
C8    C9    S    
C39   N3    T    
C22   C33   A    
C17   C26   A    
C24   C35   A    
V2    O20   S    
O15   C5    A    
O16   V4    S    
C10   C14   T    
O18   C8    A    
O4    V3    S    
O5    V1    S    
O6    V2    S    
C22   C26   A    
O12   C5    A    
O2    V4    S    
C3    C19   S    
V3    O19   S    
V4    O20   S    
C20   C31   A    
C33   C34   A    
C22   C38   S    
O12   V1    S    
C21   C37   S    
O13   V1    S    
O14   V2    S    
C24   C40   S    
C37   N1    T    
C17   C30   A    
C5    C12   S    
C38   N2    T    
C19   C32   A    
C24   C28   A    
O7    V2    S    
O16   C6    A    
C25   I6    S    
C23   C39   S    
O9    C8    A    
