data_mof_unit_27174.cif
_audit_creation_date              2012-12-11T14:30:16-0500
_audit_creation_method            fapswitch 2.2
_symmetry_space_group_name_H-M    P1
_symmetry_Int_Tables_number       1
_space_group_crystal_system       triclinic
_cell_length_a                    12.937459
_cell_length_b                    12.937865
_cell_length_c                    27.105617
_cell_angle_alpha                 90.007146
_cell_angle_beta                  89.999328
_cell_angle_gamma                 119.991615
_cell_volume                      3929.50834404

loop_
_atom_site_label
_atom_site_type_symbol
_atom_type_description
_atom_site_fract_x
_atom_site_fract_y
_atom_site_fract_z
_atom_type_partial_charge
C1    C     C_R   0.560702 0.455548 0.822325 0.551276
C2    C     C_R   0.454200 0.556753 0.177948 0.543213
C3    C     C_R   0.907301 0.295739 0.464307 0.285695
C4    C     C_R   0.388351 0.092924 0.035775 0.285363
C5    C     C_R   0.704524 0.611530 0.464236 0.285373
C6    C     C_R   0.385983 0.102862 0.515351 0.279633
C7    C     C_R   0.897115 0.283153 0.984620 0.279113
C8    C     C_R   0.716902 0.613696 0.515336 0.281228
C9    C     C_R   0.386134 0.103078 0.984673 0.279084
C10   C     C_R   0.896986 0.283321 0.515389 0.279524
C11   C     C_R   0.716967 0.613952 0.984669 0.279165
C12   C     C_2   0.091535 0.746502 0.127623 0.699566
C13   C     C_R   0.443265 0.897466 0.322048 0.543276
C14   C     C_2   0.655098 0.908625 0.372325 0.699497
C15   C     C_2   0.253501 0.345163 0.127610 0.699534
C16   C     C_2   0.092285 0.746797 0.372523 0.699489
C17   C     C_2   0.655002 0.908529 0.127650 0.699474
C18   C     C_2   0.253577 0.344991 0.372335 0.699566
C19   C     C_2   0.644997 0.962049 0.643176 0.659682
C20   C     C_2   0.037876 0.682883 0.856706 0.658279
C21   C     C_2   0.317119 0.355245 0.643193 0.660115
C22   C     C_2   0.644889 0.962023 0.856808 0.660137
C23   C     C_2   0.041685 0.682762 0.643841 0.656071
C24   C     C_R   0.102579 0.545817 0.177938 0.543360
C25   C     C_2   0.317171 0.355083 0.856820 0.660216
C26   C     C_R   0.986411 0.498877 0.975029 -0.041702
C27   C     C_R   0.512425 0.013541 0.524934 -0.042347
C28   C     C_R   0.501246 0.487511 0.975072 -0.041844
C29   C     C_R   0.986884 0.499133 0.525079 -0.042026
C30   C     C_R   0.512621 0.013823 0.975081 -0.041719
C31   C     C_R   0.501162 0.487489 0.524932 -0.041857
C32   C     C_R   0.511567 0.999400 0.473066 -0.049613
C33   C     C_R   0.894889 0.439303 0.677704 0.549207
C34   C     C_R   0.000642 0.512176 0.026895 -0.049444
C35   C     C_R   0.487865 0.488431 0.473069 -0.049525
C36   C     C_R   0.511662 0.999566 0.026942 -0.049392
C37   C     C_R   0.001073 0.512434 0.473210 -0.049661
C38   C     C_R   0.487947 0.488428 0.026934 -0.049484
C39   C     C_R   0.096915 0.713823 0.965494 0.293985
C40   C     C_R   0.617259 0.903340 0.534443 0.293637
C41   C     C_R   0.286258 0.382903 0.965533 0.293554
C42   C     C_R   0.097015 0.714216 0.534660 0.295614
C43   C     C_R   0.617263 0.903447 0.965543 0.293648
C44   C     C_R   0.544470 0.105161 0.822327 0.552581
C45   C     C_R   0.286171 0.382958 0.534459 0.293586
C46   C     C_R   0.638302 0.911207 0.483533 0.291700
C47   C     C_R   0.089057 0.727072 0.016399 0.291357
C48   C     C_R   0.272962 0.361893 0.483550 0.291654
C49   C     C_R   0.638293 0.911273 0.016452 0.291399
C50   C     C_R   0.089097 0.727282 0.483717 0.291541
C51   C     C_R   0.273044 0.361836 0.016434 0.291383
C52   C     C_R   0.006697 0.583605 0.891752 0.058148
C53   C     C_R   0.576989 0.993386 0.608189 0.060066
C54   C     C_R   0.416525 0.423037 0.891811 0.058872
C55   C     C_R   0.560674 0.455542 0.677680 0.551732
C56   C     C_R   0.008167 0.583589 0.608491 0.063618
C57   C     C_R   0.577040 0.993526 0.891814 0.059195
C58   C     C_R   0.416461 0.423080 0.608194 0.059833
C59   C     C_R   0.573922 0.938675 0.398758 0.051223
C60   C     C_R   0.061496 0.635281 0.101195 0.051176
C61   C     C_R   0.364779 0.426180 0.398769 0.051105
C62   C     C_R   0.573881 0.938667 0.101232 0.051214
C63   C     C_R   0.061936 0.635490 0.398915 0.051347
C64   C     C_R   0.364817 0.426173 0.101217 0.051266
C65   C     C_R   0.043095 0.533971 0.129271 -0.037462
C66   C     C_R   0.894864 0.439311 0.822317 0.552634
C67   C     C_R   0.490980 0.957050 0.370690 -0.037371
C68   C     C_R   0.466105 0.509092 0.129300 -0.037538
C69   C     C_R   0.043400 0.534146 0.370809 -0.037526
C70   C     C_R   0.490900 0.956986 0.129302 -0.037567
C71   C     C_R   0.466073 0.509133 0.370705 -0.037589
C72   C     C_R   0.525016 0.057881 0.626991 -0.026371
C73   C     C_R   0.942137 0.467124 0.872982 -0.027692
C74   C     C_R   0.532912 0.474917 0.626986 -0.028322
C75   C     C_R   0.525128 0.058077 0.873025 -0.027584
C76   C     C_R   0.942170 0.467041 0.627059 -0.030305
C77   C     C_R   0.544447 0.105111 0.677678 0.554014
C78   C     C_R   0.532968 0.474961 0.873016 -0.027947
C79   C     C_R   0.031835 0.600304 0.943522 -0.000850
C80   C     C_R   0.568542 0.968206 0.556427 -0.001159
C81   C     C_R   0.399814 0.431480 0.943569 -0.001131
C82   C     C_R   0.032639 0.600560 0.556660 0.001527
C83   C     C_R   0.568652 0.968410 0.943576 -0.001036
C84   C     C_R   0.399733 0.431514 0.556433 -0.000685
C85   C     C_R   0.577219 0.950373 0.451312 -0.025227
C86   C     C_R   0.049778 0.626858 0.048639 -0.025305
C87   C     C_R   0.373187 0.422880 0.451321 -0.025310
C88   C     C_R   0.454195 0.556768 0.322053 0.543169
C89   C     C_R   0.577236 0.950450 0.048683 -0.025332
C90   C     C_R   0.050187 0.627085 0.451479 -0.025625
C91   C     C_R   0.373263 0.422850 0.048670 -0.025340
C92   C     C_R   0.908401 0.369451 0.904172 -0.078107
C93   C     C_R   0.460963 0.091510 0.595809 -0.077827
C94   C     C_R   0.630660 0.538922 0.904206 -0.078101
C95   C     C_R   0.907704 0.369430 0.595785 -0.078446
C96   C     C_R   0.461237 0.091884 0.904221 -0.077765
C97   C     C_R   0.630593 0.538772 0.595793 -0.078830
C98   C     C_R   0.439409 0.017105 0.392227 -0.062487
C99   C     C_R   0.443242 0.897438 0.177947 0.543242
C100  C     C_R   0.983085 0.422356 0.107728 -0.062625
C101  C     C_R   0.577688 0.560766 0.392247 -0.062743
C102  C     C_R   0.439261 0.016983 0.107770 -0.062730
C103  C     C_R   0.983357 0.422565 0.392346 -0.062686
C104  C     C_R   0.577741 0.560719 0.107771 -0.062762
C105  C     C_R   0.930239 0.383429 0.954565 0.001054
C106  C     C_R   0.453084 0.069658 0.545410 0.000833
C107  C     C_R   0.616692 0.546798 0.954605 0.001050
C108  C     C_R   0.930201 0.383587 0.545462 0.001553
C109  C     C_R   0.453347 0.070012 0.954616 0.001098
C110  C     C_R   0.102666 0.545868 0.322090 0.543218
C111  C     C_R   0.616615 0.546663 0.545397 0.001211
C112  C     C_R   0.448813 0.039403 0.442902 0.000055
C113  C     C_R   0.960658 0.409445 0.057063 0.000162
C114  C     C_R   0.590599 0.551169 0.442903 -0.000089
C115  C     C_R   0.448847 0.039491 0.057111 0.000186
C116  C     C_R   0.960946 0.409685 0.443010 0.000219
C117  C     C_R   0.590675 0.551205 0.057107 0.000087
C118  C     C_R   0.907238 0.295527 0.035722 0.285387
C119  C     C_R   0.388232 0.092744 0.464248 0.285765
C120  C     C_R   0.704596 0.611723 0.035772 0.285414
Cl1   Cl    Cl    0.111046 0.868198 0.034118 -0.256549
Cl2   Cl    Cl    0.647837 0.805328 0.931502 -0.434054
Cl3   Cl    Cl    0.193242 0.843593 0.568728 -0.436764
Cl4   Cl    Cl    0.157615 0.352451 0.931495 -0.434172
Cl5   Cl    Cl    0.856845 0.166986 0.072650 -0.443143
Cl6   Cl    Cl    0.310014 0.143092 0.427326 -0.442756
Cl7   Cl    Cl    0.833148 0.689922 0.072702 -0.443006
Cl8   Cl    Cl    0.856697 0.167177 0.427355 -0.443223
Cl9   Cl    Cl    0.310145 0.143270 0.072709 -0.443149
Cl10  Cl    Cl    0.833077 0.689466 0.427293 -0.443011
Cl11  Cl    Cl    0.283262 0.138789 0.541600 -0.371557
Cl12  Cl    Cl    0.757520 0.889335 0.465765 -0.256838
Cl13  Cl    Cl    0.861560 0.144627 0.958359 -0.367216
Cl14  Cl    Cl    0.855512 0.716323 0.541593 -0.367864
Cl15  Cl    Cl    0.283074 0.138502 0.958408 -0.366746
Cl16  Cl    Cl    0.861240 0.144750 0.541637 -0.369327
Cl17  Cl    Cl    0.855503 0.716852 0.958422 -0.367415
Cl18  Cl    Cl    0.131962 0.242625 0.034159 -0.256223
Cl19  Cl    Cl    0.110284 0.868082 0.465871 -0.255756
Cl20  Cl    Cl    0.757450 0.889316 0.034208 -0.256377
Cl21  Cl    Cl    0.131868 0.242738 0.465800 -0.256818
Cl22  Cl    Cl    0.648057 0.805375 0.568475 -0.437304
Cl23  Cl    Cl    0.195493 0.842265 0.931466 -0.434030
Cl24  Cl    Cl    0.157499 0.352417 0.568499 -0.436566
Cr1   Cr    Cr6+3 0.487630 0.241180 0.750000 1.121567
Cr2   Cr    Cr6+3 0.753550 0.512370 0.750000 1.111028
Cr3   Cr    Cr6+3 0.758820 0.246450 0.750000 1.118011
Cr4   Cr    Cr6+3 0.241180 0.487630 0.250000 1.101399
Cr5   Cr    Cr6+3 0.512370 0.753550 0.250000 1.101410
Cr6   Cr    Cr6+3 0.246450 0.758820 0.250000 1.101290
H1    H     H_    0.960850 0.346009 0.130877 0.225913
H2    H     H_    0.423289 0.143080 0.889197 0.200168
H3    H     H_    0.855664 0.280273 0.610702 0.199568
H4    H     H_    0.719793 0.576899 0.889175 0.200175
H5    H     H_    0.040822 0.828889 0.177124 0.353500
H6    H     H_    0.788239 0.959350 0.322858 0.353475
H7    H     H_    0.170793 0.212110 0.177082 0.353493
H8    H     H_    0.041989 0.829581 0.323055 0.353533
H9    H     H_    0.788153 0.959152 0.177109 0.353485
H10   H     H_    0.171220 0.211873 0.322849 0.353461
H11   H     H_    0.640469 0.867489 0.703009 0.353679
H12   H     H_    0.385345 0.039402 0.369070 0.225790
H13   H     H_    0.128819 0.769968 0.795669 0.370823
H14   H     H_    0.227244 0.360030 0.703040 0.354795
H15   H     H_    0.640114 0.867373 0.796953 0.354650
H16   H     H_    0.016798 0.816557 0.667403 0.373094
H17   H     H_    0.227302 0.359659 0.796932 0.355117
H18   H     H_    0.654082 0.614848 0.130925 0.225903
H19   H     H_    0.961006 0.346194 0.369187 0.226000
H20   H     H_    0.385081 0.039153 0.130916 0.225978
H21   H     H_    0.654033 0.614919 0.369105 0.226003
H22   H     H_    0.422941 0.142632 0.610843 0.200024
H23   H     H_    0.857209 0.280311 0.889149 0.200339
H24   H     H_    0.719721 0.576658 0.610823 0.202993
O1    O     O_R   0.460870 0.120930 0.805240 -0.477023
O2    O     O_R   0.120930 0.460870 0.194760 -0.469756
O3    O     O_R   0.539130 0.660060 0.305240 -0.469729
O4    O     O_R   0.339940 0.879070 0.194760 -0.469812
O5    O     O_R   0.498910 0.350470 0.801870 -0.493880
O6    O     O_R   0.851560 0.501090 0.698130 -0.493086
O7    O     O_R   0.649530 0.148440 0.801870 -0.494262
O8    O     O_R   0.498910 0.350470 0.698130 -0.493736
O9    O     O_R   0.851560 0.501090 0.801870 -0.493178
O10   O     O_R   0.649530 0.148440 0.698130 -0.494331
O11   O     O_R   0.350470 0.498910 0.301870 -0.487405
O12   O     O_R   0.660060 0.539130 0.694760 -0.483327
O13   O     O_R   0.501090 0.851560 0.198130 -0.487363
O14   O     O_R   0.148440 0.649530 0.301870 -0.487345
O15   O     O_R   0.350470 0.498910 0.198130 -0.487353
O16   O     O_R   0.501090 0.851560 0.301870 -0.487430
O17   O     O_R   0.148440 0.649530 0.198130 -0.487344
O18   O     O_3   0.666667 0.333333 0.750000 -0.314131
O19   O     O_3   0.333333 0.666667 0.250000 -0.295221
O20   O     O_2   0.190606 0.833538 0.123350 -0.474127
O21   O     O_R   0.009086 0.748619 0.160332 -0.618627
O22   O     O_2   0.643044 0.809534 0.376582 -0.474181
O23   O     O_R   0.879070 0.339940 0.805240 -0.480212
O24   O     O_R   0.739703 0.991096 0.339647 -0.618590
O25   O     O_2   0.166573 0.357381 0.123269 -0.474440
O26   O     O_R   0.251134 0.260518 0.160334 -0.618515
O27   O     O_2   0.191385 0.833719 0.376922 -0.475017
O28   O     O_R   0.010047 0.749224 0.339786 -0.618158
O29   O     O_2   0.642877 0.809412 0.123369 -0.474167
O30   O     O_R   0.739651 0.990954 0.160336 -0.618642
O31   O     O_2   0.166524 0.357028 0.376594 -0.474156
O32   O     O_R   0.251490 0.260413 0.339639 -0.618729
O33   O     O_2   0.753462 0.009311 0.639595 -0.387988
O34   O     O_R   0.460870 0.120930 0.694760 -0.476073
O35   O     O_R   0.584799 0.881722 0.681432 -0.627355
O36   O     O_2   0.992083 0.745331 0.860803 -0.382532
O37   O     O_R   0.115703 0.701025 0.817639 -0.621425
O38   O     O_2   0.255750 0.246799 0.639608 -0.388378
O39   O     O_R   0.297181 0.415581 0.681461 -0.629715
O40   O     O_2   0.753345 0.009134 0.860370 -0.383890
O41   O     O_R   0.584552 0.881723 0.818551 -0.627654
O42   O     O_2   0.113434 0.700023 0.676663 -0.447076
O43   O     O_R   0.987729 0.752958 0.640833 -0.576811
O44   O     O_2   0.255799 0.246650 0.860451 -0.383035
O45   O     O_R   0.660060 0.539130 0.805240 -0.481204
O46   O     O_R   0.297232 0.415285 0.818504 -0.628987
O47   O     O_R   0.879070 0.339940 0.694760 -0.480412
O48   O     O_R   0.120930 0.460870 0.305240 -0.469675
O49   O     O_R   0.539130 0.660060 0.194760 -0.469735
O50   O     O_R   0.339940 0.879070 0.305240 -0.469937

loop_
_geom_bond_atom_site_label_1
_geom_bond_atom_site_label_2
_ccdc_geom_bond_type
C36   C89   A    
C102  H20   S    
C66   O9    A    
C23   O43   S    
C93   H22   S    
C56   C76   A    
C40   Cl22  S    
C5    C114  A    
C44   C75   S    
C43   C83   A    
C6    C119  A    
C4    C115  A    
C10   C108  A    
C42   C82   A    
C44   O1    A    
C22   C57   S    
C99   O13   A    
C120  Cl7   S    
C88   O3    A    
C37   C116  A    
C34   C113  A    
C40   C46   A    
C14   C59   S    
C14   O24   S    
C110  O14   A    
Cr5   O16   S    
Cr4   O2    S    
Cr2   O9    S    
C18   O31   D    
C64   C68   A    
C41   Cl4   S    
C10   Cl16  S    
C7    Cl13  S    
C2    C68   S    
C3    C116  A    
C76   C95   A    
Cr6   O14   S    
C97   C111  A    
C47   Cl1   S    
C28   C107  A    
C101  C114  A    
C96   H2    S    
C62   C89   A    
C77   O10   A    
Cr5   O19   S    
C62   C70   A    
C35   C114  A    
C34   C86   A    
C20   O37   S    
C30   C83   A    
C17   O29   D    
Cr4   O48   S    
C102  C115  A    
C61   C87   A    
C67   C98   A    
C59   C67   A    
Cr6   O17   S    
C55   C74   S    
C35   C87   A    
H15   O41   S    
C63   C69   A    
C75   C96   A    
C45   Cl24  S    
C15   C64   S    
C40   C80   A    
C29   C108  A    
C118  Cl5   S    
C20   O36   D    
C52   C79   A    
C53   C72   A    
Cr3   O47   S    
C37   C90   A    
Cr6   O4    S    
C46   C85   A    
C51   C91   A    
Cr3   O7    S    
C19   C53   S    
C27   C32   A    
C22   O41   S    
C33   O6    A    
C19   O33   D    
C1    C78   S    
C38   C117  A    
C7    C118  A    
Cr2   O18   S    
C25   O44   D    
Cr6   O50   S    
C16   O28   S    
C11   C120  A    
C26   C105  A    
Cr5   O3    S    
C98   H12   S    
C50   C90   A    
C42   Cl3   S    
C74   C97   A    
C50   Cl19  S    
C23   O42   D    
C69   C103  A    
C100  H1    S    
C9    C109  A    
C94   C107  A    
C98   C112  A    
C30   C109  A    
C8    Cl14  S    
C47   C86   A    
Cr1   O1    S    
C23   C56   S    
C53   C80   A    
C25   C54   S    
C65   C100  A    
C99   O4    A    
C1    O45   A    
C52   C73   A    
C117  C120  A    
Cr3   O10   S    
H13   O37   S    
C3    Cl8   S    
C43   C49   A    
C27   C106  A    
Cr4   O11   S    
C66   C73   S    
H11   O35   S    
Cr1   O8    S    
C31   C111  A    
C31   C84   A    
C71   C88   S    
C95   H3    S    
C39   C79   A    
C17   O30   S    
C59   C85   A    
Cr6   O19   S    
C72   C77   S    
C2    O15   A    
C58   C84   A    
C17   C62   S    
C104  H18   S    
C15   O25   D    
C69   C110  S    
Cr4   O19   S    
C33   C76   S    
C43   Cl2   S    
C28   C38   A    
Cr3   O18   S    
C94   H4    S    
C41   C81   A    
Cr1   O5    S    
C7    C105  A    
C6    C106  A    
C48   C87   A    
Cr2   O6    S    
C55   O12   A    
Cr3   O23   S    
C57   C83   A    
H16   O43   S    
C24   C65   S    
C42   C50   A    
Cr2   O45   S    
C9    Cl15  S    
C88   O11   A    
C16   C63   S    
C39   Cl23  S    
C60   C65   A    
Cr5   O13   S    
C22   O40   D    
C93   C106  A    
C11   C107  A    
C92   H23   S    
C12   O21   S    
C21   O39   S    
C8    C111  A    
C45   C84   A    
C72   C93   A    
C13   O50   A    
C16   O27   D    
C24   O2    A    
H17   O46   S    
C70   C99   S    
C58   C74   A    
C39   C47   A    
C104  C117  A    
C13   C67   S    
C45   C48   A    
Cr4   O15   S    
C14   O22   D    
C5    Cl10  S    
C60   C86   A    
C97   H24   S    
C32   C112  A    
C26   C34   A    
C28   C81   A    
C19   O35   S    
C12   O20   D    
Cr2   O12   S    
H6    O24   S    
C100  C113  A    
C68   C104  A    
C73   C92   A    
C49   C89   A    
C6    Cl11  S    
C112  C119  A    
C70   C102  A    
C18   C61   S    
C56   C82   A    
C4    Cl9   S    
H14   O39   S    
C96   C109  A    
C26   C79   A    
C21   O38   D    
C30   C36   A    
C18   O32   S    
H7    O26   S    
C57   C75   A    
C103  C116  A    
C11   Cl17  S    
C29   C82   A    
Cr1   O18   S    
C3    C10   A    
C51   Cl18  S    
C46   Cl12  S    
C15   O26   S    
C1    O5    A    
C61   C71   A    
H9    O30   S    
C78   C94   A    
H8    O28   S    
C32   C85   A    
C38   C91   A    
C63   C90   A    
C2    O49   A    
C55   O8    A    
C48   Cl21  S    
C101  H21   S    
C24   O17   A    
C31   C35   A    
Cr1   O34   S    
C71   C101  A    
C66   O23   A    
H5    O21   S    
C95   C108  A    
C13   O16   A    
H10   O32   S    
C113  C118  A    
C12   C60   S    
C119  Cl6   S    
C92   C105  A    
C21   C58   S    
C77   O34   A    
C27   C80   A    
C20   C52   S    
C49   Cl20  S    
C29   C37   A    
C103  H19   S    
C5    C8    A    
C25   O46   S    
Cr5   O49   S    
C64   C91   A    
C4    C9    A    
C36   C115  A    
C44   O7    A    
C41   C51   A    
C54   C81   A    
C33   O47   A    
C54   C78   A    
C110  O48   A    
