data_mof_unit_27398.cif
_audit_creation_date              2012-12-11T15:35:24-0500
_audit_creation_method            fapswitch 2.2
_symmetry_space_group_name_H-M    P1
_symmetry_Int_Tables_number       1
_space_group_crystal_system       triclinic
_cell_length_a                    17.47531
_cell_length_b                    24.179876
_cell_length_c                    15.011447
_cell_angle_alpha                 89.689865
_cell_angle_beta                  124.05572
_cell_angle_gamma                 90.378139
_cell_volume                      5255.09001949

loop_
_atom_site_label
_atom_site_type_symbol
_atom_type_description
_atom_site_fract_x
_atom_site_fract_y
_atom_site_fract_z
_atom_type_partial_charge
C1    C     C_R   0.313267 0.128388 0.910286 0.354461
C2    C     C_R   0.311845 0.873095 0.912626 0.345108
C3    C     C_R   0.845223 0.649877 0.909850 0.382726
C4    C     C_R   0.813582 0.370660 0.913097 0.316893
C5    C     C_R   0.652717 0.149626 0.090384 -0.071147
C6    C     C_R   0.688522 0.879723 0.084660 -0.079155
C7    C     C_R   0.148989 0.650866 0.089189 -0.052081
C8    C     C_R   0.153337 0.350429 0.088738 -0.056993
C9    C     C_R   0.595269 0.873770 0.907062 -0.072630
C10   C     C_R   0.564492 0.152084 0.912344 -0.021924
C11   C     C_R   0.064166 0.348717 0.911171 -0.028315
C12   C     C_R   0.065979 0.651138 0.911046 -0.042928
C13   C     C_R   0.525567 0.997273 0.699444 -0.066513
C14   C     C_R   0.035619 0.503924 0.709449 -0.086641
C15   C     C_R   0.809008 0.998404 0.357570 -0.010814
C16   C     C_R   0.303975 0.497943 0.360294 -0.049079
C17   C     C_R   0.629965 0.181308 0.002709 0.066063
C18   C     C_R   0.683024 0.864301 0.993401 0.033711
C19   C     C_R   0.129437 0.681189 0.001214 0.073231
C20   C     C_R   0.130012 0.319302 0.000534 0.066925
C21   C     C_3   0.055925 0.942539 0.562898 0.025854
C22   C     C_3   0.053626 0.048421 0.583660 0.043465
C23   C     C_3   0.544633 0.437887 0.561124 0.033137
C24   C     C_3   0.525602 0.524934 0.641933 0.033806
C25   C     C_3   0.950313 0.943193 0.496708 0.219163
C26   C     C_3   0.948036 0.046226 0.514668 0.225760
C27   C     C_3   0.439442 0.437414 0.494810 0.164132
C28   C     C_3   0.425420 0.535541 0.546679 0.236218
C29   C     C_3   0.061950 0.007421 0.435684 -0.254624
C30   C     C_3   0.558397 0.531473 0.495923 -0.322696
C31   C     C_3   0.095922 0.999729 0.554480 -0.002411
C32   C     C_3   0.579926 0.498816 0.596331 0.001839
C33   C     C_3   0.912621 0.998111 0.434020 -0.055445
C34   C     C_3   0.402695 0.497269 0.450973 0.000768
C35   C     C_R   0.399806 0.879639 0.092293 -0.087327
C36   C     C_R   0.398188 0.120732 0.089835 -0.091818
C37   C     C_R   0.898662 0.380909 0.091516 -0.084493
C38   C     C_R   0.932347 0.649016 0.090674 -0.072313
C39   C     C_3   0.954462 0.005746 0.364900 -0.528754
C40   C     C_3   0.457896 0.520176 0.404382 -0.495150
C41   C     C_R   0.155779 0.825216 0.926272 0.393536
C42   C     C_R   0.155869 0.178729 0.915830 0.395755
C43   C     C_R   0.656863 0.324790 0.926697 0.392367
C44   C     C_R   0.745028 0.720033 0.001406 0.364311
C45   C     C_R   0.616311 0.273828 0.919695 -0.137834
C46   C     C_R   0.698787 0.766413 0.997067 -0.163166
C47   C     C_R   0.116649 0.773565 0.918272 -0.101954
C48   C     C_R   0.117665 0.229646 0.911791 -0.145089
C49   C     C_R   0.659903 0.238503 0.009194 0.005966
C50   C     C_R   0.733011 0.818331 0.995240 0.012304
C51   C     C_R   0.160616 0.737982 0.007287 0.019537
C52   C     C_R   0.158592 0.262024 0.004757 0.004989
C53   C     C_R   0.732168 0.259389 0.108669 -0.180995
C54   C     C_R   0.814061 0.825200 0.999681 -0.154982
C55   C     C_R   0.233098 0.758495 0.106958 -0.160659
C56   C     C_R   0.225578 0.237879 0.103770 -0.180376
C57   C     C_R   0.269730 0.810184 0.114084 0.334195
C58   C     C_R   0.262093 0.186791 0.107070 0.328818
C59   C     C_R   0.769677 0.310628 0.114786 0.329489
C60   C     C_R   0.861225 0.778590 0.003587 0.390316
C61   C     C_R   0.242347 0.838360 0.018230 -0.085363
C62   C     C_R   0.239430 0.162722 0.009751 -0.087189
C63   C     C_R   0.743167 0.337874 0.018457 -0.078225
C64   C     C_R   0.825218 0.726392 0.002819 -0.113797
C65   C     C_R   0.574101 0.942649 0.604677 0.371409
C66   C     C_R   0.624883 0.036804 0.641464 0.376808
C67   C     C_R   0.128594 0.463120 0.644286 0.374071
C68   C     C_R   0.085629 0.558364 0.612272 0.376210
C69   C     C_R   0.551929 0.947249 0.502283 -0.115751
C70   C     C_R   0.625599 0.036996 0.549040 -0.093477
C71   C     C_R   0.128979 0.463043 0.551611 -0.081564
C72   C     C_R   0.066585 0.555287 0.510548 -0.130331
C73   C     C_R   0.577320 0.995109 0.471903 0.038895
C74   C     C_R   0.084728 0.506184 0.476224 0.054266
C75   C     C_R   0.543581 0.044923 0.301882 0.298353
C76   C     C_R   0.544554 0.953427 0.300471 0.261681
C77   C     C_R   0.047587 0.546944 0.300987 0.270560
C78   C     C_R   0.044746 0.455600 0.303475 0.294882
C79   C     C_R   0.583955 0.991467 0.658489 -0.126360
C80   C     C_R   0.090291 0.508881 0.662812 -0.110652
C81   C     C_R   0.250020 0.954732 0.695786 -0.054596
C82   C     C_R   0.250462 0.045430 0.695285 -0.046647
C83   C     C_R   0.734657 0.453236 0.720789 -0.055852
C84   C     C_R   0.733960 0.545978 0.717981 0.000558
C85   C     C_R   0.311455 0.135499 0.002054 -0.020477
C86   C     C_R   0.312399 0.865552 0.006363 -0.029122
C87   C     C_R   0.868206 0.677697 0.001025 0.009217
C88   C     C_R   0.812885 0.365012 0.006160 -0.003359
C89   C     C_R   0.554834 0.998396 0.362577 -0.059868
C90   C     C_R   0.058703 0.502370 0.364780 -0.058403
C91   C     C_R   0.200282 0.000056 0.632921 0.051041
C92   C     C_R   0.679393 0.499260 0.676893 0.069432
C93   C     C_R   0.503541 0.044880 0.732775 0.331978
C94   C     C_R   0.491387 0.952910 0.725317 0.264086
C95   C     C_R   0.000186 0.548269 0.733527 0.309076
C96   C     C_R   0.007840 0.455899 0.737099 0.334224
C97   C     C_R   0.756334 0.952524 0.297496 0.242453
C98   C     C_R   0.757283 0.045443 0.299647 0.252226
C99   C     C_R   0.252331 0.452498 0.299695 0.264668
C100  C     C_R   0.257265 0.545053 0.300660 0.308017
H1    H     H_    0.931003 0.971338 0.306020 0.208943
H2    H     H_    0.928583 0.044699 0.317293 0.218208
H3    H     H_    0.455149 0.489672 0.347401 0.233560
H4    H     H_    0.429464 0.558978 0.357888 0.231341
H5    H     H_    0.247787 0.913821 0.667894 0.224091
H6    H     H_    0.250471 0.085902 0.665530 0.207911
H7    H     H_    0.718137 0.410983 0.697530 0.195511
H8    H     H_    0.714451 0.587804 0.690592 0.181381
H9    H     H_    0.684207 0.165199 0.169739 0.172503
H10   H     H_    0.749983 0.875688 0.163127 0.160273
H11   H     H_    0.171453 0.668863 0.165096 0.181524
H12   H     H_    0.187234 0.333927 0.167247 0.167590
N1    N     N_R   0.392140 0.102630 0.941800 -0.092323
N2    N     N_R   0.392140 0.897370 0.941800 -0.084085
N3    N     N_R   0.892140 0.602630 0.941800 -0.094044
N4    N     N_R   0.892140 0.397370 0.941800 -0.087134
N5    N     N_R   0.450890 0.896450 0.057150 -0.058807
N6    N     N_R   0.450890 0.103550 0.057150 -0.064353
N7    N     N_R   0.950890 0.396450 0.057150 -0.062767
N8    N     N_R   0.950890 0.603550 0.057150 -0.069479
N9    N     N_R   0.525160 0.027960 0.206160 -0.107017
N10   N     N_R   0.525160 0.972040 0.206160 -0.105620
N11   N     N_R   0.025160 0.527960 0.206160 -0.096951
N12   N     N_R   0.025160 0.472040 0.206160 -0.106804
N13   N     N_R   0.317870 0.971120 0.792790 -0.068890
N14   N     N_R   0.317870 0.028880 0.792790 -0.071037
N15   N     N_R   0.817870 0.471120 0.792790 -0.063257
N16   N     N_R   0.817870 0.528880 0.792790 -0.058091
N17   N     N_R   0.473480 0.027920 0.793480 -0.107810
N18   N     N_R   0.473480 0.972080 0.793480 -0.103757
N19   N     N_R   0.973480 0.527920 0.793480 -0.101979
N20   N     N_R   0.973480 0.472080 0.793480 -0.103273
N21   N     N_R   0.681610 0.971120 0.207570 -0.102714
N22   N     N_R   0.681610 0.028880 0.207570 -0.097786
N23   N     N_R   0.181610 0.471120 0.207570 -0.100392
N24   N     N_R   0.181610 0.528880 0.207570 -0.096992
N25   N     N_R   0.605410 0.102620 0.056870 -0.053893
N26   N     N_R   0.605410 0.897380 0.056870 -0.036509
N27   N     N_R   0.105410 0.602620 0.056870 -0.056395
N28   N     N_R   0.105410 0.397380 0.056870 -0.052869
N29   N     N_R   0.549680 0.896430 0.944180 -0.057125
N30   N     N_R   0.549680 0.103570 0.944180 -0.065763
N31   N     N_R   0.049680 0.396430 0.944180 -0.066993
N32   N     N_R   0.049680 0.603570 0.944180 -0.068919
Ni1   Ni    Ni4+2 0.433410 0.064680 0.868830 0.264786
Ni2   Ni    Ni4+2 0.433410 0.935320 0.868830 0.285682
Ni3   Ni    Ni4+2 0.933410 0.564680 0.868830 0.284524
Ni4   Ni    Ni4+2 0.933410 0.435320 0.868830 0.287327
Ni5   Ni    Ni4+2 0.565650 0.934380 0.131170 0.304024
Ni6   Ni    Ni4+2 0.565650 0.065620 0.131170 0.280091
Ni7   Ni    Ni4+2 0.065650 0.434380 0.131170 0.287735
Ni8   Ni    Ni4+2 0.065650 0.565620 0.131170 0.278118
Br1   Br    Br    0.262420 0.179839 0.793498 -0.386150
Br2   Br    Br    0.244661 0.827968 0.786427 -0.391941
Br3   Br    Br    0.797428 0.685222 0.774173 -0.402443
Br4   Br    Br    0.759588 0.316426 0.800149 -0.421113
H13   H     H_    0.082520 0.934734 0.648392 0.189152
H14   H     H_    0.079149 0.044038 0.669606 0.185462
H15   H     H_    0.569581 0.411272 0.632172 0.191561
H16   H     H_    0.526095 0.494962 0.698537 0.206462
Br5   Br    Br    0.903322 0.921270 0.583723 -0.254787
Br6   Br    Br    0.894992 0.053608 0.599674 -0.291429
Br7   Br    Br    0.398973 0.406484 0.584312 -0.306993
Br8   Br    Br    0.337147 0.534476 0.587890 -0.323388
H17   H     H_    0.927776 0.910801 0.436087 0.178968
H18   H     H_    0.925843 0.083574 0.465674 0.193456
H19   H     H_    0.417794 0.408862 0.427437 0.181396
H20   H     H_    0.424596 0.578884 0.523225 0.195707
H21   H     H_    0.089922 0.974787 0.409870 0.221751
H22   H     H_    0.087138 0.047179 0.423630 0.217018
H23   H     H_    0.605026 0.519737 0.470699 0.234699
H24   H     H_    0.568269 0.576558 0.513713 0.209788
Br9   Br    Br    0.084928 0.881056 0.823117 -0.376162
Br10  Br    Br    0.084701 0.128346 0.800965 -0.377912
Br11  Br    Br    0.590117 0.380001 0.821306 -0.447006
Br12  Br    Br    0.696988 0.649183 0.006782 -0.377332
H25   H     H_    0.552360 0.262333 0.845651 0.186283
H26   H     H_    0.636327 0.762250 0.995798 0.186063
H27   H     H_    0.052332 0.762084 0.844587 0.192801
H28   H     H_    0.056747 0.243206 0.836684 0.186982
H29   H     H_    0.760632 0.236817 0.182908 0.185331
H30   H     H_    0.839915 0.866123 0.000098 0.180542
H31   H     H_    0.262105 0.735094 0.180509 0.189986
H32   H     H_    0.250420 0.257611 0.179623 0.185386
Br13  Br    Br    0.336696 0.843153 0.254727 -0.413081
Br14  Br    Br    0.321591 0.148275 0.242334 -0.397482
Br15  Br    Br    0.834058 0.344959 0.253861 -0.367329
Br16  Br    Br    0.973559 0.787690 0.011019 -0.468704
Br17  Br    Br    0.621355 0.873257 0.677984 -0.364750
Br18  Br    Br    0.691856 0.092933 0.748159 -0.362740
Br19  Br    Br    0.193995 0.406267 0.750132 -0.349216
Br20  Br    Br    0.135507 0.626354 0.690727 -0.332323
H33   H     H_    0.423091 0.879397 0.173938 0.194748
H34   H     H_    0.419144 0.120904 0.170426 0.204481
H35   H     H_    0.917770 0.384657 0.170953 0.197244
H36   H     H_    0.967811 0.663698 0.171934 0.191326
H37   H     H_    0.515708 0.913022 0.449415 0.218691
H38   H     H_    0.662453 0.069446 0.538831 0.227388
H39   H     H_    0.163468 0.429893 0.540383 0.230016
H40   H     H_    0.037592 0.591486 0.460919 0.205004
Br21  Br    Br    0.572972 0.120110 0.353049 -0.387795
Br22  Br    Br    0.587743 0.879214 0.351132 -0.371452
Br23  Br    Br    0.106046 0.617853 0.352467 -0.431960
Br24  Br    Br    0.067748 0.380235 0.355260 -0.377078
Br25  Br    Br    0.464596 0.112487 0.652274 -0.406619
Br26  Br    Br    0.413601 0.895106 0.628042 -0.399858
Br27  Br    Br    0.928125 0.607444 0.636557 -0.426522
Br28  Br    Br    0.967031 0.389756 0.652358 -0.380309
Br29  Br    Br    0.763906 0.875808 0.339726 -0.395640
Br30  Br    Br    0.764008 0.118144 0.354325 -0.438127
Br31  Br    Br    0.248149 0.378985 0.344231 -0.436421
Br32  Br    Br    0.292817 0.620731 0.342404 -0.483651
H41   H     H_    0.564935 0.859246 0.826303 0.197122
H42   H     H_    0.520328 0.169163 0.832956 0.167315
H43   H     H_    0.019139 0.332239 0.831559 0.166275
H44   H     H_    0.025339 0.666439 0.829671 0.180539
Br33  Br    Br    0.090383 0.878095 0.510862 -0.387499
Br34  Br    Br    0.084389 0.123894 0.559158 -0.378768
Br35  Br    Br    0.589083 0.402154 0.480019 -0.416252
Br36  Br    Br    0.573757 0.593507 0.725090 -0.379620

loop_
_geom_bond_atom_site_label_1
_geom_bond_atom_site_label_2
_ccdc_geom_bond_type
C68   C80   A    
C38   C87   A    
C69   H37   S    
N25   N30   A    
C13   C79   S    
C58   C62   A    
C65   C79   A    
C63   C88   S    
N18   Ni2   S    
C9    H41   S    
C46   H26   S    
C37   C88   A    
C94   Br26  S    
N28   N31   A    
C97   N21   A    
C93   Br25  S    
C53   C59   A    
C43   C63   A    
N11   N12   A    
C54   C60   A    
C44   C64   A    
C83   C92   A    
C98   Br30  S    
C28   Br8   S    
C33   C39   S    
C97   Br29  S    
C67   Br19  S    
C8    C20   A    
C34   C40   S    
C37   H35   S    
C83   H7    S    
C78   Br24  S    
N13   Ni2   S    
C8    H12   S    
C35   C86   A    
C76   Br22  S    
C96   Br28  S    
C58   Br14  S    
N26   Ni5   S    
C68   Br20  S    
C10   C17   A    
N22   Ni6   S    
N3    Ni3   S    
N27   Ni8   S    
N9    Ni6   S    
C10   N30   A    
N1    Ni1   S    
N6    Ni6   S    
C82   N14   A    
C47   H27   S    
C27   Br7   S    
C43   Br11  S    
C25   Br5   S    
C23   H15   S    
C26   Br6   S    
C84   C92   A    
C54   H30   S    
C69   C73   A    
C23   C27   S    
C29   H22   S    
C30   C32   S    
C41   C61   A    
C78   N12   A    
C42   C62   A    
C64   C87   S    
C57   Br13  S    
C45   H25   S    
C76   C89   A    
C96   N20   A    
C38   N8    A    
C71   H39   S    
N13   N14   A    
C22   Br34  S    
C28   C34   S    
C60   Br16  S    
C21   Br33  S    
C95   N19   A    
C6    H10   S    
N30   Ni1   S    
C95   Br27  S    
C1    N1    A    
C84   N16   A    
C15   C97   A    
N32   Ni3   S    
C93   N17   A    
C77   Br23  S    
C14   C96   A    
N24   Ni8   S    
N14   Ni1   S    
C44   C46   A    
C39   H1    S    
C23   Br35  S    
C72   H40   S    
C56   C58   A    
C27   C34   S    
N7    Ni7   S    
N31   Ni4   S    
C6    C18   A    
C62   C85   S    
C81   H5    S    
C77   C90   A    
N8    Ni8   S    
C22   C31   S    
C3    C87   A    
N20   Ni4   S    
N10   Ni5   S    
C44   Br12  S    
N23   N24   A    
N21   Ni5   S    
N2    Ni2   S    
C72   C74   A    
C42   Br10  S    
C17   C49   S    
N4    Ni4   S    
C9    N29   A    
C16   C100  A    
C99   Br31  S    
C22   H14   S    
C51   C55   A    
C25   H17   S    
C11   C20   A    
C100  Br32  S    
C78   C90   A    
C82   C91   A    
C12   N32   A    
C13   C93   A    
C81   C91   A    
C6    N26   A    
C42   C48   A    
C1    Br1   S    
C24   C32   S    
C66   C79   A    
C53   H29   S    
C40   H4    S    
C21   C31   S    
N27   N32   A    
C26   C33   S    
C37   N7    A    
C45   C49   A    
C68   C72   A    
C16   C34   S    
C29   C39   S    
C70   C73   A    
C3    Br3   S    
C41   C47   A    
C30   C40   S    
C16   C99   A    
C50   C54   A    
C59   Br15  S    
C43   C45   A    
N28   Ni7   S    
C30   H24   S    
N9    N10   A    
N29   Ni2   S    
C24   Br36  S    
C4    Br4   S    
N12   Ni7   S    
C65   Br17  S    
C7    C19   A    
C14   C80   S    
C55   C57   A    
C98   N22   A    
N21   N22   A    
N25   Ni6   S    
C35   N5    A    
C1    C85   A    
C41   Br9   S    
C12   H44   S    
C15   C98   A    
N15   N16   A    
C94   N18   A    
C14   C95   A    
C48   H28   S    
C36   N6    A    
C18   C50   S    
C39   H2    S    
N17   N18   A    
C59   C63   A    
C65   C69   A    
C21   C25   S    
N11   Ni8   S    
C26   H18   S    
C81   N13   A    
C75   N9    A    
C21   H13   S    
C4    N4    A    
C10   H42   S    
C67   C80   A    
C24   C28   S    
N15   Ni4   S    
C83   N15   A    
N26   N29   A    
C75   Br21  S    
C71   C74   A    
C47   C51   A    
C24   H16   S    
N16   Ni3   S    
C57   C61   A    
C4    C88   A    
C36   C85   A    
C7    H11   S    
C56   H32   S    
C46   C50   A    
C28   H20   S    
C31   C91   S    
C99   N23   A    
N4    N7    A    
C8    N28   A    
C13   C94   A    
C60   C64   A    
C76   N10   A    
C23   C32   S    
C74   C90   S    
C73   C89   S    
C5    N25   A    
C29   C31   S    
C3    N3    A    
C2    Br2   S    
C40   H3    S    
C7    N27   A    
C2    N2    A    
C32   C92   S    
C5    H9    S    
N23   Ni7   S    
C66   Br18  S    
C12   C19   A    
C84   H8    S    
C38   H36   S    
C2    C86   A    
C67   C71   A    
N17   Ni1   S    
C82   H6    S    
N19   N20   A    
C36   H34   S    
C30   H23   S    
C49   C53   A    
C61   C86   S    
C35   H33   S    
C100  N24   A    
N1    N6    A    
C20   C52   S    
C19   C51   S    
C9    C18   A    
C48   C52   A    
C5    C17   A    
C66   C70   A    
C70   H38   S    
N3    N8    A    
C22   C26   S    
C75   C89   A    
C11   H43   S    
C55   H31   S    
N5    Ni5   S    
N19   Ni3   S    
N2    N5    A    
C29   H21   S    
C11   N31   A    
C15   C33   S    
C27   H19   S    
C52   C56   A    
C25   C33   S    
C77   N11   A    
