data_mof_unit_27276.cif
_audit_creation_date              2012-12-11T15:41:05-0500
_audit_creation_method            fapswitch 2.2
_symmetry_space_group_name_H-M    P1
_symmetry_Int_Tables_number       1
_space_group_crystal_system       triclinic
_cell_length_a                    19.063788
_cell_length_b                    10.967272
_cell_length_c                    18.775245
_cell_angle_alpha                 89.776149
_cell_angle_beta                  89.984301
_cell_angle_gamma                 90.126968
_cell_volume                      3925.4461945

loop_
_atom_site_label
_atom_site_type_symbol
_atom_type_description
_atom_site_fract_x
_atom_site_fract_y
_atom_site_fract_z
_atom_type_partial_charge
Br1   Br    Br    0.490925 0.903419 0.082533 -0.528478
Br2   Br    Br    0.485301 0.907264 0.907996 -0.516197
Br3   Br    Br    0.022579 0.411319 0.094553 -0.468212
Br4   Br    Br    0.022433 0.400838 0.921438 -0.495109
C1    C     C_R   0.709846 0.999530 0.861298 0.552152
C2    C     C_R   0.323397 0.402200 0.026009 0.005000
C3    C     C_R   0.774561 0.810957 0.360892 0.564966
C4    C     C_2   0.492636 0.167403 0.918761 -0.109920
C5    C     C_2   0.497300 0.166237 0.075753 -0.118326
C6    C     C_2   0.999879 0.662584 0.922873 -0.121182
C7    C     C_2   0.003953 0.669500 0.079583 -0.111933
C8    C     C_2   0.491353 0.062233 0.036689 0.144227
C9    C     C_2   0.491922 0.062730 0.956991 0.134348
C10   C     C_2   0.008787 0.563782 0.043264 0.145875
C11   C     C_2   0.010509 0.560908 0.963716 0.147840
C12   C     C_R   0.765440 0.445678 0.067876 0.009332
C13   C     C_R   0.196480 0.969310 0.963319 0.006086
C14   C     C_R   0.253152 0.392920 0.918033 0.016015
C15   C     C_R   0.257311 0.923106 0.073296 0.011017
C16   C     C_R   0.724477 0.972200 0.935518 0.007859
C17   C     C_3   0.451066 0.894754 0.607394 -0.081987
C18   C     C_3   0.469526 0.872419 0.418187 -0.085573
C19   C     C_3   0.951054 0.394763 0.607376 -0.084788
C20   C     C_3   0.969521 0.372419 0.418213 -0.085248
C21   C     C_R   0.803810 0.957124 0.036187 0.013021
C22   C     C_R   0.816549 0.427742 0.949690 -0.163174
C23   C     C_R   0.220967 0.274272 0.022662 -0.118867
C24   C     C_R   0.309327 0.872031 0.960173 -0.132254
C25   C     C_R   0.680495 0.915032 0.051438 -0.137026
C26   C     C_R   0.824571 0.436452 0.023233 -0.153313
C27   C     C_R   0.211551 0.302551 0.950724 -0.116847
C28   C     C_R   0.311174 0.870258 0.033485 -0.138210
C29   C     C_R   0.273235 0.956522 0.146172 0.540025
C30   C     C_R   0.669291 0.936168 0.979606 -0.148562
C31   C     C_3   0.632122 0.405623 0.052668 -0.289949
C32   C     C_3   0.339471 0.559725 0.966025 -0.259690
C33   C     C_3   0.125081 0.954573 0.046680 -0.284588
C34   C     C_3   0.840465 0.088542 0.964699 -0.245495
C35   C     C_3   0.622988 0.390091 0.973011 -0.258821
C36   C     C_3   0.351914 0.525432 0.043372 -0.253437
C37   C     C_3   0.119562 0.944093 0.966412 -0.259110
C38   C     C_3   0.853180 0.062483 0.042894 -0.262063
C39   C     C_R   0.749081 0.424732 0.920136 0.009575
C40   C     C_R   0.227353 0.454251 0.853419 0.553613
C41   C     C_R   0.273917 0.331432 0.062733 0.012207
C42   C     C_R   0.249412 0.912435 0.923844 0.015753
C43   C     C_R   0.747839 0.926140 0.080803 0.003917
C44   C     C_R   0.498017 0.154866 0.425679 -0.030661
C45   C     C_R   0.509717 0.171101 0.572348 -0.001385
C46   C     C_R   0.998013 0.654873 0.425679 -0.029709
C47   C     C_R   0.009716 0.671112 0.572348 -0.000459
C48   C     C_R   0.540205 0.244328 0.455325 -0.054964
C49   C     C_R   0.545216 0.251828 0.527554 -0.029286
C50   C     C_R   0.040202 0.744334 0.455324 -0.053979
C51   C     C_R   0.775792 0.462714 0.143705 0.541274
C52   C     C_R   0.045217 0.751836 0.527552 -0.029143
C53   C     C_R   0.473599 0.071233 0.544509 0.247215
C54   C     C_R   0.470498 0.059023 0.470135 0.249631
C55   C     C_R   0.973585 0.571258 0.544510 0.247694
C56   C     C_R   0.970485 0.559042 0.470138 0.248971
C57   C     C_R   0.527777 0.176957 0.849489 0.558821
C58   C     C_R   0.469784 0.177044 0.148644 0.560117
C59   C     C_R   0.029721 0.676214 0.851018 0.566281
C60   C     C_R   0.971576 0.677531 0.150094 0.570376
C61   C     C_3   0.540194 0.380397 0.446549 -0.265673
C62   C     C_R   0.700271 0.466606 0.036627 0.037194
C63   C     C_3   0.541559 0.387823 0.526699 -0.253127
C64   C     C_3   0.040190 0.880404 0.446547 -0.265453
C65   C     C_3   0.041558 0.887832 0.526696 -0.253611
C66   C     C_R   0.753135 0.422004 0.424424 0.021937
C67   C     C_R   0.251329 0.391064 0.582903 0.017361
C68   C     C_R   0.253140 0.922006 0.424427 0.022344
C69   C     C_R   0.751320 0.891085 0.582896 0.016351
C70   C     C_R   0.793588 0.334288 0.457793 0.088703
C71   C     C_R   0.200721 0.326766 0.544316 0.035407
C72   C     C_R   0.293605 0.834311 0.457800 0.088378
C73   C     C_R   0.312661 0.433537 0.954985 0.005389
C74   C     C_R   0.700704 0.826815 0.544303 0.035039
C75   C     C_R   0.792691 0.323040 0.530473 0.069203
C76   C     C_R   0.210089 0.300638 0.473773 0.016320
C77   C     C_R   0.292713 0.823071 0.530481 0.068818
C78   C     C_R   0.710075 0.800685 0.473762 0.017325
C79   C     C_R   0.716117 0.495808 0.541246 -0.152534
C80   C     C_R   0.327988 0.374764 0.479091 -0.147811
C81   C     C_R   0.216114 0.995808 0.541247 -0.152705
C82   C     C_R   0.827984 0.874761 0.479090 -0.147903
C83   C     C_R   0.715294 0.504916 0.466828 -0.163252
C84   C     C_R   0.201583 0.977962 0.036984 0.005936
C85   C     C_R   0.318238 0.404288 0.551829 -0.155409
C86   C     C_R   0.215289 0.004907 0.466829 -0.163244
C87   C     C_R   0.818233 0.904284 0.551826 -0.155574
C88   C     C_3   0.793102 0.199819 0.446539 -0.294854
C89   C     C_3   0.124374 0.351440 0.533132 -0.273068
C90   C     C_3   0.293137 0.699840 0.446553 -0.293901
C91   C     C_3   0.624359 0.851519 0.533115 -0.273180
C92   C     C_3   0.792950 0.187427 0.526687 -0.262576
C93   C     C_3   0.135673 0.324844 0.455177 -0.281704
C94   C     C_3   0.292992 0.687458 0.526701 -0.263030
C95   C     C_R   0.792008 0.981658 0.964590 0.022888
C96   C     C_3   0.635663 0.824911 0.455161 -0.282128
C97   C     C_R   0.752127 0.399499 0.573335 0.051008
C98   C     C_R   0.270990 0.331855 0.437927 0.016226
C99   C     C_R   0.252135 0.899516 0.573341 0.051024
C100  C     C_R   0.770982 0.831877 0.437923 0.018033
C101  C     C_R   0.738063 0.364790 0.852281 0.538478
C102  C     C_R   0.276085 0.312472 0.140140 0.567253
C103  C     C_R   0.237813 0.862773 0.853181 0.551339
C104  C     C_R   0.761242 0.866626 0.148483 0.556531
C105  C     C_R   0.728699 0.951999 0.648543 0.541103
C106  C     C_R   0.691865 0.453761 0.963822 0.040386
C107  C     C_R   0.271713 0.955417 0.352324 0.553134
C108  C     C_R   0.228701 0.451994 0.648544 0.529765
C109  C     C_R   0.771712 0.455415 0.352322 0.551478
C110  C     C_R   0.529120 0.176692 0.645497 0.580936
C111  C     C_R   0.468856 0.174445 0.355909 0.562305
C112  C     C_R   0.029122 0.676694 0.645495 0.579096
C113  C     C_R   0.968856 0.674446 0.355909 0.564092
C114  C     C_R   0.739635 0.361049 0.646040 0.550630
C115  C     C_R   0.274563 0.310949 0.360892 0.568550
C116  C     C_R   0.239637 0.861057 0.646043 0.549769
Cr1   Cr    Cr6+3 0.769260 0.163750 0.750730 1.009044
Cr2   Cr    Cr6+3 0.385810 0.322400 0.252290 1.008996
Cr3   Cr    Cr6+3 0.114190 0.822400 0.747710 1.016438
Cr4   Cr    Cr6+3 0.885810 0.822400 0.252290 1.011372
Cr5   Cr    Cr6+3 0.230740 0.163750 0.249270 1.019664
Cr6   Cr    Cr6+3 0.269260 0.663750 0.750730 1.018335
Cr7   Cr    Cr6+3 0.730740 0.663750 0.249270 1.020218
Cr8   Cr    Cr6+3 0.612640 0.009910 0.748780 1.049809
Cr9   Cr    Cr6+3 0.387360 0.009910 0.251220 1.058726
Cr10  Cr    Cr6+3 0.112640 0.509910 0.748780 1.051951
Cr11  Cr    Cr6+3 0.887360 0.509910 0.251220 1.062702
Cr12  Cr    Cr6+3 0.614190 0.322400 0.747710 1.016579
H1    H     H_    0.991773 0.920645 0.424150 0.153894
H2    H     H_    0.377998 0.392662 0.454342 0.125828
H3    H     H_    0.185177 0.058121 0.572901 0.119560
H4    H     H_    0.877998 0.892634 0.454344 0.125992
H5    H     H_    0.684907 0.575944 0.442080 0.133768
H6    H     H_    0.360673 0.445738 0.581436 0.113593
H7    H     H_    0.184893 0.075916 0.442078 0.133558
H8    H     H_    0.860672 0.945711 0.581437 0.114038
H9    H     H_    0.842267 0.166293 0.421689 0.135515
H10   H     H_    0.109908 0.448031 0.543108 0.140349
H11   H     H_    0.342304 0.666329 0.421703 0.136193
H12   H     H_    0.089017 0.930355 0.548727 0.157514
H13   H     H_    0.609904 0.948114 0.543091 0.139350
H14   H     H_    0.743903 0.166690 0.421207 0.135253
H15   H     H_    0.091262 0.281455 0.559876 0.118424
H16   H     H_    0.243941 0.666688 0.421227 0.137657
H17   H     H_    0.591234 0.781551 0.559858 0.119393
H18   H     H_    0.743681 0.146473 0.547580 0.145853
H19   H     H_    0.107834 0.241754 0.436632 0.121271
H20   H     H_    0.243731 0.646483 0.547598 0.146706
H21   H     H_    0.607826 0.741819 0.436616 0.121045
H22   H     H_    0.842640 0.150155 0.548397 0.133287
H23   H     H_    0.491777 0.420639 0.424152 0.154087
H24   H     H_    0.129728 0.406981 0.420790 0.148699
H25   H     H_    0.342687 0.650208 0.548410 0.133527
H26   H     H_    0.629727 0.907046 0.420769 0.146102
H27   H     H_    0.509730 0.252395 0.050693 0.063900
H28   H     H_    0.480572 0.253940 0.943326 0.069508
H29   H     H_    0.010813 0.756270 0.053010 0.058913
H30   H     H_    0.981096 0.746546 0.946036 0.064938
H31   H     H_    0.862299 0.410467 0.917132 0.184565
H32   H     H_    0.182910 0.215600 0.048264 0.165842
H33   H     H_    0.351258 0.825781 0.932894 0.200977
H34   H     H_    0.589019 0.430343 0.548732 0.157618
H35   H     H_    0.636943 0.884665 0.083699 0.200751
H36   H     H_    0.876843 0.431817 0.045171 0.198046
H37   H     H_    0.166929 0.263255 0.923425 0.178206
H38   H     H_    0.355267 0.826632 0.058878 0.202536
H39   H     H_    0.617360 0.925376 0.958661 0.205453
H40   H     H_    0.097208 0.035270 0.068327 0.162047
H41   H     H_    0.812544 0.175672 0.955224 0.161515
H42   H     H_    0.593503 0.469401 0.076482 0.160129
H43   H     H_    0.297231 0.628119 0.959065 0.155286
H44   H     H_    0.638727 0.317866 0.081790 0.130562
H45   H     H_    0.589104 0.413472 0.420880 0.140125
H46   H     H_    0.388630 0.577878 0.935918 0.163559
H47   H     H_    0.114814 0.867721 0.075531 0.139409
H48   H     H_    0.887510 0.073433 0.930907 0.161273
H49   H     H_    0.624887 0.293059 0.956170 0.131421
H50   H     H_    0.408440 0.522077 0.057776 0.157555
H51   H     H_    0.106163 0.850385 0.948844 0.156595
H52   H     H_    0.907689 0.032374 0.054344 0.158290
H53   H     H_    0.578587 0.443832 0.950972 0.162565
H54   H     H_    0.318136 0.576733 0.081093 0.158128
H55   H     H_    0.088174 0.018302 0.941672 0.159294
H56   H     H_    0.491745 0.422685 0.549720 0.129541
H57   H     H_    0.832986 0.135077 0.078651 0.151914
H58   H     H_    0.424248 0.866470 0.657212 0.163474
H59   H     H_    0.508030 0.893701 0.618846 0.115633
H60   H     H_    0.437525 0.826252 0.566571 0.123257
H61   H     H_    0.510757 0.903673 0.380346 0.115299
H62   H     H_    0.436037 0.806791 0.389096 0.145978
H63   H     H_    0.493362 0.822087 0.463141 0.076484
H64   H     H_    0.924342 0.366565 0.657275 0.158463
H65   H     H_    0.008045 0.393664 0.618704 0.114521
H66   H     H_    0.937386 0.326226 0.566597 0.124669
H67   H     H_    0.089099 0.913479 0.420875 0.140683
H68   H     H_    0.936048 0.306801 0.389099 0.145810
H69   H     H_    0.993341 0.322092 0.463180 0.076074
H70   H     H_    0.010765 0.403672 0.380385 0.118661
H71   H     H_    0.991743 0.922693 0.549717 0.129446
H72   H     H_    0.685187 0.558128 0.572901 0.120746
O1    O     O_R   0.784290 0.290360 0.830540 -0.528909
O2    O     O_R   0.456020 0.282110 0.333230 -0.541048
O3    O     O_R   0.043980 0.782110 0.666770 -0.522896
O4    O     O_R   0.956020 0.782110 0.333230 -0.541771
O5    O     O_R   0.679070 0.374030 0.674430 -0.507557
O6    O     O_R   0.320930 0.374030 0.325570 -0.501880
O7    O     O_R   0.179070 0.874030 0.674430 -0.510600
O8    O     O_R   0.820930 0.874030 0.325570 -0.510588
O9    O     O_3   0.665360 0.165350 0.749070 -0.278859
O10   O     O_3   0.334640 0.165350 0.250930 -0.299208
O11   O     O_3   0.165360 0.665350 0.749070 -0.259195
O12   O     O_R   0.215710 0.290360 0.169460 -0.481519
O13   O     O_3   0.834640 0.665350 0.250930 -0.278289
O14   O     O_R   0.762610 0.041070 0.825230 -0.496923
O15   O     O_R   0.237390 0.041070 0.174770 -0.519856
O16   O     O_R   0.262610 0.541070 0.825230 -0.503739
O17   O     O_R   0.737390 0.541070 0.174770 -0.492824
O18   O     O_R   0.667390 0.924160 0.829970 -0.480964
O19   O     O_R   0.332610 0.924160 0.170030 -0.494514
O20   O     O_R   0.167390 0.424160 0.829970 -0.481766
O21   O     O_R   0.832610 0.424160 0.170030 -0.510430
O22   O     O_R   0.553980 0.081420 0.821780 -0.458188
O23   O     O_R   0.284290 0.790360 0.830540 -0.515934
O24   O     O_R   0.446020 0.081420 0.178220 -0.443406
O25   O     O_R   0.053980 0.581420 0.821780 -0.438171
O26   O     O_R   0.946020 0.581420 0.178220 -0.451555
O27   O     O_R   0.543210 0.283170 0.826740 -0.526743
O28   O     O_R   0.456790 0.283170 0.173260 -0.531565
O29   O     O_R   0.043210 0.783170 0.826740 -0.528116
O30   O     O_R   0.956790 0.783170 0.173260 -0.523385
O31   O     O_R   0.678350 0.375000 0.822720 -0.494190
O32   O     O_R   0.321650 0.375000 0.177280 -0.492594
O33   O     O_R   0.178350 0.875000 0.822720 -0.499952
O34   O     O_R   0.715710 0.790360 0.169460 -0.507363
O35   O     O_R   0.821650 0.875000 0.177280 -0.493107
O36   O     O_R   0.785060 0.289300 0.670580 -0.521781
O37   O     O_R   0.214940 0.289300 0.329420 -0.511742
O38   O     O_R   0.285060 0.789300 0.670580 -0.519981
O39   O     O_R   0.714940 0.789300 0.329420 -0.522309
O40   O     O_R   0.763330 0.040090 0.676940 -0.506774
O41   O     O_R   0.236670 0.040090 0.323060 -0.532649
O42   O     O_R   0.263330 0.540090 0.676940 -0.511938
O43   O     O_R   0.736670 0.540090 0.323060 -0.532294
O44   O     O_R   0.668160 0.923110 0.670000 -0.517909
O45   O     O_R   0.554690 0.080440 0.673480 -0.506691
O46   O     O_R   0.331840 0.923110 0.330000 -0.484406
O47   O     O_R   0.168160 0.423110 0.670000 -0.524589
O48   O     O_R   0.831840 0.423110 0.330000 -0.485666
O49   O     O_3   0.425739 0.010617 0.587697 -0.540644
O50   O     O_3   0.427437 0.969110 0.442947 -0.514574
O51   O     O_3   0.925730 0.510642 0.587701 -0.540555
O52   O     O_3   0.927424 0.469126 0.442952 -0.514989
O53   O     O_R   0.445310 0.080440 0.326520 -0.469840
O54   O     O_R   0.054690 0.580440 0.673480 -0.509974
O55   O     O_R   0.945310 0.580440 0.326520 -0.469179
O56   O     O_R   0.543980 0.282110 0.666770 -0.522119

loop_
_geom_bond_atom_site_label_1
_geom_bond_atom_site_label_2
_ccdc_geom_bond_type
C96   H21   S    
Cr1   O40   S    
C79   C83   A    
C4    C9    D    
C2    C41   A    
Cr3   O11   S    
C76   C93   S    
Cr6   O42   S    
C46   C113  S    
C80   C98   A    
Cr1   O14   S    
Cr2   O2    S    
C33   C84   S    
Cr5   O41   S    
Cr6   O23   S    
C91   H13   S    
C7    H29   S    
C88   C92   S    
Cr9   O19   S    
C113  O4    A    
C82   C100  A    
C33   H40   S    
Cr2   O32   S    
C53   C54   A    
Cr5   O12   S    
Cr12  O56   S    
C1    C16   S    
C94   H20   S    
Cr10  O47   S    
C41   C102  S    
C107  O46   A    
C108  O42   A    
C103  O33   A    
C19   H66   S    
C20   H70   S    
C82   C87   A    
C46   C50   A    
C109  O48   A    
C102  O32   A    
C25   C43   A    
C64   H67   S    
C90   H11   S    
C57   O22   A    
C64   H1    S    
C34   C38   S    
C44   C48   A    
Cr9   O53   S    
C6    C11   D    
C14   C73   A    
C89   H15   S    
C113  O55   A    
C7    C10   D    
C45   C49   A    
C17   H59   S    
C36   H54   S    
C77   C94   S    
C5    H27   S    
C12   C26   A    
C13   C84   A    
C22   H31   S    
C56   O52   S    
C45   C53   A    
C37   H55   S    
C47   C52   A    
C39   C101  S    
C93   H24   S    
C70   C88   S    
Cr9   O10   S    
C20   O52   S    
Br2   C9    S    
Cr11  O21   S    
C72   C90   S    
Cr3   O29   S    
C21   C95   A    
C35   C106  S    
C92   H22   S    
C99   C116  S    
C105  O44   A    
C64   C65   S    
C61   C63   S    
C40   O16   A    
C19   H64   S    
C66   C70   A    
C69   C74   A    
Cr2   O6    S    
C18   H61   S    
Cr5   O37   S    
C40   O20   A    
C39   C106  A    
Cr1   O1    S    
C71   C76   A    
C21   C43   A    
C81   C99   A    
C88   H14   S    
C68   C72   A    
Cr8   O9    S    
C59   O25   A    
C16   C30   A    
C23   C41   A    
C116  O7    A    
C45   C110  S    
C68   C107  S    
C55   C56   A    
C6    H30   S    
Cr4   O4    S    
C53   O49   S    
C101  O31   A    
Br1   C8    S    
C83   H5    S    
C66   C83   A    
Cr10  O54   S    
Cr6   O16   S    
C22   C39   A    
C86   H7    S    
C47   C55   A    
C36   H50   S    
C29   O15   A    
C66   C109  S    
C90   H16   S    
C33   H47   S    
C50   C52   A    
C20   H69   S    
C67   C71   A    
C34   H48   S    
Cr12  O5    S    
C55   O51   S    
C5    C58   S    
Cr8   O44   S    
C27   H37   S    
C24   C28   A    
C32   H46   S    
C13   C42   A    
C69   C87   A    
C19   O51   S    
C15   C84   A    
C15   C29   S    
Cr8   O18   S    
C52   C65   S    
Cr4   O35   S    
C91   C96   S    
C79   H72   S    
C2    C73   A    
Cr4   O8    S    
C105  O40   A    
C38   H52   S    
C109  O43   A    
C98   C115  S    
C23   C27   A    
C25   C30   A    
Cr2   O10   S    
Cr3   O7    S    
C65   H12   S    
Cr1   O9    S    
C72   C77   A    
C31   C35   S    
C19   H65   S    
Cr6   O38   S    
C14   C40   S    
C23   H32   S    
C59   O29   A    
C68   C86   A    
Cr5   O10   S    
C74   C78   A    
C1    O14   A    
C67   C85   A    
C94   H25   S    
C32   C36   S    
C74   C91   S    
C107  O41   A    
C92   H18   S    
C67   C108  S    
C93   H19   S    
Cr7   O39   S    
Cr10  O11   S    
C116  O38   A    
C48   C49   A    
C62   C106  A    
C44   C54   A    
C88   H9    S    
C115  O37   A    
Cr4   O30   S    
C35   H49   S    
Br3   C10   S    
C24   H33   S    
C81   H3    S    
C44   C111  S    
C91   H17   S    
Cr5   O15   S    
Cr11  O26   S    
C82   H4    S    
C104  O34   A    
C7    C60   S    
C58   O28   A    
C70   C75   A    
C114  O5    A    
C42   C103  S    
C111  O53   A    
Cr11  O55   S    
C18   H63   S    
Cr7   O43   S    
C80   C85   A    
C97   C114  S    
C104  O35   A    
C3    O39   A    
C4    H28   S    
Cr12  O27   S    
C89   C93   S    
C112  O54   A    
C63   H56   S    
Cr7   O13   S    
C108  O47   A    
C77   C99   A    
C32   H43   S    
C114  O36   A    
C43   C104  S    
C1    O18   A    
C28   H38   S    
Cr9   O46   S    
C80   H2    S    
C115  O6    A    
C3    O8    A    
C79   C97   A    
C60   O30   A    
C31   H42   S    
C78   C96   S    
C15   C28   A    
C37   H51   S    
C6    C59   S    
C47   C112  S    
C34   C95   S    
C17   H60   S    
C21   C38   S    
Cr11  O48   S    
C81   C86   A    
C101  O1    A    
C14   C27   A    
Cr12  O31   S    
Cr1   O36   S    
C102  O12   A    
C4    C57   S    
Cr8   O45   S    
C31   C62   S    
C51   O17   A    
C24   C42   A    
C46   C56   A    
C25   H35   S    
Br4   C11   S    
Cr10  O20   S    
C12   C51   S    
C26   H36   S    
C75   C92   S    
C61   H23   S    
C34   H41   S    
C60   O26   A    
C110  O45   A    
C38   H57   S    
C51   O21   A    
C17   H58   S    
Cr10  O25   S    
C16   C95   A    
C61   H45   S    
C18   H62   S    
C71   C89   S    
C58   O24   A    
C3    C100  S    
C32   C73   S    
Cr9   O24   S    
C57   O27   A    
C54   O50   S    
C2    C36   S    
C69   C105  S    
C33   C37   S    
C49   C63   S    
C5    C8    D    
C13   C37   S    
C30   H39   S    
C18   O50   S    
C112  O3    A    
Cr6   O11   S    
Cr7   O17   S    
C29   O19   A    
C17   O49   S    
C87   H8    S    
C35   H53   S    
C89   H10   S    
C96   H26   S    
C103  O23   A    
Cr3   O3    S    
C50   C64   S    
C8    C9    S    
C20   H68   S    
Cr7   O34   S    
Cr8   O22   S    
C85   H6    S    
C111  O2    A    
C76   C98   A    
C78   C100  A    
C10   C11   S    
C75   C97   A    
C12   C62   A    
Cr12  O9    S    
C90   C94   S    
Cr11  O13   S    
C110  O56   A    
Cr2   O28   S    
C65   H71   S    
C31   H44   S    
C48   C61   S    
C63   H34   S    
Cr3   O33   S    
C22   C26   A    
Cr4   O13   S    
