data_mof_unit_7997.cif
_audit_creation_date              2012-12-10T16:53:52-0500
_audit_creation_method            fapswitch 2.2
_symmetry_space_group_name_H-M    P1
_symmetry_Int_Tables_number       1
_space_group_crystal_system       triclinic
_cell_length_a                    7.772971
_cell_length_b                    8.577038
_cell_length_c                    10.635381
_cell_angle_alpha                 91.629638
_cell_angle_beta                  84.991928
_cell_angle_gamma                 93.651463
_cell_volume                      704.723447171

loop_
_atom_site_label
_atom_site_type_symbol
_atom_type_description
_atom_site_fract_x
_atom_site_fract_y
_atom_site_fract_z
_atom_type_partial_charge
C1    C     C_R   0.545096 0.794436 0.492525 1.000004
C2    C     C_3   0.307620 0.513617 0.940569 0.237660
C3    C     C_3   0.305621 0.508759 0.084509 -0.116562
C4    C     C_3   0.574914 0.347400 0.919294 -0.157073
C5    C     C_3   0.611643 0.642291 0.924011 -0.479231
C6    C     C_3   0.497644 0.500373 0.878871 0.103028
C7    C     C_3   0.494917 0.497122 0.121956 0.110480
C8    C     C_3   0.568783 0.344042 0.064581 -0.533499
C9    C     C_3   0.613758 0.639064 0.068914 -0.113906
C10   C     C_2   0.566399 0.958030 0.490018 -0.423235
C11   C     C_2   0.429417 0.042129 0.476330 0.268561
C12   C     C_R   0.500347 0.501370 0.742208 0.908982
C13   C     C_R   0.453981 0.205513 0.495944 0.825353
C14   C     C_R   0.498125 0.496979 0.258001 0.895858
H1    H     H_    0.224287 0.414175 0.904820 0.104390
H2    H     H_    0.563054 0.753209 0.893329 0.211602
H3    H     H_    0.194834 0.057788 0.424680 0.334755
H4    H     H_    0.062770 0.697011 0.658725 0.358624
H5    H     H_    0.113650 0.642335 0.924529 0.323437
H6    H     H_    0.208268 0.275929 0.087983 0.173063
H7    H     H_    0.059760 0.407866 0.122616 0.168183
H8    H     H_    0.364354 0.186670 0.909880 0.186786
H9    H     H_    0.558160 0.110210 0.884689 0.196795
H10   H     H_    0.452288 0.823677 0.094458 0.219155
H11   H     H_    0.662893 0.873711 0.104308 0.184671
H12   H     H_    0.749185 0.621446 0.090067 0.168242
H13   H     H_    0.713695 0.350239 0.881899 0.186593
H14   H     H_    0.702558 0.333464 0.091955 0.175779
H15   H     H_    0.692924 0.009571 0.510006 0.150016
H16   H     H_    0.014070 0.381539 0.404693 0.146823
H17   H     H_    0.256285 0.619735 0.126055 0.198142
H18   H     H_    0.491874 0.239575 0.102811 0.185412
H19   H     H_    0.746612 0.637613 0.879886 0.176221
N1    N     N_2   0.950330 0.457950 0.465890 -0.074313
N2    N     N_2   0.049670 0.542050 0.534110 0.107811
N3    N     N_3   0.186337 0.381449 0.136142 -0.474607
N4    N     N_3   0.488847 0.206311 0.865857 -0.468891
N5    N     N_3   0.564877 0.788091 0.129188 -0.460879
O1    O     O_R   0.389250 0.738570 0.508370 -0.546033
O2    O     O_3   0.969005 0.642213 0.614191 -0.629117
O3    O     O_3   0.241375 0.654488 0.907006 -0.785162
O4    O     O_R   0.678390 0.711620 0.486510 -0.577538
O5    O     O_R   0.355430 0.513500 0.696140 -0.607553
O6    O     O_R   0.644580 0.486550 0.674270 -0.585175
O7    O     O_R   0.321610 0.288380 0.513490 -0.649069
O8    O     O_R   0.610750 0.261430 0.491630 -0.641164
O9    O     O_R   0.355420 0.513450 0.325730 -0.620942
O10   O     O_R   0.644570 0.486500 0.303860 -0.649562
O11   O     O_3   0.273598 0.975068 0.439443 -0.732196
Zn1   Zn    Zn3+2 0.306940 0.517990 0.514600 1.015260
Zn2   Zn    Zn3+2 0.693060 0.482010 0.485400 1.004025

loop_
_geom_bond_atom_site_label_1
_geom_bond_atom_site_label_2
_ccdc_geom_bond_type
H10   N5    S    
O5    Zn1   S    
C5    C9    S    
C14   O9    A    
C11   O11   S    
H11   N5    S    
C12   O5    A    
O4    Zn2   S    
C4    C8    S    
C4    H13   S    
N2    Zn1   S    
C2    C3    S    
C7    C8    S    
C12   O6    A    
H7    N3    S    
C3    H17   S    
C2    H1    S    
C11   C13   S    
C10   H15   S    
N1    Zn2   S    
C2    C6    S    
C3    N3    S    
C5    C6    S    
O7    Zn1   S    
O6    Zn2   S    
C9    N5    S    
C9    H12   S    
N2    O2    S    
O9    Zn1   S    
C3    C7    S    
O10   Zn2   S    
C6    C12   S    
C13   O8    A    
C8    H14   S    
C10   C11   D    
C1    O1    A    
C2    O3    S    
C8    H18   S    
C1    O4    A    
O1    Zn1   S    
C4    N4    S    
C13   O7    A    
C4    C6    S    
N1    N2    D    
H3    O11   S    
C7    C9    S    
C14   O10   A    
H16   N1    S    
C5    H2    S    
H4    O2    S    
H9    N4    S    
H8    N4    S    
O8    Zn2   S    
C7    C14   S    
C1    C10   S    
H5    O3    S    
C5    H19   S    
H6    N3    S    
