data_mof_unit_6497.cif
_audit_creation_date              2012-12-11T15:52:16-0500
_audit_creation_method            fapswitch 2.2
_symmetry_space_group_name_H-M    P1
_symmetry_Int_Tables_number       1
_space_group_crystal_system       triclinic
_cell_length_a                    10.989575
_cell_length_b                    10.978428
_cell_length_c                    18.767719
_cell_angle_alpha                 90.302623
_cell_angle_beta                  89.756292
_cell_angle_gamma                 119.790853
_cell_volume                      1965.02364627

loop_
_atom_site_label
_atom_site_type_symbol
_atom_type_description
_atom_site_fract_x
_atom_site_fract_y
_atom_site_fract_z
_atom_type_partial_charge
C1    C     C_R   0.519697 0.459123 0.147911 0.628635
C2    C     C_R   0.541180 0.059536 0.147679 0.621190
C3    C     C_R   0.941842 0.480604 0.148369 0.596811
C4    C     C_R   0.449323 0.525415 0.856376 0.535646
C5    C     C_R   0.063857 0.544388 0.853457 0.544184
C6    C     C_R   0.453650 0.875241 0.860055 0.534798
C7    C     C_3   0.742728 0.027638 0.539690 -0.275235
C8    C     C_3   0.973895 0.718103 0.539862 -0.274012
C9    C     C_3   0.282197 0.252072 0.547822 -0.267119
C10   C     C_3   0.964873 0.716889 0.459613 -0.269959
C11   C     C_3   0.752754 0.042099 0.459717 -0.269354
C12   C     C_3   0.283168 0.248315 0.467411 -0.268273
C13   C     C_R   0.519750 0.455850 0.354686 0.531389
C14   C     C_R   0.541563 0.058519 0.352720 0.532013
C15   C     C_R   0.941080 0.482774 0.352871 0.533480
C16   C     C_R   0.458304 0.518714 0.646685 0.549649
C17   C     C_R   0.066488 0.545159 0.644483 0.539950
C18   C     C_R   0.477241 0.930247 0.643721 0.548883
C19   C     C_R   0.459213 0.902547 0.936583 -0.029076
C20   C     C_R   0.020224 0.521142 0.927371 0.008814
C21   C     C_R   0.467790 0.520651 0.932478 0.000106
C22   C     C_R   0.001987 0.496247 0.077469 -0.004475
C23   C     C_R   0.488867 0.976580 0.082167 0.036776
C24   C     C_R   0.499593 0.508978 0.079825 0.057116
C25   C     C_R   0.373751 0.948037 0.968586 -0.027688
C26   C     C_R   0.947928 0.389660 0.959111 -0.025112
C27   C     C_R   0.599577 0.594534 0.963041 -0.007676
C28   C     C_R   0.943141 0.378477 0.032105 0.098606
C29   C     C_R   0.388917 0.985542 0.039821 -0.050389
C30   C     C_R   0.615486 0.588828 0.035605 -0.016794
C31   C     C_R   0.554879 0.905142 0.053813 -0.095657
C32   C     C_R   0.064510 0.628815 0.045808 -0.176610
C33   C     C_R   0.365558 0.458810 0.051490 -0.145969
C34   C     C_R   0.070584 0.640699 0.971896 -0.118029
C35   C     C_R   0.543726 0.872895 0.980921 -0.135485
C36   C     C_R   0.350331 0.467518 0.978057 -0.121270
C37   C     C_3   0.345930 0.062846 0.947587 0.305650
C38   C     C_3   0.935024 0.248875 0.948006 0.274675
C39   C     C_3   0.730443 0.592716 0.945452 0.282048
C40   C     C_3   0.946257 0.243915 0.028839 0.273665
C41   C     C_3   0.363112 0.104787 0.025589 0.294243
C42   C     C_3   0.747551 0.583912 0.025017 0.302592
C43   C     C_R   0.484213 0.956998 0.568006 0.018189
C44   C     C_R   0.034842 0.522992 0.569174 0.020097
C45   C     C_R   0.504207 0.497323 0.577952 0.015890
C46   C     C_R   0.013933 0.512912 0.420453 0.020054
C47   C     C_R   0.498730 0.983375 0.419749 0.020148
C48   C     C_R   0.507830 0.479004 0.429441 0.025891
C49   C     C_R   0.587929 0.947951 0.529628 0.031483
C50   C     C_R   0.049121 0.637498 0.530694 0.039949
C51   C     C_R   0.432467 0.366906 0.544211 0.018621
C52   C     C_R   0.040364 0.634216 0.458026 0.026375
C53   C     C_R   0.595433 0.959972 0.457090 0.021936
C54   C     C_R   0.433553 0.359464 0.471417 0.050142
C55   C     C_R   0.377636 0.962601 0.455595 -0.154790
C56   C     C_R   0.026260 0.407994 0.456807 -0.170955
C57   C     C_R   0.597288 0.606802 0.463007 -0.175803
C58   C     C_R   0.033432 0.411396 0.531412 -0.166204
C59   C     C_R   0.371097 0.951163 0.530108 -0.152778
C60   C     C_R   0.596664 0.615627 0.537268 -0.166023
Cr1   Cr    Cr6+3 0.769160 0.541570 0.250690 1.029140
Cr2   Cr    Cr6+3 0.458430 0.227590 0.250690 1.036992
Cr3   Cr    Cr6+3 0.772410 0.230840 0.250690 1.060121
Cr4   Cr    Cr6+3 0.541570 0.769160 0.749310 1.063511
Cr5   Cr    Cr6+3 0.227590 0.458430 0.749310 1.085536
Cr6   Cr    Cr6+3 0.230840 0.772410 0.749310 1.083898
H1    H     H_    0.627165 0.888487 0.085740 0.174289
H2    H     H_    0.101758 0.722884 0.077987 0.128786
H3    H     H_    0.273732 0.405445 0.085052 0.103277
H4    H     H_    0.118709 0.744695 0.949640 0.224111
H5    H     H_    0.608461 0.834217 0.958297 0.175018
H6    H     H_    0.247468 0.430947 0.956882 0.200630
H7    H     H_    0.294325 0.965669 0.426889 0.115431
H8    H     H_    0.017172 0.317908 0.428457 0.114253
H9    H     H_    0.663764 0.699720 0.432090 0.120736
H10   H     H_    0.031671 0.324977 0.559436 0.119506
H11   H     H_    0.281038 0.942430 0.557951 0.126490
H12   H     H_    0.658157 0.717410 0.561947 0.140568
H13   H     H_    0.785282 0.961970 0.560602 0.137810
H14   H     H_    0.040764 0.824597 0.562477 0.136383
H15   H     H_    0.209290 0.285490 0.568681 0.163889
H16   H     H_    0.855495 0.656119 0.440548 0.175632
H17   H     H_    0.794409 0.152102 0.442856 0.171782
H18   H     H_    0.267992 0.148499 0.445215 0.139431
H19   H     H_    0.778568 0.128836 0.568200 0.142808
H20   H     H_    0.870520 0.655470 0.566477 0.146377
H21   H     H_    0.270865 0.155382 0.572625 0.132780
H22   H     H_    0.027839 0.822707 0.435605 0.121149
H23   H     H_    0.801884 0.985540 0.434087 0.126163
H24   H     H_    0.217027 0.286763 0.442619 0.133282
O1    O     O_R   0.911480 0.572650 0.170990 -0.507293
O2    O     O_R   0.427350 0.338830 0.170990 -0.489085
O3    O     O_R   0.661170 0.088520 0.170990 -0.451945
O4    O     O_R   0.572650 0.911480 0.829010 -0.490835
O5    O     O_R   0.338830 0.427350 0.829010 -0.453415
O6    O     O_R   0.088520 0.661170 0.829010 -0.480160
O7    O     O_R   0.640340 0.528970 0.175680 -0.488963
O8    O     O_R   0.471030 0.111370 0.175680 -0.483993
O9    O     O_R   0.888630 0.359660 0.175680 -0.460533
O10   O     O_R   0.528970 0.640340 0.824320 -0.496207
O11   O     O_R   0.111370 0.471030 0.824320 -0.454831
O12   O     O_R   0.359660 0.888630 0.824320 -0.469867
O13   O     O_R   0.909980 0.572450 0.331530 -0.533405
O14   O     O_R   0.427550 0.337530 0.331530 -0.528750
O15   O     O_R   0.662470 0.090020 0.331530 -0.536725
O16   O     O_R   0.572450 0.909980 0.668470 -0.513058
O17   O     O_R   0.337530 0.427550 0.668470 -0.519845
O18   O     O_R   0.090020 0.662470 0.668470 -0.514433
O19   O     O_R   0.638950 0.528780 0.324500 -0.519508
O20   O     O_R   0.471220 0.110170 0.324500 -0.516851
O21   O     O_R   0.889830 0.361050 0.324500 -0.521100
O22   O     O_R   0.528780 0.638950 0.675500 -0.506978
O23   O     O_R   0.110170 0.471220 0.675500 -0.507718
O24   O     O_R   0.361050 0.889830 0.675500 -0.503100
O25   O     O_3   0.666667 0.333333 0.250560 -0.239261
O26   O     O_3   0.333333 0.666667 0.749440 -0.305961
F1    F     F_    0.209577 0.010803 0.924294 -0.591031
F2    F     F_    0.045477 0.250333 0.912006 -0.614333
F3    F     F_    0.831008 0.719617 0.917259 -0.605177
F4    F     F_    0.828619 0.134530 0.058630 -0.631995
F5    F     F_    0.481556 0.233245 0.036679 -0.591402
F6    F     F_    0.729783 0.454897 0.044119 -0.592646
H25   H     H_    0.426686 0.141955 0.911437 0.161253
H26   H     H_    0.830786 0.170575 0.926412 0.180087
H27   H     H_    0.713553 0.499152 0.914274 0.148607
H28   H     H_    0.045731 0.252924 0.048035 0.121864
H29   H     H_    0.266967 0.093100 0.051757 0.151364
H30   H     H_    0.840399 0.675788 0.048713 0.152492

loop_
_geom_bond_atom_site_label_1
_geom_bond_atom_site_label_2
_ccdc_geom_bond_type
C45   C60   A    
Cr4   O26   S    
C55   C59   A    
C41   H29   S    
C44   C58   A    
C9    C51   S    
Cr5   O11   S    
C10   C52   S    
C59   H11   S    
C17   O23   A    
C48   C57   A    
C5    C20   S    
C31   H1    S    
C6    C19   S    
C10   H22   S    
C7    H13   S    
Cr6   O26   S    
C39   H27   S    
C23   C29   A    
C12   H24   S    
Cr1   O13   S    
C38   F2    S    
C49   C53   A    
Cr4   O22   S    
C28   C40   S    
C36   H6    S    
C46   C52   A    
C33   C36   A    
C12   H18   S    
C3    O1    A    
C41   F5    S    
C9    H15   S    
Cr6   O12   S    
C13   O19   A    
C16   O17   A    
C25   C37   S    
Cr2   O8    S    
C14   O15   A    
C27   C39   S    
C6    O4    A    
Cr2   O2    S    
Cr1   O25   S    
C50   C52   A    
Cr3   O15   S    
C34   H4    S    
C11   C53   S    
C43   C59   A    
C32   H2    S    
Cr3   O25   S    
C21   C27   A    
Cr1   O19   S    
C22   C28   A    
C27   C30   A    
C37   C41   S    
Cr4   O4    S    
C18   O24   A    
C33   H3    S    
C39   C42   S    
Cr2   O14   S    
C25   C29   A    
C5    O11   A    
C56   H8    S    
Cr6   O6    S    
C58   H10   S    
C15   O21   A    
C7    C49   S    
C17   O18   A    
C1    O7    A    
C21   C36   A    
C26   C38   S    
C57   C60   A    
C11   H17   S    
C10   H16   S    
C32   C34   A    
C48   C54   A    
C7    C11   S    
C18   O16   A    
C4    O5    A    
C11   H23   S    
Cr2   O20   S    
C16   O22   A    
Cr5   O5    S    
C60   H12   S    
Cr1   O7    S    
C13   O14   A    
C22   C32   A    
C40   F4    S    
C1    O2    A    
C4    O10   A    
Cr5   O26   S    
C31   C35   A    
C12   C54   S    
C37   H25   S    
C5    O6    A    
C42   F6    S    
C47   C55   A    
C44   C50   A    
C14   O20   A    
Cr6   O24   S    
C29   C41   S    
Cr5   O23   S    
C2    O3    A    
C43   C49   A    
Cr6   O18   S    
C16   C45   S    
C13   C48   S    
Cr4   O16   S    
C14   C47   S    
C42   H30   S    
Cr3   O9    S    
Cr3   O3    S    
C26   C28   A    
C24   C33   A    
C47   C53   A    
C51   C54   A    
C57   H9    S    
C17   C44   S    
C20   C34   A    
Cr2   O25   S    
C19   C35   A    
C18   C43   S    
C9    H21   S    
C38   C40   S    
C4    C21   S    
C7    H19   S    
C20   C26   A    
C39   F3    S    
C56   C58   A    
C8    C50   S    
C8    H20   S    
C6    O12   A    
Cr3   O21   S    
C19   C25   A    
C9    C12   S    
C24   C30   A    
C35   H5    S    
C55   H7    S    
C3    O9    A    
Cr4   O10   S    
C37   F1    S    
C2    O8    A    
C1    C24   S    
C8    C10   S    
C46   C56   A    
C2    C23   S    
C8    H14   S    
C45   C51   A    
C40   H28   S    
C30   C42   S    
C3    C22   S    
C15   C46   S    
C15   O13   A    
Cr5   O17   S    
C38   H26   S    
Cr1   O1    S    
C23   C31   A    
