data_mof_unit_61281.cif
_audit_creation_date              2012-12-10T19:35:20-0500
_audit_creation_method            fapswitch 2.2
_symmetry_space_group_name_H-M    P1
_symmetry_Int_Tables_number       1
_space_group_crystal_system       triclinic
_cell_length_a                    16.388319
_cell_length_b                    16.786537
_cell_length_c                    19.112001
_cell_angle_alpha                 90.138048
_cell_angle_beta                  92.600467
_cell_angle_gamma                 87.052711
_cell_volume                      5245.40919754

loop_
_atom_site_label
_atom_site_type_symbol
_atom_type_description
_atom_site_fract_x
_atom_site_fract_y
_atom_site_fract_z
_atom_type_partial_charge
C1    C     C_R   0.487976 0.651964 0.496689 0.885779
C2    C     C_R   0.512015 0.348057 0.503498 0.889664
C3    C     C_R   0.478317 0.737201 0.487036 -0.068340
C4    C     C_R   0.521590 0.263018 0.514548 -0.076219
C5    C     C_R   0.523914 0.776112 0.437847 0.151700
C6    C     C_R   0.475919 0.225340 0.564462 0.149317
C7    C     C_R   0.515328 0.858510 0.432246 -0.140133
C8    C     C_R   0.484407 0.143081 0.571561 -0.141730
C9    C     C_R   0.462305 0.901435 0.475253 0.131050
C10   C     C_R   0.537437 0.099070 0.529342 0.129683
C11   C     C_R   0.413182 0.862613 0.520651 -0.114590
C12   C     C_R   0.586793 0.136766 0.483367 -0.112393
C13   C     C_R   0.420859 0.780252 0.526241 -0.227057
C14   C     C_R   0.579202 0.218989 0.476271 -0.221813
C15   C     C_2   0.469349 0.986406 0.481777 0.058559
C16   C     C_2   0.529707 0.014100 0.523683 0.059351
C17   C     C_R   0.759567 0.467413 0.461627 0.023776
C18   C     C_R   0.240473 0.532851 0.538234 0.028092
C19   C     C_R   0.844127 0.471709 0.461200 -0.244285
C20   C     C_R   0.155902 0.528666 0.538682 -0.239898
C21   C     C_R   0.884178 0.520195 0.510564 0.200664
C22   C     C_R   0.115801 0.480014 0.489481 0.199943
C23   C     C_R   0.499574 0.501733 0.634466 0.903130
C24   C     C_R   0.500011 0.501444 0.365511 0.899011
C25   C     C_R   0.837548 0.564342 0.558290 -0.261256
C26   C     C_R   0.162393 0.435625 0.441883 -0.261852
C27   C     C_R   0.752967 0.558304 0.556749 0.045662
C28   C     C_R   0.246983 0.441559 0.443399 0.043015
C29   C     C_2   0.973689 0.528161 0.512555 -0.200416
C30   C     C_2   0.026283 0.472093 0.487525 -0.197940
C31   C     C_R   0.421296 0.524154 0.740714 -0.259770
C32   C     C_R   0.572769 0.520595 0.256579 -0.258738
C33   C     C_R   0.417346 0.542729 0.811461 0.555422
C34   C     C_R   0.572256 0.538724 0.185284 0.550258
C35   C     C_R   0.490477 0.547000 0.852846 -0.035855
C36   C     C_R   0.496808 0.544983 0.146435 -0.024127
C37   C     C_R   0.566216 0.536860 0.821624 -0.221126
C38   C     C_R   0.423515 0.537103 0.180415 -0.226406
C39   C     C_R   0.569510 0.520411 0.750621 -0.185230
C40   C     C_R   0.424679 0.521267 0.251462 -0.180204
C41   C     C_R   0.497083 0.513471 0.709905 -0.101871
C42   C     C_R   0.499248 0.512629 0.289914 -0.095754
C43   C     C_R   0.492846 0.554230 0.070211 0.309935
C44   C     C_R   0.488959 0.555960 0.928837 0.303806
H1    H     H_    0.364549 0.519824 0.709899 0.180767
H2    H     H_    0.630893 0.513022 0.285716 0.175933
H3    H     H_    0.728038 0.430728 0.423617 0.126352
H4    H     H_    0.272044 0.569663 0.576123 0.119350
H5    H     H_    0.283539 0.407398 0.407069 0.134252
H6    H     H_    0.716377 0.592280 0.593179 0.132282
H7    H     H_    0.003534 0.418344 0.463786 0.152000
H8    H     H_    0.996412 0.581904 0.536320 0.150581
H9    H     H_    0.866373 0.602902 0.596510 0.142360
H10   H     H_    0.133529 0.396944 0.403786 0.143516
H11   H     H_    0.123296 0.561748 0.578195 0.134383
H12   H     H_    0.876771 0.438842 0.421582 0.136026
H13   H     H_    0.623164 0.539819 0.852339 0.180685
H14   H     H_    0.364820 0.542762 0.151965 0.178604
H15   H     H_    0.628700 0.513071 0.727738 0.171181
H16   H     H_    0.366998 0.516219 0.276205 0.172005
H17   H     H_    0.615617 0.247922 0.438822 0.153935
H18   H     H_    0.384595 0.750391 0.563230 0.149061
H19   H     H_    0.372589 0.896297 0.554294 0.154845
H20   H     H_    0.627382 0.102236 0.450317 0.156358
H21   H     H_    0.446640 0.112961 0.607188 0.168034
H22   H     H_    0.552897 0.889527 0.397066 0.168370
N1    N     N_R   0.555820 0.579305 0.966276 -0.178766
N2    N     N_R   0.425377 0.532768 0.032665 -0.174532
N3    N     N_R   0.557628 0.578608 0.035787 -0.109008
N4    N     N_R   0.423556 0.533445 0.963291 -0.092714
N5    N     N_R   0.716290 0.510230 0.508970 -0.095158
N6    N     N_R   0.283710 0.489770 0.491030 -0.095577
O1    O     O_R   0.422340 0.612130 0.496770 -0.625486
O2    O     O_R   0.577660 0.387870 0.503230 -0.621569
O3    O     O_R   0.561240 0.618700 0.502530 -0.586908
O4    O     O_R   0.438760 0.381300 0.497470 -0.587103
O5    O     O_R   0.430520 0.496720 0.598980 -0.615005
O6    O     O_R   0.569480 0.503280 0.401020 -0.615217
O7    O     O_R   0.569430 0.503290 0.604740 -0.627306
O8    O     O_R   0.430570 0.496710 0.395260 -0.628336
Zn1   Zn    Zn3+2 0.407250 0.495620 0.496160 0.969726
Zn2   Zn    Zn3+2 0.592750 0.504380 0.503840 0.970286
O9    O     O_3   0.341658 0.553078 0.840216 -0.589337
C45   C     C_3   0.313362 0.633142 0.830175 -0.299904
H23   H     H_    0.355974 0.674941 0.855968 0.160243
H24   H     H_    0.253492 0.642171 0.854645 0.207836
H25   H     H_    0.303700 0.647618 0.773494 0.149186
O10   O     O_3   0.645559 0.542475 0.152565 -0.604117
C46   C     C_3   0.682116 0.613891 0.172394 -0.255519
H26   H     H_    0.639737 0.667009 0.161974 0.169056
H27   H     H_    0.736327 0.620514 0.140601 0.200499
H28   H     H_    0.703829 0.612350 0.228362 0.174301
I1    I     I_    0.605273 0.715788 0.369513 -0.384532
I2    I     I_    0.394540 0.287396 0.631730 -0.311696
I3    I     I_    0.616104 0.940065 0.583511 -0.353463
I4    I     I_    0.383072 0.060374 0.421742 -0.351572

loop_
_geom_bond_atom_site_label_1
_geom_bond_atom_site_label_2
_ccdc_geom_bond_type
C19   H12   S    
C30   H7    S    
C40   H16   S    
C24   C42   S    
C45   H25   S    
C2    O4    A    
C39   C41   A    
C19   C21   A    
C45   H24   S    
C11   H19   S    
C12   H20   S    
C15   C16   D    
C33   C35   A    
C38   H14   S    
C24   O8    A    
C13   H18   S    
C43   N2    A    
C6    I2    S    
C31   C33   A    
C44   N4    A    
C46   H27   S    
C22   C30   S    
C18   C20   A    
N6    Zn1   S    
C3    C13   A    
C27   H6    S    
N5    Zn2   S    
C40   C42   A    
C8    H21   S    
C43   N3    A    
C25   H9    S    
C28   N6    A    
O2    Zn2   S    
C20   H11   S    
C26   H10   S    
O1    Zn1   S    
C18   N6    A    
C44   N1    A    
C1    O3    A    
C45   H23   S    
C4    C6    A    
C15   I4    S    
C5    C7    A    
C6    C8    A    
C14   H17   S    
C21   C29   S    
C1    C3    S    
C32   C34   A    
C2    C4    S    
C29   C30   D    
C9    C11   A    
C28   H5    S    
O6    Zn2   S    
O9    C45   S    
O5    Zn1   S    
C39   H15   S    
C34   O10   S    
C23   O5    A    
C46   H28   S    
C35   C44   S    
C33   O9    S    
C2    O2    A    
C10   C12   A    
C24   O6    A    
C12   C14   A    
C17   N5    A    
C31   H1    S    
C27   N5    A    
N1    N3    A    
C7    C9    A    
C21   C25   A    
C16   I3    S    
C31   C41   A    
C35   C37   A    
C32   H2    S    
C17   H3    S    
C20   C22   A    
O8    Zn1   S    
C3    C5    A    
C18   H4    S    
O4    Zn1   S    
O7    Zn2   S    
C5    I1    S    
O3    Zn2   S    
C25   C27   A    
C26   C28   A    
C23   C41   S    
C1    O1    A    
C36   C38   A    
C9    C15   S    
C37   C39   A    
C10   C16   S    
C7    H22   S    
C38   C40   A    
C11   C13   A    
C17   C19   A    
C34   C36   A    
C4    C14   A    
O10   C46   S    
C8    C10   A    
C22   C26   A    
N2    N4    A    
C32   C42   A    
C36   C43   S    
C23   O7    A    
C46   H26   S    
C37   H13   S    
C29   H8    S    
