data_mof_unit_63566.cif
_audit_creation_date              2013-03-05T16:59:11-0500
_audit_creation_method            fapswitch 2.2
_symmetry_space_group_name_H-M    P1
_symmetry_Int_Tables_number       1
_space_group_crystal_system       triclinic
_cell_length_a                    16.893286
_cell_length_b                    16.825138
_cell_length_c                    17.571095
_cell_angle_alpha                 87.276711
_cell_angle_beta                  89.517539
_cell_angle_gamma                 94.771159
_cell_volume                      4970.95452123

loop_
_atom_site_label
_atom_site_type_symbol
_atom_site_description
_atom_site_fract_x
_atom_site_fract_y
_atom_site_fract_z
_atom_type_partial_charge
O1    O     O_R   0.433430 0.500000 0.610870 -0.530409
O2    O     O_R   0.566570 0.500000 0.389130 -0.530696
O3    O     O_R   0.566520 0.499990 0.610900 -0.650656
O4    O     O_R   0.433480 0.500010 0.389100 -0.644740
C1    C     C_R   0.499542 0.503655 0.646681 0.897859
C2    C     C_R   0.500373 0.495583 0.353492 0.896524
O5    O     O_R   0.426030 0.383870 0.500690 -0.585463
O6    O     O_R   0.573970 0.616130 0.499310 -0.583173
O7    O     O_R   0.559120 0.383870 0.500710 -0.623566
O8    O     O_R   0.440880 0.616130 0.499290 -0.623852
C3    C     C_R   0.489265 0.346999 0.500794 0.876267
C4    C     C_R   0.510657 0.653059 0.499211 0.885747
Zn1   Zn    Zn3+2 0.411140 0.500000 0.499980 1.034021
Zn2   Zn    Zn3+2 0.588860 0.500000 0.500020 1.033367
C5    C     C_R   0.480616 0.261638 0.499358 -0.026583
C6    C     C_R   0.518520 0.738596 0.499863 -0.037674
C7    C     C_R   0.522187 0.223683 0.444750 -0.237503
C8    C     C_R   0.472734 0.776724 0.551033 -0.245352
C9    C     C_R   0.515351 0.141170 0.444820 -0.161768
C10   C     C_R   0.477074 0.859226 0.548967 -0.157008
C11   C     C_R   0.467311 0.096694 0.500412 0.310619
C12   C     C_R   0.526796 0.903709 0.494668 0.305735
C13   C     C_R   0.422421 0.135363 0.551856 -0.171664
C14   C     C_R   0.575330 0.865085 0.446423 -0.174362
C15   C     C_R   0.429286 0.217958 0.551678 -0.149861
C16   C     C_R   0.570959 0.782425 0.448625 -0.145489
N1    N     N_2   0.465559 0.013187 0.508415 -0.197662
N2    N     N_2   0.527939 0.987173 0.485741 -0.199754
H1    H     H_    0.433081 0.742658 0.591606 0.186545
H2    H     H_    0.560516 0.257814 0.403100 0.176969
H3    H     H_    0.440586 0.888081 0.588497 0.166672
H4    H     H_    0.548894 0.112162 0.402985 0.162900
H5    H     H_    0.384841 0.101306 0.594094 0.162898
H6    H     H_    0.614151 0.899119 0.405176 0.163167
H7    H     H_    0.396850 0.247612 0.593824 0.210612
H8    H     H_    0.605995 0.752826 0.408548 0.216258
C17   C     C_R   0.425448 0.463960 0.156389 -0.143352
C18   C     C_R   0.567545 0.490307 0.848250 -0.141721
H9    H     H_    0.368627 0.458360 0.128095 0.158502
H10   H     H_    0.622853 0.485533 0.878306 0.159380
C19   C     C_R   0.427905 0.471130 0.234503 -0.242560
C20   C     C_R   0.568673 0.502422 0.769785 -0.247365
H11   H     H_    0.372305 0.468067 0.265565 0.174290
H12   H     H_    0.625402 0.508045 0.740607 0.173714
C21   C     C_R   0.501052 0.481871 0.271719 -0.171521
C22   C     C_R   0.497429 0.506815 0.729876 -0.164707
C23   C     C_R   0.572781 0.477992 0.229594 0.323675
C24   C     C_R   0.424864 0.508766 0.771093 0.335938
C25   C     C_R   0.569234 0.471901 0.150985 -0.211740
C26   C     C_R   0.424592 0.495031 0.849887 -0.212901
H13   H     H_    0.623626 0.471402 0.117826 0.177520
H14   H     H_    0.369624 0.495131 0.882204 0.180046
C27   C     C_R   0.496129 0.466028 0.115090 0.086884
C28   C     C_R   0.495305 0.484248 0.887423 0.084467
C29   C     C_1   0.494367 0.467814 0.034953 -0.015334
C30   C     C_1   0.494381 0.473525 0.967385 -0.013914
C31   C     C_R   0.161315 0.437668 0.534822 -0.293565
C32   C     C_R   0.838571 0.564481 0.467410 -0.294132
H15   H     H_    0.125480 0.388339 0.563113 0.224434
H16   H     H_    0.874119 0.615289 0.441297 0.223804
C33   C     C_R   0.245210 0.438144 0.535134 0.456527
C34   C     C_R   0.754624 0.563581 0.467484 0.459964
N3    N     N_R   0.292770 0.500020 0.499970 -0.165552
N4    N     N_R   0.707230 0.499980 0.500030 -0.164916
C35   C     C_R   0.256128 0.561754 0.463316 -0.065580
C36   C     C_R   0.744478 0.436409 0.532842 -0.066793
C37   C     C_R   0.171809 0.562542 0.462607 0.226725
C38   C     C_R   0.828943 0.435829 0.532787 0.222955
C39   C     C_R   0.123781 0.500057 0.499106 -0.057857
C40   C     C_R   0.876570 0.500489 0.499381 -0.058114
C41   C     C_1   0.036449 0.500300 0.499741 0.144824
C42   C     C_1   0.964011 0.501484 0.499302 0.141500
N5    N     N_R   0.279174 0.371392 0.571342 0.214441
O9    O     O_R   0.252027 0.299457 0.555635 -0.398528
O10   O     O_R   0.321777 0.381247 0.631879 -0.356724
N6    N     N_R   0.720426 0.630795 0.432515 0.213778
O11   O     O_R   0.747828 0.702454 0.448890 -0.403485
O12   O     O_R   0.677636 0.621711 0.371982 -0.347499
C43   C     C_R   0.302080 0.625888 0.417724 0.193898
C44   C     C_R   0.320006 0.614577 0.341230 -0.092972
C45   C     C_R   0.358047 0.676718 0.295417 -0.135540
C46   C     C_R   0.375049 0.751847 0.324855 -0.111267
C47   C     C_R   0.353073 0.765022 0.399750 -0.129211
C48   C     C_R   0.316468 0.702395 0.446113 -0.035690
H17   H     H_    0.302599 0.558155 0.316931 0.125498
H18   H     H_    0.372911 0.667026 0.236727 0.152010
H19   H     H_    0.403896 0.800202 0.289254 0.150057
H20   H     H_    0.364478 0.823746 0.421882 0.158256
H21   H     H_    0.299383 0.713309 0.503999 0.155771
C49   C     C_R   0.698883 0.365254 0.567939 0.210899
C50   C     C_R   0.696073 0.292284 0.531801 -0.078425
C51   C     C_R   0.660923 0.222588 0.568870 -0.112866
C52   C     C_R   0.627613 0.225376 0.641655 -0.101705
C53   C     C_R   0.631895 0.297343 0.678534 -0.149584
C54   C     C_R   0.669036 0.366525 0.642371 -0.050966
H22   H     H_    0.721864 0.289386 0.475459 0.154213
H23   H     H_    0.659111 0.166497 0.540987 0.155525
H24   H     H_    0.599604 0.171574 0.669872 0.148353
H25   H     H_    0.608159 0.299163 0.735774 0.149664
H26   H     H_    0.677453 0.420358 0.672992 0.124479
N7    N     N_R   0.135125 0.625766 0.422306 0.205813
O13   O     O_R   0.140485 0.697217 0.447995 -0.368863
O14   O     O_R   0.088652 0.609869 0.365368 -0.360236
N8    N     N_R   0.866047 0.369422 0.567467 0.204756
O15   O     O_R   0.852409 0.348133 0.638836 -0.367979
O16   O     O_R   0.915941 0.332036 0.528554 -0.364243
N9    N     N_R   0.648977 0.477365 0.264909 0.234588
O17   O     O_R   0.708498 0.523949 0.236795 -0.332098
O18   O     O_R   0.663372 0.417644 0.311106 -0.387881
N10   N     N_R   0.352498 0.528605 0.735229 0.234560
O19   O     O_R   0.285029 0.491651 0.757769 -0.339130
O20   O     O_R   0.351968 0.594034 0.692683 -0.394115

loop_
_geom_bond_atom_site_label_1
_geom_bond_atom_site_label_2
_geom_bond_distance
_ccdc_geom_bond_type
C32   C34   1.416939 A    
C36   C38   1.427728 A    
C29   C30   1.186561 T    
N3    C35   1.388135 A    
C52   C53   1.397179 A    
C35   C43   1.475395 S    
C2    C21   1.466129 S    
N9    O18   1.301596 A    
N5    O9    1.301128 A    
C24   N10   1.436640 S    
N8    O16   1.301142 A    
C45   C46   1.397176 A    
C49   C54   1.399466 A    
C23   C25   1.391313 A    
O5    C3    1.279128 A    
N7    O13   1.300502 A    
O1    C1    1.284972 A    
C9    C11   1.410283 A    
C14   C16   1.385259 A    
C18   C20   1.383820 A    
C43   C48   1.405664 A    
C5    C15   1.397692 A    
C35   C37   1.425755 A    
C32   H16   1.083804 S    
C46   H19   1.082239 S    
C13   H5    1.083201 S    
C33   N3    1.379308 A    
C20   C22   1.403490 A    
C21   C23   1.422354 A    
O4    Zn1   1.981366 S    
C39   C41   1.475618 S    
N10   O19   1.301388 A    
C34   N4    1.380146 A    
C7    C9    1.383418 A    
C50   H22   1.083126 S    
C3    C5    1.432931 S    
C4    C6    1.434844 S    
C25   H13   1.084710 S    
C18   C28   1.389950 A    
C26   H14   1.084523 S    
N9    O17   1.301203 A    
C45   H18   1.082376 S    
C17   C27   1.389109 A    
C24   C26   1.392686 A    
C47   H20   1.081984 S    
C11   N1    1.403195 S    
N7    O14   1.300962 A    
C12   N2    1.404117 S    
C7    H2    1.083903 S    
C19   H11   1.078610 S    
C34   N6    1.427869 S    
O2    C2    1.284760 A    
C20   H12   1.078076 S    
C9    H4    1.082929 S    
N8    O15   1.301035 A    
C51   H23   1.082133 S    
C22   C24   1.422086 A    
C27   C29   1.407602 S    
C6    C16   1.397823 A    
C28   C30   1.407815 S    
N6    O11   1.301189 A    
O4    C2    1.296345 A    
C50   C51   1.398940 A    
C54   H26   1.075301 S    
C32   C40   1.396592 A    
C33   N5    1.428559 S    
C14   H6    1.083209 S    
C37   C39   1.400042 A    
N4    C36   1.389907 A    
O7    Zn2   1.976019 S    
C44   H17   1.078962 S    
C47   C48   1.399263 A    
Zn1   N3    1.999688 S    
O6    C4    1.280823 A    
Zn2   N4    1.999688 S    
C8    H1    1.083856 S    
C26   C28   1.390284 A    
O7    C3    1.286670 A    
O3    Zn2   1.981365 S    
O8    C4    1.285925 A    
C15   H7    1.082287 S    
C16   H8    1.081477 S    
C10   C12   1.410712 A    
C23   N9    1.434264 S    
C11   C13   1.393526 A    
C12   C14   1.393701 A    
O1    Zn1   1.987623 S    
C48   H21   1.083119 S    
N5    O10   1.298725 A    
C37   N7    1.436154 S    
C5    C7    1.393960 A    
O6    Zn2   1.990141 S    
C38   N8    1.439032 S    
N6    O12   1.298929 A    
C44   C45   1.397736 A    
O3    C1    1.297172 A    
O8    Zn1   1.976015 S    
C31   C33   1.416684 A    
C1    C22   1.465559 S    
C41   C42   1.225616 T    
C17   H9    1.083939 S    
C18   H10   1.084026 S    
C49   C50   1.406287 A    
C53   H25   1.082342 S    
C25   C27   1.389783 A    
C51   C52   1.397290 A    
C36   C49   1.474899 S    
C8    C10   1.382662 A    
C13   C15   1.384709 A    
C17   C19   1.384195 A    
C53   C54   1.397793 A    
O2    Zn2   1.987621 S    
N10   O20   1.301675 A    
C31   H15   1.083766 S    
C43   C44   1.400542 A    
O5    Zn1   1.990141 S    
C6    C8    1.394221 A    
C46   C47   1.397134 A    
N1    N2    1.243793 D    
C38   C40   1.400428 A    
C19   C21   1.405317 A    
C40   C42   1.475855 S    
C31   C39   1.397364 A    
C52   H24   1.082262 S    
C10   H3    1.082907 S    
