data_mof_unit_60211.cif
_audit_creation_date              2012-12-11T17:24:19-0500
_audit_creation_method            fapswitch 2.2
_symmetry_space_group_name_H-M    P1
_symmetry_Int_Tables_number       1
_space_group_crystal_system       triclinic
_cell_length_a                    19.799694
_cell_length_b                    19.884317
_cell_length_c                    19.827111
_cell_angle_alpha                 110.431279
_cell_angle_beta                  107.381195
_cell_angle_gamma                 110.474839
_cell_volume                      6014.12250296

loop_
_atom_site_label
_atom_site_type_symbol
_atom_type_description
_atom_site_fract_x
_atom_site_fract_y
_atom_site_fract_z
_atom_type_partial_charge
C1    C     C_R   0.003181 0.730043 0.072919 0.178154
C2    C     C_3   0.535677 0.546910 0.973621 0.274841
C3    C     C_3   0.500061 0.534058 0.852783 0.294168
C4    C     C_3   0.453129 0.470128 0.939632 0.275718
C5    C     C_1   0.681917 0.498290 0.936124 -0.025039
C6    C     C_1   0.287408 0.504518 0.922502 -0.025007
C7    C     C_3   0.459975 0.423391 0.864470 0.285113
C8    C     C_3   0.492490 0.580623 0.928307 0.286173
C9    C     C_3   0.543871 0.500226 0.898467 -0.202340
C10   C     C_3   0.408585 0.503713 0.894128 -0.202976
C11   C     C_1   0.619207 0.498816 0.913703 0.263852
C12   C     C_R   0.035132 0.297570 0.966738 0.214533
C13   C     C_1   0.339725 0.504700 0.904415 0.268637
C14   C     C_R   0.536682 0.887058 0.456626 0.547265
C15   C     C_R   0.521653 0.946126 0.600216 0.547288
C16   C     C_R   0.843971 0.267750 0.776549 0.341041
C17   C     C_R   0.169244 0.703198 0.236280 0.239428
C18   C     C_R   0.459208 0.854767 0.453501 -0.149421
C19   C     C_R   0.597442 0.984600 0.601638 -0.151750
C20   C     C_R   0.452938 0.881512 0.525468 -0.197919
C21   C     C_R   0.605213 0.952351 0.531211 -0.193229
C22   C     C_1   0.384876 0.806127 0.377346 0.035587
C23   C     C_R   0.769972 0.224191 0.772680 -0.030466
C24   C     C_1   0.661163 0.066525 0.667019 0.042009
C25   C     C_1   0.711739 0.137880 0.717229 0.041924
C26   C     C_1   0.321954 0.769190 0.314734 0.036779
C27   C     C_R   0.928360 0.577589 0.545089 -0.230605
C28   C     C_R   0.839122 0.424969 0.398115 -0.226370
C29   C     C_R   0.893079 0.502999 0.544770 0.027265
C30   C     C_R   0.880803 0.499120 0.399775 0.024702
C31   C     C_R   0.844977 0.426482 0.470547 0.224643
C32   C     C_R   0.922483 0.576092 0.472709 0.225647
C33   C     C_1   0.919542 0.505054 0.621156 0.045177
C34   C     C_R   0.246043 0.726045 0.241587 -0.011702
C35   C     C_1   0.895417 0.494685 0.332524 0.045030
C36   C     C_1   0.915693 0.493524 0.281148 0.007569
C37   C     C_1   0.946067 0.505513 0.684199 0.006572
C38   C     C_R   0.067411 0.113622 0.147920 0.561971
C39   C     C_R   0.151896 0.051438 0.076397 0.561947
C40   C     C_R   0.031504 0.571569 0.835325 -0.181681
C41   C     C_R   0.927539 0.428957 0.156154 -0.190232
C42   C     C_R   0.099474 0.145725 0.104785 0.011948
C43   C     C_R   0.113271 0.014252 0.112907 0.015463
C44   C     C_R   0.144834 0.117998 0.072830 -0.416244
C45   C     C_R   0.978965 0.503447 0.757486 -0.083829
C46   C     C_R   0.074908 0.047392 0.151928 -0.417744
C47   C     C_1   0.073495 0.195350 0.079794 0.124566
C48   C     C_1   0.096385 0.932397 0.094597 0.123578
C49   C     C_1   0.075070 0.860982 0.073238 0.024682
C50   C     C_1   0.048092 0.232319 0.053752 0.028244
C51   C     C_R   0.763652 0.429515 0.956661 -0.101226
C52   C     C_R   0.227408 0.570906 0.997477 -0.123322
C53   C     C_R   0.961537 0.433007 0.764543 0.546234
C54   C     C_R   0.986573 0.566078 0.220746 0.563802
C55   C     C_R   0.832621 0.568723 0.024721 -0.038954
C56   C     C_R   0.947165 0.496495 0.225646 -0.082938
C57   C     C_R   0.157440 0.433404 0.923837 -0.050782
C58   C     C_R   0.772457 0.272379 0.843402 -0.181509
C59   C     C_R   0.236247 0.697441 0.163782 -0.153562
C60   C     C_R   0.069645 0.727865 0.000413 -0.150832
C61   C     C_R   0.967709 0.302829 0.038987 -0.142227
C62   C     C_R   0.044785 0.774781 0.044538 0.009138
C63   C     C_R   0.017612 0.274839 0.020625 0.005649
C64   C     C_R   0.756045 0.498675 0.969948 0.040169
C65   C     C_R   0.229405 0.502985 0.950749 0.063192
C66   C     C_3   0.415972 0.456711 0.818561 0.298610
H1    H     H_    0.663629 0.982080 0.532732 0.195045
H2    H     H_    0.266952 0.634589 0.015313 0.117906
H3    H     H_    0.847062 0.632201 0.045840 0.138304
H4    H     H_    0.132034 0.374204 0.870315 0.158936
H5    H     H_    0.732214 0.250702 0.867215 0.132753
H6    H     H_    0.283978 0.705883 0.146363 0.131984
H7    H     H_    0.115902 0.750573 0.983008 0.131968
H8    H     H_    0.941822 0.294199 0.078158 0.135429
H9    H     H_    0.376447 0.388075 0.703922 0.353949
H10   H     H_    0.574147 0.615382 0.088169 0.356180
H11   H     H_    0.567405 0.697120 0.977821 0.354443
H12   H     H_    0.393355 0.855962 0.522759 0.192642
H13   H     H_    0.385047 0.306934 0.815249 0.358717
H14   H     H_    0.496249 0.810310 0.341444 0.323191
H15   H     H_    0.564770 0.013290 0.718000 0.322127
H16   H     H_    0.005284 0.113685 0.207586 0.332931
H17   H     H_    0.213312 0.050853 0.016007 0.332260
H18   H     H_    0.890744 0.351706 0.649464 0.345422
H19   H     H_    0.961620 0.636930 0.292290 0.347231
H20   H     H_    0.485090 0.583038 0.785879 0.352342
H21   H     H_    0.469295 0.421198 0.006552 0.353656
H22   H     H_    0.965593 0.636559 0.602427 0.169247
H23   H     H_    0.807347 0.365617 0.341882 0.169521
H24   H     H_    0.045099 0.017381 0.179461 0.180546
H25   H     H_    0.169115 0.143778 0.039719 0.181632
H26   H     H_    0.057120 0.636254 0.852218 0.144821
H27   H     H_    0.882569 0.365025 0.132334 0.139640
H28   H     H_    0.715152 0.365157 0.916983 0.124566
I1    I     I_    0.991548 0.785194 0.178407 -0.286100
I2    I     I_    0.087023 0.244430 0.900486 -0.347125
I3    I     I_    0.986562 0.690960 0.479395 -0.295360
I4    I     I_    0.788210 0.311162 0.465473 -0.330092
I5    I     I_    0.897079 0.205143 0.720910 -0.266986
I6    I     I_    0.157913 0.759057 0.341647 -0.262211
N1    N     N_R   0.999080 0.655880 0.043180 -0.071987
N2    N     N_R   0.999370 0.542940 0.155540 -0.082683
N3    N     N_R   0.886170 0.542970 0.043180 -0.041515
N4    N     N_R   0.113830 0.457030 0.956820 -0.056650
N5    N     N_R   0.844420 0.344140 0.887390 -0.065120
N6    N     N_R   0.155580 0.655860 0.112610 -0.060532
N7    N     N_R   0.042380 0.655890 0.000250 -0.058102
N8    N     N_R   0.957620 0.344110 0.999750 -0.059816
N9    N     N_R   0.000920 0.344120 0.956820 -0.073819
N10   N     N_R   0.887710 0.344150 0.844460 -0.080141
N11   N     N_R   0.112290 0.655850 0.155540 -0.070559
N12   N     N_R   0.043250 0.542980 0.887390 -0.073551
N13   N     N_R   0.956750 0.457020 0.112610 -0.073924
N14   N     N_R   0.843540 0.457050 0.000250 -0.052987
N15   N     N_R   0.156460 0.542950 0.999750 -0.050347
N16   N     N_R   0.000630 0.457060 0.844460 -0.082721
Ni1   Ni    Ni4+2 0.999230 0.598520 0.098470 0.303269
Ni2   Ni    Ni4+2 0.000770 0.401480 0.901530 0.270986
Ni3   Ni    Ni4+2 0.098520 0.598520 0.000000 0.207834
Ni4   Ni    Ni4+2 0.901480 0.401480 0.000000 0.205858
O1    O     O_3   0.352673 0.409782 0.737594 -0.686153
O2    O     O_3   0.979380 0.635565 0.250371 -0.703162
O3    O     O_3   0.525412 0.567278 0.807369 -0.693283
O4    O     O_3   0.428697 0.436832 0.985462 -0.695335
O5    O     O_3   0.598396 0.593884 0.054971 -0.693328
O6    O     O_3   0.508964 0.662720 0.961771 -0.696222
O7    O     O_3   0.443536 0.341300 0.831422 -0.694736
O8    O     O_3   0.547424 0.861399 0.388249 -0.718170
O9    O     O_3   0.510573 0.973444 0.668192 -0.720777
O10   O     O_3   0.024127 0.143480 0.179976 -0.739257
O11   O     O_3   0.190224 0.017780 0.039334 -0.738681
O12   O     O_3   0.911315 0.351939 0.701641 -0.740308

loop_
_geom_bond_atom_site_label_1
_geom_bond_atom_site_label_2
_ccdc_geom_bond_type
N1    N7    A    
C23   C58   A    
N5    N10   A    
H10   O5    S    
C29   C33   S    
N6    Ni3   S    
C27   C29   A    
C14   C18   A    
C35   C36   T    
C1    C62   A    
N10   Ni2   S    
C16   N10   A    
C40   N12   A    
C32   I3    S    
C15   C19   A    
C30   C35   S    
C3    C9    S    
C38   O10   S    
C14   C21   A    
C19   C21   A    
C38   C42   A    
H21   O4    S    
C58   H5    S    
N4    N15   A    
C55   N3    A    
C60   H7    S    
C14   O8    S    
N8    N9    A    
C4    O4    S    
C60   C62   A    
C31   I4    S    
C61   C63   A    
C61   N8    A    
N8    Ni4   S    
C26   C34   S    
C6    C65   S    
C41   H27   S    
N5    Ni4   S    
C28   H23   S    
C57   H4    S    
H16   O10   S    
C43   C48   S    
C52   H2    S    
C53   N16   A    
C59   H6    S    
C54   O2    S    
C45   C53   A    
C18   C22   S    
C21   H1    S    
C50   C63   S    
N3    Ni1   S    
C42   C44   A    
C4    C7    S    
C17   N11   A    
N7    Ni3   S    
C12   N9    A    
C43   C46   A    
C3    O3    S    
N9    Ni2   S    
C47   C50   T    
N4    Ni2   S    
N6    N11   A    
C10   C66   S    
C40   C45   A    
C54   C56   A    
C51   N14   A    
C59   N6    A    
N3    N14   A    
C24   C25   T    
C3    C8    S    
C41   N13   A    
C12   C63   A    
C39   C43   A    
H14   O8    S    
H18   O12   S    
C33   C37   T    
C5    C64   S    
C15   C20   A    
C2    C4    S    
C41   C56   A    
H17   O11   S    
C36   C56   S    
N13   Ni4   S    
H15   O9    S    
C15   O9    S    
C1    I1    S    
C55   C64   A    
C66   O1    S    
H19   O2    S    
C53   O12   S    
C40   H26   S    
C9    C11   S    
C55   H3    S    
C60   N7    A    
N2    Ni1   S    
C48   C49   T    
C16   C23   A    
N15   Ni3   S    
C34   C59   A    
C3    C66   S    
C17   C34   A    
C4    C10   S    
C1    N1    A    
N12   N16   A    
C52   N15   A    
C8    O6    S    
C7    C9    S    
C57   N4    A    
H13   O7    S    
C49   C62   S    
C27   C32   A    
H9    O1    S    
C54   N2    A    
C28   C31   A    
C2    C8    S    
C51   C64   A    
C57   C65   A    
C10   C13   S    
N12   Ni3   S    
C16   I5    S    
C5    C11   T    
C39   C44   A    
C46   H24   S    
C61   H8    S    
C20   H12   S    
N11   Ni1   S    
C58   N5    A    
N1    Ni1   S    
C28   C30   A    
C19   C24   S    
C29   C31   A    
N2    N13   A    
C7    C66   S    
C30   C32   A    
C39   O11   S    
N16   Ni2   S    
C18   C20   A    
C42   C47   S    
C23   C25   S    
C27   H22   S    
C17   I6    S    
C44   H25   S    
C38   C46   A    
C52   C65   A    
C51   H28   S    
C2    O5    S    
C8    C10   S    
C22   C26   T    
H20   O3    S    
C12   I2    S    
C7    O7    S    
C2    C9    S    
C37   C45   S    
N14   Ni4   S    
H11   O6    S    
C6    C13   T    
