data_mof_unit_11303.cif
_audit_creation_date              2012-12-10T17:51:27-0500
_audit_creation_method            fapswitch 2.2
_symmetry_space_group_name_H-M    P1
_symmetry_Int_Tables_number       1
_space_group_crystal_system       triclinic
_cell_length_a                    14.716824
_cell_length_b                    14.798345
_cell_length_c                    17.194886
_cell_angle_alpha                 106.475308
_cell_angle_beta                  72.459385
_cell_angle_gamma                 115.168517
_cell_volume                      3178.81905684

loop_
_atom_site_label
_atom_site_type_symbol
_atom_type_description
_atom_site_fract_x
_atom_site_fract_y
_atom_site_fract_z
_atom_type_partial_charge
C1    C     C_R   0.118887 0.687931 0.512897 0.794432
C2    C     C_R   0.881291 0.311991 0.485027 0.801611
C3    C     C_R   0.186476 0.794880 0.513532 -0.053248
C4    C     C_R   0.814874 0.204264 0.471408 -0.053573
C5    C     C_R   0.214644 0.969342 0.517467 -0.200524
C6    C     C_R   0.790193 0.026266 0.434117 -0.201889
C7    C     C_R   0.147663 0.869692 0.522756 -0.196361
C8    C     C_R   0.855257 0.127800 0.446906 -0.194739
C9    C     C_R   0.292380 0.820760 0.499578 -0.253737
C10   C     C_R   0.709478 0.178302 0.481283 -0.256356
C11   C     C_R   0.361687 0.919471 0.490099 0.089725
C12   C     C_R   0.642752 0.076745 0.465975 0.089550
C13   C     C_R   0.321116 0.994822 0.501399 0.162587
C14   C     C_R   0.684316 0.000174 0.444553 0.165116
C15   C     C_R   0.469836 0.945562 0.471487 0.063862
C16   C     C_R   0.535602 0.049357 0.474299 0.064564
C17   C     C_R   0.492314 0.121987 0.483911 -0.221974
C18   C     C_R   0.514449 0.871268 0.448529 -0.223889
C19   C     C_R   0.387076 0.094712 0.496420 -0.229130
C20   C     C_R   0.619837 0.898404 0.434360 -0.228182
C21   C     C_R   0.293952 0.326445 0.363705 -0.321451
C22   C     C_R   0.705188 0.672448 0.637329 -0.320524
C23   C     C_R   0.989972 0.505304 0.653039 0.791483
C24   C     C_R   0.012320 0.498407 0.347219 0.789530
C25   C     C_R   0.211256 0.357389 0.384568 0.074346
C26   C     C_R   0.788347 0.642082 0.615916 0.079008
C27   C     C_R   0.286171 0.491305 0.488040 0.005014
C28   C     C_R   0.713674 0.508517 0.512136 0.009166
C29   C     C_R   0.373245 0.463942 0.469562 -0.023834
C30   C     C_R   0.626081 0.535216 0.531245 -0.022767
C31   C     C_R   0.374802 0.378924 0.406113 0.164704
C32   C     C_R   0.624278 0.619907 0.594990 0.163725
C33   C     C_R   0.457570 0.516564 0.511655 0.074801
C34   C     C_R   0.541535 0.482330 0.489412 0.079320
C35   C     C_R   0.537890 0.396310 0.426364 -0.241642
C36   C     C_R   0.460964 0.602269 0.575010 -0.232016
C37   C     C_R   0.456443 0.346178 0.385658 -0.203546
C38   C     C_R   0.542375 0.652322 0.615752 -0.198850
C39   C     C_R   0.989535 0.519476 0.740305 -0.016733
C40   C     C_R   0.027218 0.507446 0.261769 -0.018002
C41   C     C_R   0.017890 0.456859 0.767692 -0.211477
C42   C     C_R   0.943000 0.484075 0.227886 -0.212265
C43   C     C_R   0.021632 0.474098 0.850628 -0.145916
C44   C     C_R   0.958661 0.496975 0.147247 -0.143550
C45   C     C_R   0.002404 0.557639 0.906217 0.121470
C46   C     C_R   0.059003 0.538114 0.101007 0.124341
C47   C     C_R   0.970799 0.618047 0.878785 -0.153290
C48   C     C_R   0.142895 0.558522 0.134543 -0.156818
C49   C     C_R   0.963846 0.598736 0.796383 -0.207260
C50   C     C_R   0.127115 0.542884 0.214308 -0.204329
C51   C     C_2   0.010586 0.580198 0.993820 0.253928
C52   C     C_2   0.077532 0.555917 0.016296 0.254375
Cu1   Cu    Cu3+1 0.916740 0.524770 0.521640 0.937802
Cu2   Cu    Cu3+1 0.083260 0.475230 0.478360 0.934347
H1    H     H_    0.035818 0.394072 0.725204 0.146446
H2    H     H_    0.865367 0.454744 0.263367 0.141553
H3    H     H_    0.538031 0.200416 0.479399 0.142406
H4    H     H_    0.470272 0.790900 0.438328 0.146284
H5    H     H_    0.457287 0.280535 0.337588 0.142976
H6    H     H_    0.541465 0.717865 0.663887 0.144485
H7    H     H_    0.722684 0.446752 0.463415 0.119048
H8    H     H_    0.277438 0.553467 0.536400 0.123856
H9    H     H_    0.851165 0.683224 0.648109 0.119060
H10   H     H_    0.148404 0.316185 0.352421 0.126315
H11   H     H_    0.294346 0.261299 0.315004 0.137621
H12   H     H_    0.704458 0.737179 0.686410 0.136511
H13   H     H_    0.597039 0.365216 0.406929 0.127492
H14   H     H_    0.401604 0.633111 0.594739 0.133014
H15   H     H_    0.193131 0.561265 0.239787 0.152528
H16   H     H_    0.941540 0.647686 0.775855 0.139228
H17   H     H_    0.952932 0.681127 0.920601 0.149793
H18   H     H_    0.220761 0.587920 0.099661 0.150962
H19   H     H_    0.892107 0.474234 0.121272 0.174144
H20   H     H_    0.039297 0.421701 0.870902 0.175827
H21   H     H_    0.357104 0.152631 0.503261 0.151904
H22   H     H_    0.650875 0.839152 0.416766 0.147949
H23   H     H_    0.680613 0.238744 0.503434 0.152029
H24   H     H_    0.318956 0.762586 0.497690 0.147464
H25   H     H_    0.936772 0.146319 0.438401 0.152714
H26   H     H_    0.065854 0.851150 0.533412 0.154550
H27   H     H_    0.183255 0.026430 0.525332 0.134109
H28   H     H_    0.822551 0.968046 0.416586 0.133838
N1    N     N_R   0.208390 0.438070 0.445820 -0.177462
N2    N     N_R   0.791610 0.561930 0.554180 -0.175665
O1    O     O_R   0.020090 0.662480 0.528530 -0.590582
O2    O     O_R   0.979910 0.337520 0.471470 -0.589139
O3    O     O_R   0.160710 0.620650 0.491980 -0.591400
O4    O     O_R   0.839290 0.379350 0.508020 -0.588799
O5    O     O_R   0.921540 0.523360 0.633990 -0.581104
O6    O     O_R   0.078460 0.476640 0.366010 -0.585295
O7    O     O_R   0.062170 0.481520 0.597440 -0.583043
O8    O     O_R   0.937830 0.518480 0.402560 -0.582858
O9    O     O_3   0.159730 0.536886 0.958776 -0.628214
C53   C     C_3   0.235187 0.628927 0.935792 0.021830
H29   H     H_    0.258092 0.686405 0.991512 0.125402
H30   H     H_    0.206490 0.660205 0.900588 0.146641
C54   C     C_3   0.329668 0.608262 0.880261 -0.283859
H31   H     H_    0.359904 0.577952 0.914932 0.219592
H32   H     H_    0.307577 0.550273 0.824818 0.227014
C55   C     C_3   0.413917 0.704421 0.851928 -0.946224
H33   H     H_    0.386715 0.733666 0.814113 0.255043
H34   H     H_    0.482068 0.686993 0.813521 0.257440
H35   H     H_    0.437014 0.763790 0.906327 0.255839
O10   O     O_3   0.940180 0.616962 0.052833 -0.627491
C56   C     C_3   0.991854 0.718044 0.089472 0.026818
H36   H     H_    0.033721 0.767134 0.041438 0.126393
H37   H     H_    0.047474 0.721947 0.123284 0.143842
C57   C     C_3   0.912834 0.758657 0.151509 -0.290758
H38   H     H_    0.857458 0.756843 0.118600 0.219476
H39   H     H_    0.869731 0.709276 0.199041 0.225085
C58   C     C_3   0.963869 0.867240 0.194649 -0.942942
H40   H     H_    0.018091 0.870433 0.229358 0.256665
H41   H     H_    0.904324 0.894265 0.239138 0.256471
H42   H     H_    0.006139 0.918379 0.148432 0.256244

loop_
_geom_bond_atom_site_label_1
_geom_bond_atom_site_label_2
_ccdc_geom_bond_type
C1    O3    A    
C15   C18   A    
O9    C53   S    
C6    H28   S    
C29   C33   A    
C28   N2    A    
C58   H40   S    
C4    C8    A    
C54   H31   S    
C39   C41   A    
Cu1   Cu2   S    
C56   H37   S    
C22   C32   A    
Cu1   N2    S    
C35   C37   A    
C50   H15   S    
Cu2   O6    S    
C3    C7    A    
Cu2   O3    S    
C23   C39   S    
C27   C29   A    
C45   C51   S    
C15   C16   A    
C46   C52   S    
C33   C36   A    
C57   H38   S    
C20   H22   S    
C34   C35   A    
Cu2   N1    S    
C42   H2    S    
C11   C15   A    
C18   H4    S    
C22   H12   S    
C12   C16   A    
C16   C17   A    
C8    H25   S    
C23   O5    A    
C2    O4    A    
C32   C38   A    
C41   H1    S    
C58   H42   S    
C5    C13   A    
C28   H7    S    
C43   H20   S    
C40   C42   A    
C41   C43   A    
C53   H29   S    
C42   C44   A    
C48   H18   S    
C24   O8    A    
O10   C56   S    
C54   H32   S    
C10   H23   S    
C44   C46   A    
C45   C47   A    
C1    O1    A    
C56   C57   S    
C46   C48   A    
C30   C34   A    
C51   C52   D    
C14   C20   A    
C47   C49   A    
Cu2   O2    S    
C13   C19   A    
C17   C19   A    
C6    C8    A    
C53   C54   S    
C51   O10   S    
C55   H35   S    
C31   C37   A    
C1    C3    S    
C25   H10   S    
C2    C4    S    
C26   H9    S    
C3    C9    A    
C27   H8    S    
C6    C14   A    
C5    H27   S    
C35   H13   S    
C21   C31   A    
Cu1   O8    S    
C55   H34   S    
C33   C34   A    
C52   O9    S    
C58   H41   S    
C53   H30   S    
C9    C11   A    
C47   H17   S    
C37   H5    S    
C10   C12   A    
C38   H6    S    
C39   C49   A    
C12   C14   A    
C49   H16   S    
Cu1   O5    S    
C23   O7    A    
C4    C10   A    
C36   C38   A    
C54   C55   S    
C5    C7    A    
C21   C25   A    
C26   N2    A    
C21   H11   S    
C24   O6    A    
C36   H14   S    
C56   H36   S    
C57   C58   S    
C19   H21   S    
C28   C30   A    
C43   C45   A    
C30   C32   A    
C11   C13   A    
C40   C50   A    
C48   C50   A    
C55   H33   S    
C24   C40   S    
C57   H39   S    
C2    O2    A    
Cu1   O4    S    
C18   C20   A    
C9    H24   S    
C44   H19   S    
C27   N1    A    
Cu2   O7    S    
C29   C31   A    
C22   C26   A    
C25   N1    A    
Cu1   O1    S    
C17   H3    S    
C7    H26   S    
