data_mof_unit_62001.cif
_audit_creation_date              2012-12-10T19:17:25-0500
_audit_creation_method            fapswitch 2.2
_symmetry_space_group_name_H-M    P1
_symmetry_Int_Tables_number       1
_space_group_crystal_system       triclinic
_cell_length_a                    22.020572
_cell_length_b                    22.585934
_cell_length_c                    15.000193
_cell_angle_alpha                 89.856472
_cell_angle_beta                  90.645434
_cell_angle_gamma                 90.134053
_cell_volume                      7459.90708427

loop_
_atom_site_label
_atom_site_type_symbol
_atom_type_description
_atom_site_fract_x
_atom_site_fract_y
_atom_site_fract_z
_atom_type_partial_charge
C1    C     C_R   0.081228 0.419065 0.500138 0.907685
C2    C     C_1   0.836940 0.662447 0.497016 0.024948
C3    C     C_3   0.870046 0.735618 0.198515 -0.692354
C4    C     C_3   0.378080 0.773977 0.683857 0.093961
C5    C     C_3   0.445633 0.760126 0.685312 -0.773053
C6    C     C_3   0.403369 0.737920 0.379120 0.133687
C7    C     C_3   0.460084 0.701638 0.398171 -0.826390
C8    C     C_3   0.425865 0.277655 0.522367 0.103808
C9    C     C_3   0.474450 0.294719 0.455744 -0.759114
C10   C     C_3   0.317009 0.214354 0.254186 0.124577
C11   C     C_3   0.370045 0.235619 0.198513 -0.692356
C12   C     C_3   0.228097 0.736108 0.263892 -0.027334
C13   C     C_1   0.334200 0.839784 0.500592 0.015791
C14   C     C_3   0.187460 0.719684 0.185080 -0.693592
C15   C     C_3   0.209111 0.719116 0.746957 0.178694
C16   C     C_3   0.174909 0.761810 0.806222 -0.838101
C17   C     C_3   0.127209 0.284464 0.329991 0.034793
C18   C     C_3   0.091895 0.262762 0.248666 -0.771273
C19   C     C_3   0.223549 0.364077 0.676162 0.107663
C20   C     C_3   0.166330 0.346689 0.725477 -0.744297
C21   C     C_3   0.728097 0.236109 0.263892 -0.027333
C22   C     C_3   0.687460 0.219685 0.185081 -0.693593
C23   C     C_3   0.709113 0.219114 0.746957 0.178694
C24   C     C_1   0.336940 0.162448 0.497015 0.024942
C25   C     C_3   0.674911 0.261807 0.806223 -0.838100
C26   C     C_3   0.627208 0.784463 0.329991 0.034794
C27   C     C_3   0.591895 0.762762 0.248666 -0.771273
C28   C     C_3   0.723549 0.864079 0.676161 0.107662
C29   C     C_3   0.666330 0.846692 0.725476 -0.744293
C30   C     C_1   0.872439 0.376789 0.499722 -0.223192
C31   C     C_1   0.873852 0.624343 0.498517 -0.175551
C32   C     C_1   0.372439 0.876789 0.499722 -0.223191
C33   C     C_1   0.373853 0.124343 0.498516 -0.175553
C34   C     C_3   0.067360 0.483906 0.054192 0.246734
C35   C     C_3   0.063008 0.473662 0.948112 0.269323
C36   C     C_3   0.981963 0.565986 0.052979 0.262975
C37   C     C_R   0.080393 0.581580 0.500222 0.890064
C38   C     C_3   0.992145 0.568340 0.946696 0.236922
C39   C     C_3   0.567361 0.983906 0.054192 0.246734
C40   C     C_3   0.563009 0.973662 0.948112 0.269323
C41   C     C_3   0.481963 0.065986 0.052979 0.262975
C42   C     C_3   0.492145 0.068340 0.946696 0.236922
C43   C     C_3   0.002620 0.502981 0.090413 -0.032293
C44   C     C_3   0.002176 0.502967 0.909939 -0.036140
C45   C     C_3   0.502620 0.002981 0.090413 -0.032293
C46   C     C_3   0.502176 0.002967 0.909939 -0.036140
C47   C     C_3   0.948213 0.465863 0.948450 -0.448360
C48   C     C_R   0.581228 0.919065 0.500138 0.907685
C49   C     C_3   0.956764 0.456492 0.050945 -0.452536
C50   C     C_3   0.448213 0.965863 0.948450 -0.448360
C51   C     C_3   0.456764 0.956492 0.050945 -0.452536
C52   C     C_1   0.000636 0.501084 0.809136 0.205158
C53   C     C_1   0.000793 0.501298 0.190977 0.214842
C54   C     C_1   0.500636 0.001084 0.809136 0.205158
C55   C     C_1   0.500793 0.001298 0.190977 0.214843
C56   C     C_R   0.918316 0.419677 0.499806 0.891903
C57   C     C_R   0.918419 0.580349 0.499594 0.891063
C58   C     C_R   0.418316 0.919677 0.499806 0.891902
C59   C     C_R   0.580393 0.081580 0.500222 0.890063
C60   C     C_R   0.418419 0.080349 0.499594 0.891063
C61   C     C_3   0.790207 0.261308 0.594345 0.227054
C62   C     C_3   0.801550 0.249321 0.423590 0.199660
C63   C     C_3   0.820242 0.766552 0.538345 0.232390
C64   C     C_3   0.774470 0.723173 0.396046 0.373641
C65   C     C_3   0.290207 0.761308 0.594345 0.227056
C66   C     C_3   0.301550 0.749321 0.423591 0.199661
C67   C     C_3   0.320243 0.266553 0.538344 0.232387
C68   C     C_3   0.274471 0.223173 0.396045 0.373642
C69   C     C_3   0.247952 0.701726 0.416582 0.754993
C70   C     C_1   0.159081 0.666585 0.500633 0.162944
C71   C     C_3   0.239242 0.711361 0.595293 0.758934
C72   C     C_3   0.231816 0.279069 0.390681 0.726397
C73   C     C_3   0.268236 0.313979 0.550202 0.832578
C74   C     C_3   0.747952 0.201726 0.416582 0.754994
C75   C     C_3   0.739242 0.211360 0.595293 0.758935
C76   C     C_3   0.731815 0.779069 0.390681 0.726396
C77   C     C_3   0.768236 0.813979 0.550202 0.832575
C78   C     C_1   0.122630 0.627913 0.500633 -0.137965
C79   C     C_1   0.126362 0.375238 0.499063 -0.240158
C80   C     C_1   0.622630 0.127913 0.500633 -0.137964
C81   C     C_1   0.164747 0.338305 0.495061 -0.052231
C82   C     C_1   0.626362 0.875238 0.499063 -0.240159
C83   C     C_3   0.789209 0.293247 0.501592 0.063920
C84   C     C_3   0.793174 0.709866 0.494233 0.000822
C85   C     C_3   0.289208 0.793247 0.501592 0.063920
C86   C     C_3   0.293175 0.209866 0.494232 0.000820
C87   C     C_3   0.205958 0.711530 0.500333 0.015421
C88   C     C_3   0.211240 0.293055 0.490982 -0.019343
C89   C     C_3   0.705958 0.211530 0.500333 0.015422
C90   C     C_3   0.711240 0.793055 0.490982 -0.019344
C91   C     C_3   0.175862 0.773567 0.487341 -0.512731
C92   C     C_1   0.659081 0.166585 0.500633 0.162946
C93   C     C_3   0.185429 0.235173 0.533014 -0.533667
C94   C     C_3   0.675863 0.273568 0.487342 -0.512733
C95   C     C_3   0.685429 0.735173 0.533014 -0.533667
C96   C     C_3   0.725673 0.321611 0.486590 -0.616080
C97   C     C_3   0.736396 0.689651 0.545812 -0.593124
C98   C     C_3   0.225673 0.821612 0.486589 -0.616082
C99   C     C_3   0.236397 0.189652 0.545811 -0.593119
C100  C     C_3   0.309393 0.625359 0.596742 0.196108
C101  C     C_3   0.346799 0.608534 0.678916 -0.852561
C102  C     C_3   0.290909 0.619580 0.340823 0.197049
C103  C     C_1   0.664747 0.838305 0.495061 -0.052231
C104  C     C_3   0.320525 0.560037 0.358155 -0.916378
C105  C     C_3   0.337623 0.395270 0.569849 0.150555
C106  C     C_3   0.328360 0.461004 0.586089 -0.928348
C107  C     C_3   0.239176 0.369631 0.307076 0.178786
C108  C     C_3   0.286196 0.413379 0.273482 -0.781125
C109  C     C_3   0.809394 0.125358 0.596742 0.196110
C110  C     C_3   0.846800 0.108535 0.678916 -0.852562
C111  C     C_3   0.790909 0.119580 0.340822 0.197050
C112  C     C_3   0.820524 0.060037 0.358154 -0.916378
C113  C     C_3   0.837623 0.895270 0.569846 0.150555
C114  C     C_1   0.834200 0.339784 0.500592 0.015788
C115  C     C_3   0.828360 0.961005 0.586085 -0.928352
C116  C     C_3   0.739176 0.869631 0.307076 0.178787
C117  C     C_3   0.786196 0.913378 0.273481 -0.781126
C118  C     C_3   0.878080 0.273977 0.683856 0.093962
C119  C     C_3   0.945633 0.260125 0.685313 -0.773047
C120  C     C_3   0.903369 0.237920 0.379119 0.133687
C121  C     C_3   0.960084 0.201637 0.398168 -0.826392
C122  C     C_3   0.925865 0.777654 0.522372 0.103806
C123  C     C_3   0.974451 0.794703 0.455742 -0.759100
C124  C     C_3   0.817010 0.714353 0.254187 0.124576
H1    H     H_    0.803674 0.277830 0.363425 0.018843
H2    H     H_    0.724153 0.345565 0.421643 0.211153
H3    H     H_    0.449777 0.653724 0.390759 0.254682
H4    H     H_    0.496128 0.713876 0.350687 0.203512
H5    H     H_    0.476709 0.710164 0.467151 0.258048
H6    H     H_    0.431956 0.230139 0.539242 0.148920
H7    H     H_    0.432673 0.304245 0.583986 0.107197
H8    H     H_    0.470722 0.342475 0.438795 0.242736
H9    H     H_    0.520191 0.286106 0.484854 0.190944
H10   H     H_    0.468839 0.268147 0.393955 0.278095
H11   H     H_    0.274928 0.234649 0.226213 0.181501
H12   H     H_    0.313793 0.165310 0.249222 0.156191
H13   H     H_    0.747641 0.685005 0.618056 0.247427
H14   H     H_    0.412937 0.215853 0.224154 0.274392
H15   H     H_    0.363098 0.222410 0.127885 0.236622
H16   H     H_    0.373630 0.284621 0.202014 0.249827
H17   H     H_    0.275303 0.724150 0.246425 0.115282
H18   H     H_    0.224090 0.784681 0.273891 0.157153
H19   H     H_    0.139633 0.731684 0.199151 0.273185
H20   H     H_    0.202357 0.743816 0.124522 0.201039
H21   H     H_    0.190126 0.671365 0.172426 0.272420
H22   H     H_    0.258478 0.723947 0.761530 0.123901
H23   H     H_    0.194849 0.673237 0.764007 0.223325
H24   H     H_    0.720315 0.645588 0.521950 0.212616
H25   H     H_    0.125231 0.757140 0.794548 0.285122
H26   H     H_    0.185267 0.752018 0.877367 0.229408
H27   H     H_    0.188812 0.808041 0.791211 0.240945
H28   H     H_    0.126877 0.333366 0.327555 0.169560
H29   H     H_    0.102626 0.268465 0.389322 0.154925
H30   H     H_    0.086792 0.213860 0.251480 0.244463
H31   H     H_    0.046188 0.283448 0.246489 0.216288
H32   H     H_    0.116462 0.274581 0.186878 0.288120
H33   H     H_    0.211253 0.397657 0.625197 0.185361
H34   H     H_    0.254806 0.385732 0.724744 0.173907
H35   H     H_    0.216378 0.854733 0.539542 0.222725
H36   H     H_    0.177717 0.316904 0.782225 0.276558
H37   H     H_    0.144419 0.387253 0.750801 0.256353
H38   H     H_    0.133524 0.324236 0.680308 0.238796
H39   H     H_    0.775303 0.224150 0.246424 0.115282
H40   H     H_    0.724090 0.284681 0.273891 0.157153
H41   H     H_    0.639632 0.231685 0.199152 0.273185
H42   H     H_    0.702356 0.243816 0.124522 0.201039
H43   H     H_    0.690125 0.171366 0.172426 0.272420
H44   H     H_    0.758480 0.223944 0.761529 0.123902
H45   H     H_    0.694850 0.173235 0.764006 0.223325
H46   H     H_    0.224153 0.845565 0.421642 0.211153
H47   H     H_    0.625232 0.257138 0.794550 0.285122
H48   H     H_    0.685269 0.252015 0.877368 0.229408
H49   H     H_    0.688813 0.308039 0.791213 0.240945
H50   H     H_    0.626877 0.833365 0.327556 0.169559
H51   H     H_    0.602626 0.768464 0.389322 0.154925
H52   H     H_    0.586792 0.713859 0.251480 0.244463
H53   H     H_    0.546188 0.783447 0.246489 0.216288
H54   H     H_    0.616463 0.774580 0.186878 0.288119
H55   H     H_    0.711254 0.897658 0.625195 0.185361
H56   H     H_    0.754806 0.885733 0.724742 0.173907
H57   H     H_    0.247642 0.185005 0.618055 0.247428
H58   H     H_    0.677718 0.816908 0.782226 0.276558
H59   H     H_    0.644420 0.887256 0.750799 0.256353
H60   H     H_    0.633524 0.824237 0.680308 0.238797
H61   H     H_    0.220315 0.145588 0.521950 0.212615
H62   H     H_    0.142620 0.783328 0.540555 0.242238
H63   H     H_    0.148870 0.775909 0.424320 0.236203
H64   H     H_    0.163998 0.243618 0.598385 0.250675
H65   H     H_    0.775815 0.295903 0.643120 0.075081
H66   H     H_    0.149666 0.215344 0.489857 0.203036
H67   H     H_    0.642621 0.283328 0.540557 0.242238
H68   H     H_    0.648870 0.275909 0.424322 0.236203
H69   H     H_    0.663998 0.743618 0.598386 0.250675
H70   H     H_    0.649665 0.715345 0.489858 0.203037
H71   H     H_    0.973363 0.410823 0.063595 0.230713
H72   H     H_    0.942656 0.422481 0.914767 0.212850
H73   H     H_    0.912013 0.457899 0.084123 0.215322
H74   H     H_    0.904357 0.488676 0.935765 0.230537
H75   H     H_    0.473364 0.910823 0.063595 0.230713
H76   H     H_    0.748844 0.682923 0.373181 0.060576
H77   H     H_    0.442657 0.922481 0.914767 0.212850
H78   H     H_    0.412013 0.957899 0.084123 0.215321
H79   H     H_    0.404357 0.988676 0.935765 0.230537
H80   H     H_    0.337116 0.650951 0.550524 0.259086
H81   H     H_    0.297418 0.583796 0.561619 0.186341
H82   H     H_    0.321897 0.575106 0.718908 0.260302
H83   H     H_    0.390919 0.589530 0.658345 0.213145
H84   H     H_    0.355517 0.647877 0.721235 0.274651
H85   H     H_    0.325219 0.648513 0.309420 0.138973
H86   H     H_    0.251972 0.612162 0.294326 0.199075
H87   H     H_    0.836982 0.754246 0.606723 0.075165
H88   H     H_    0.286498 0.529041 0.386209 0.264393
H89   H     H_    0.337821 0.541669 0.294744 0.228190
H90   H     H_    0.359055 0.565072 0.405996 0.257162
H91   H     H_    0.378805 0.391867 0.528382 0.199396
H92   H     H_    0.346752 0.372747 0.634671 0.131110
H93   H     H_    0.288713 0.468987 0.629228 0.253125
H94   H     H_    0.369410 0.479795 0.619140 0.223839
H95   H     H_    0.321114 0.483890 0.521473 0.267375
H96   H     H_    0.206645 0.394516 0.348570 0.149078
H97   H     H_    0.216531 0.350202 0.247365 0.190318
H98   H     H_    0.303674 0.777830 0.363425 0.018842
H99   H     H_    0.317290 0.391030 0.226540 0.251380
H100  H     H_    0.263284 0.450634 0.238364 0.230013
H101  H     H_    0.313291 0.430900 0.330460 0.271357
H102  H     H_    0.837117 0.150951 0.550523 0.259085
H103  H     H_    0.797420 0.083795 0.561619 0.186340
H104  H     H_    0.821898 0.075106 0.718907 0.260300
H105  H     H_    0.890920 0.089531 0.658345 0.213146
H106  H     H_    0.855517 0.147877 0.721236 0.274651
H107  H     H_    0.825219 0.148513 0.309419 0.138973
H108  H     H_    0.751972 0.112162 0.294325 0.199075
H109  H     H_    0.275814 0.795904 0.643119 0.075080
H110  H     H_    0.786497 0.029041 0.386207 0.264394
H111  H     H_    0.837820 0.041669 0.294742 0.228190
H112  H     H_    0.859054 0.065072 0.405994 0.257162
H113  H     H_    0.878806 0.891867 0.528379 0.199396
H114  H     H_    0.846753 0.872748 0.634669 0.131109
H115  H     H_    0.788714 0.968988 0.629224 0.253126
H116  H     H_    0.869411 0.979795 0.619136 0.223839
H117  H     H_    0.821115 0.983889 0.521470 0.267376
H118  H     H_    0.706645 0.894516 0.348569 0.149078
H119  H     H_    0.716530 0.850201 0.247364 0.190318
H120  H     H_    0.248844 0.182923 0.373181 0.060576
H121  H     H_    0.817289 0.891029 0.226540 0.251380
H122  H     H_    0.763284 0.950634 0.238363 0.230013
H123  H     H_    0.813291 0.930899 0.330460 0.271356
H124  H     H_    0.858735 0.262152 0.749634 0.125369
H125  H     H_    0.873014 0.322476 0.672923 0.148288
H126  H     H_    0.966001 0.272622 0.620484 0.250183
H127  H     H_    0.968551 0.285601 0.739308 0.222975
H128  H     H_    0.952880 0.212106 0.697272 0.248743
H129  H     H_    0.914728 0.285499 0.387902 0.150920
H130  H     H_    0.888931 0.230190 0.308797 0.103282
H131  H     H_    0.336983 0.254246 0.606722 0.075165
H132  H     H_    0.949776 0.153723 0.390754 0.254682
H133  H     H_    0.996127 0.213876 0.350684 0.203513
H134  H     H_    0.976709 0.210163 0.467149 0.258047
H135  H     H_    0.931953 0.730140 0.539263 0.148909
H136  H     H_    0.932675 0.804252 0.583982 0.107198
H137  H     H_    0.970724 0.842456 0.438773 0.242749
H138  H     H_    0.020192 0.786096 0.484856 0.190940
H139  H     H_    0.968839 0.768120 0.393965 0.278089
H140  H     H_    0.774929 0.734648 0.226214 0.181501
H141  H     H_    0.813794 0.665309 0.249223 0.156191
H142  H     H_    0.716379 0.354733 0.539543 0.222725
H143  H     H_    0.912937 0.715853 0.224155 0.274390
H144  H     H_    0.863098 0.722410 0.127887 0.236622
H145  H     H_    0.873630 0.784620 0.202016 0.249828
H146  H     H_    0.358736 0.762150 0.749635 0.125370
H147  H     H_    0.373013 0.822476 0.672926 0.148287
H148  H     H_    0.466000 0.772628 0.620486 0.250181
H149  H     H_    0.468550 0.785598 0.739312 0.222975
H150  H     H_    0.452880 0.712106 0.697263 0.248747
H151  H     H_    0.414728 0.785500 0.387903 0.150919
H152  H     H_    0.388932 0.730190 0.308798 0.103282
I1    I     I_    0.145028 0.496437 0.874991 -0.293662
I2    I     I_    0.917795 0.610994 0.872897 -0.301874
I3    I     I_    0.100925 0.407081 0.128350 -0.394977
I4    I     I_    0.062011 0.379739 0.909448 -0.406969
I5    I     I_    0.387451 0.080001 0.093478 -0.392579
I6    I     I_    0.417795 0.110993 0.872897 -0.301874
I7    I     I_    0.600925 0.907081 0.128350 -0.394977
I8    I     I_    0.562011 0.879739 0.909448 -0.406969
I9    I     I_    0.139651 0.543463 0.096966 -0.290335
I10   I     I_    0.063046 0.629087 0.904539 -0.269585
I11   I     I_    0.017793 0.641672 0.127006 -0.298081
I12   I     I_    0.645028 0.996438 0.874991 -0.293664
I13   I     I_    0.639651 0.043463 0.096966 -0.290335
I14   I     I_    0.563045 0.129087 0.904539 -0.269585
I15   I     I_    0.517792 0.141672 0.127006 -0.298079
I16   I     I_    0.887451 0.580001 0.093478 -0.392579
N1    N     N_1   0.999850 0.500000 0.731150 -0.070440
N2    N     N_1   0.999850 0.500000 0.268850 -0.069177
N3    N     N_1   0.499850 0.000000 0.731150 -0.070439
N4    N     N_1   0.499850 1.000000 0.268850 -0.069177
O1    O     O_R   0.061440 0.438650 0.574260 -0.603518
O2    O     O_R   0.938580 0.438650 0.425740 -0.619523
O3    O     O_R   0.938580 0.561350 0.574260 -0.604565
O4    O     O_R   0.938580 0.561350 0.425740 -0.596772
O5    O     O_R   0.438580 0.938650 0.574260 -0.615132
O6    O     O_R   0.438580 0.938650 0.425740 -0.619523
O7    O     O_R   0.438580 0.061350 0.574260 -0.604564
O8    O     O_R   0.438580 0.061350 0.425740 -0.596771
O9    O     O_3   0.254768 0.652067 0.623442 -0.646809
O10   O     O_3   0.270919 0.642915 0.422713 -0.651821
O11   O     O_3   0.287204 0.371831 0.521426 -0.604514
O12   O     O_R   0.061440 0.438650 0.425740 -0.613237
O13   O     O_3   0.269293 0.326041 0.358140 -0.550373
O14   O     O_3   0.754769 0.152066 0.623440 -0.646809
O15   O     O_3   0.770919 0.142915 0.422712 -0.651818
O16   O     O_3   0.787205 0.871831 0.521424 -0.604513
O17   O     O_3   0.769293 0.826040 0.358140 -0.550374
O18   O     O_3   0.849448 0.240350 0.615800 -0.591731
O19   O     O_3   0.857846 0.220111 0.439142 -0.578664
O20   O     O_3   0.867890 0.788996 0.484316 -0.540724
O21   O     O_3   0.827445 0.731066 0.343682 -0.535220
O22   O     O_3   0.349447 0.740351 0.615800 -0.591729
O23   O     O_R   0.061440 0.561350 0.574260 -0.593423
O24   O     O_3   0.357846 0.720111 0.439143 -0.578662
O25   O     O_3   0.367890 0.288998 0.484313 -0.540721
O26   O     O_3   0.327445 0.231066 0.343681 -0.535221
O27   O     O_3   0.207389 0.705897 0.340407 -0.640190
O28   O     O_3   0.194184 0.731159 0.656516 -0.658921
O29   O     O_3   0.186493 0.260890 0.326102 -0.695152
O30   O     O_3   0.252364 0.312664 0.642940 -0.682741
O31   O     O_3   0.707389 0.205897 0.340407 -0.640191
O32   O     O_3   0.694185 0.231158 0.656517 -0.658920
O33   O     O_3   0.686493 0.760890 0.326102 -0.695152
O34   O     O_R   0.061440 0.561350 0.425740 -0.589819
O35   O     O_3   0.752364 0.812665 0.642940 -0.682741
O36   O     O_R   0.561440 0.938650 0.574260 -0.603518
O37   O     O_R   0.561440 0.938650 0.425740 -0.613237
O38   O     O_R   0.561440 0.061350 0.574260 -0.593423
O39   O     O_R   0.561440 0.061350 0.425740 -0.589818
O40   O     O_R   0.938580 0.438650 0.574260 -0.615133
Zn1   Zn    Zn3+2 0.000010 0.500000 0.599130 1.009554
Zn2   Zn    Zn3+2 0.000010 0.500000 0.400870 1.010413
Zn3   Zn    Zn3+2 0.500010 0.000000 0.599130 1.009554
Zn4   Zn    Zn3+2 0.500010 1.000000 0.400870 1.010414

loop_
_geom_bond_atom_site_label_1
_geom_bond_atom_site_label_2
_ccdc_geom_bond_type
C48   O37   A    
C62   C83   S    
C42   I14   S    
C21   H39   S    
C87   C91   S    
C19   C20   S    
C66   H98   S    
C57   O4    A    
C17   H29   S    
C66   C85   S    
C109  H103  S    
C90   C95   S    
C93   H66   S    
C65   O22   S    
C40   C46   S    
O23   Zn1   S    
C105  H91   S    
C123  H137  S    
O4    Zn2   S    
C108  H100  S    
C118  H124  S    
C9    H8    S    
C124  H140  S    
C6    O24   S    
C34   I9    S    
C34   C35   S    
C89   C94   S    
C64   C84   S    
C68   O26   S    
C101  H83   S    
C42   I6    S    
C115  H117  S    
C75   O14   S    
O38   Zn3   S    
C76   O17   S    
C47   H74   S    
C16   H25   S    
C7    H4    S    
C56   O40   A    
C121  H134  S    
C25   H47   S    
C106  H95   S    
C21   C22   S    
C61   H65   S    
C83   C114  S    
C41   I15   S    
C96   H142  S    
C1    O12   A    
C116  H118  S    
C35   I4    S    
C119  H126  S    
O40   Zn1   S    
C49   H71   S    
C72   O29   S    
C30   C56   S    
C40   I12   S    
O8    Zn4   S    
C80   C92   T    
C11   H16   S    
C73   C88   S    
C68   C72   S    
C94   C96   S    
C86   C99   S    
C28   H56   S    
C105  O11   S    
C61   O18   S    
C91   H62   S    
C67   H131  S    
C64   H76   S    
C1    C79   S    
C5    H149  S    
C4    O22   S    
C99   H61   S    
C18   H32   S    
C74   O31   S    
C1    O1    A    
C124  O21   S    
C3    H144  S    
C102  H86   S    
C4    C5    S    
C59   C80   S    
C95   C97   S    
C6    C7    S    
C112  H111  S    
C37   C78   S    
C63   C84   S    
C31   C57   S    
C110  H104  S    
C115  H115  S    
C16   H27   S    
C91   C98   S    
C81   C88   S    
C22   H42   S    
C25   H49   S    
C122  H135  S    
C106  H93   S    
C20   H36   S    
C13   C85   S    
C41   C45   S    
C113  C115  S    
C9    H9    S    
C39   I13   S    
C111  H107  S    
C13   C32   T    
C111  C112  S    
O2    Zn2   S    
C27   H54   S    
C49   H73   S    
C117  H122  S    
C11   H14   S    
C12   H17   S    
C120  H129  S    
C74   O15   S    
C48   C82   S    
C107  C108  S    
O7    Zn3   S    
C69   O10   S    
C110  H106  S    
C18   H30   S    
C51   H78   S    
C39   C45   S    
C44   C52   S    
N1    Zn1   S    
C70   C87   S    
C97   H13   S    
C72   O13   S    
C60   O8    A    
C29   H58   S    
C58   O5    A    
C10   H11   S    
C39   C40   S    
C19   O30   S    
C107  H96   S    
C6    H151  S    
C119  H127  S    
C23   H45   S    
C20   H38   S    
C8    H7    S    
C17   C18   S    
C27   H52   S    
C96   H2    S    
O12   Zn2   S    
O6    Zn4   S    
C100  O9    S    
C113  H114  S    
C95   H70   S    
C104  H88   S    
C73   O11   S    
C53   N2    T    
C120  C121  S    
C38   I10   S    
C91   H63   S    
C40   I8    S    
C5    H148  S    
C19   H34   S    
C34   C43   S    
C63   H87   S    
C57   O3    A    
C15   H22   S    
C100  H81   S    
C102  H85   S    
C3    H145  S    
C76   O33   S    
C107  O13   S    
C112  H110  S    
C83   C96   S    
C100  C101  S    
C12   O27   S    
C99   H57   S    
C10   C11   S    
C75   C89   S    
C98   H46   S    
C93   H64   S    
C69   O27   S    
C45   C55   S    
C21   H40   S    
C16   H26   S    
C7    H3    S    
C24   C86   S    
C121  H133  S    
C34   I3    S    
C29   H60   S    
C41   C42   S    
C2    C84   S    
C32   C58   S    
C50   H79   S    
C14   H21   S    
C26   C27   S    
C84   C97   S    
C65   H109  S    
C28   C29   S    
C104  H89   S    
O39   Zn4   S    
C108  H101  S    
C26   H50   S    
C123  H138  S    
C124  H141  S    
C42   C46   S    
C11   H15   S    
C94   H67   S    
C67   O25   S    
C43   C53   S    
C62   O19   S    
C109  O14   S    
C67   C73   S    
C52   N1    T    
C29   H59   S    
C93   C99   S    
C69   C87   S    
C4    H147  S    
C111  O15   S    
C118  O18   S    
C105  H92   S    
C75   O32   S    
C15   O28   S    
O36   Zn3   S    
C14   H20   S    
C102  O10   S    
C77   C90   S    
C3    H143  S    
C47   H72   S    
C61   C83   S    
C108  H99   S    
C112  H112  S    
C28   O35   S    
C38   C44   S    
C101  H84   S    
C116  O17   S    
C109  H102  S    
C46   C54   S    
C50   C51   S    
C58   O6    A    
C71   C87   S    
C22   H43   S    
C25   H48   S    
C122  H136  S    
C106  H94   S    
C33   C60   S    
C8    H6    S    
C17   H28   S    
C3    C124  S    
C30   C114  T    
C50   H77   S    
C14   H19   S    
C67   C86   S    
C27   H53   S    
C118  H125  S    
C62   H1    S    
C117  H121  S    
C105  C106  S    
C24   C33   T    
C36   C38   S    
C8    O25   S    
C109  C110  S    
C15   H23   S    
C100  H80   S    
C59   O38   A    
C37   O23   A    
C12   H18   S    
C10   O26   S    
C28   H55   S    
C120  H130  S    
C90   C103  S    
C7    H5    S    
C104  H90   S    
C23   H44   S    
C62   C74   S    
C36   C43   S    
C5    H150  S    
C36   I11   S    
C18   H31   S    
C76   C90   S    
C66   O24   S    
C70   C78   T    
C68   C86   S    
N4    Zn4   S    
C37   O34   A    
C71   O9    S    
C47   C49   S    
C61   C75   S    
C17   O29   S    
C71   O28   S    
C77   O35   S    
C74   C89   S    
C110  H105  S    
C10   H12   S    
C41   I5    S    
C115  H116  S    
C66   C69   S    
C45   C51   S    
C15   C16   S    
C116  C117  S    
C63   O20   S    
C118  C119  S    
C85   C98   S    
C22   H41   S    
C23   O32   S    
C38   I2    S    
C123  H139  S    
C8    C9    S    
C82   C103  T    
C44   C47   S    
C54   N3    T    
C9    H10   S    
C113  H113  S    
C116  H119  S    
C95   H69   S    
N2    Zn2   S    
C111  H108  S    
O5    Zn3   S    
O34   Zn2   S    
C72   C88   S    
C117  H123  S    
C4    H146  S    
C113  O16   S    
C19   H33   S    
C120  O19   S    
C101  H82   S    
C39   I7    S    
C79   C81   T    
C43   C49   S    
O37   Zn4   S    
C56   O2    A    
C65   C71   S    
C2    C31   T    
C48   O36   A    
O1    Zn1   S    
C64   C76   S    
C89   C92   S    
C102  C104  S    
C35   C44   S    
C51   H75   S    
C55   N4    T    
C21   O31   S    
O3    Zn1   S    
C97   H24   S    
C26   O33   S    
C6    H152  S    
C121  H132  S    
C63   C77   S    
C36   I16   S    
C60   O7    A    
C88   C93   S    
C35   I1    S    
C65   C85   S    
C46   C50   S    
C122  O20   S    
C64   O21   S    
C12   C14   S    
N3    Zn3   S    
C119  H128  S    
C73   O30   S    
C26   H51   S    
C68   H120  S    
C20   H37   S    
C23   C25   S    
C94   H68   S    
C77   O16   S    
C98   H35   S    
C59   O39   A    
C122  C123  S    
C107  H97   S    
