data_mof_unit_62022.cif
_audit_creation_date              2012-12-10T19:52:07-0500
_audit_creation_method            fapswitch 2.2
_symmetry_space_group_name_H-M    P1
_symmetry_Int_Tables_number       1
_space_group_crystal_system       triclinic
_cell_length_a                    26.050171
_cell_length_b                    26.051704
_cell_length_c                    22.199
_cell_angle_alpha                 89.999935
_cell_angle_beta                  125.915844
_cell_angle_gamma                 90.000049
_cell_volume                      12201.1427791

loop_
_atom_site_label
_atom_site_type_symbol
_atom_type_description
_atom_site_fract_x
_atom_site_fract_y
_atom_site_fract_z
_atom_type_partial_charge
C1    C     C_R   0.650291 0.750000 0.300603 0.822101
C2    C     C_3   0.500184 0.797203 0.024792 -0.158233
C3    C     C_R   0.258113 0.525970 0.453916 0.064467
C4    C     C_R   0.748653 0.945533 0.499512 -0.075668
C5    C     C_R   0.748651 0.054467 0.499510 -0.075668
C6    C     C_R   0.248653 0.445533 0.499512 -0.075668
C7    C     C_R   0.248651 0.554467 0.499510 -0.075668
C8    C     C_R   0.737595 0.973014 0.545744 -0.216740
C9    C     C_R   0.737595 0.026986 0.545744 -0.216743
C10   C     C_R   0.237595 0.473014 0.545744 -0.216741
C11   C     C_R   0.237595 0.526986 0.545744 -0.216741
C12   C     C_3   0.773933 0.029856 0.399424 -0.269594
C13   C     C_3   0.999137 0.703080 0.024792 -0.158333
C14   C     C_3   0.773938 0.970144 0.399429 -0.269595
C15   C     C_3   0.273933 0.529856 0.399424 -0.269593
C16   C     C_3   0.273938 0.470144 0.399429 -0.269596
C17   C     C_R   0.610029 0.750013 0.500071 0.806827
C18   C     C_R   0.610029 0.249986 0.500070 0.806828
C19   C     C_R   0.110029 0.250013 0.500071 0.806827
C20   C     C_R   0.110029 0.749986 0.500070 0.806828
C21   C     C_R   0.749859 0.889973 0.499930 0.805092
C22   C     C_R   0.749858 0.110027 0.499929 0.805092
C23   C     C_R   0.249859 0.389973 0.499930 0.805091
C24   C     C_3   0.000081 0.297177 0.024792 -0.158243
C25   C     C_R   0.249858 0.610027 0.499929 0.805092
C26   C     C_R   0.750042 0.609998 0.500078 0.805879
C27   C     C_R   0.750042 0.390002 0.500077 0.805880
C28   C     C_R   0.250042 0.109998 0.500078 0.805879
C29   C     C_R   0.250042 0.890002 0.500077 0.805879
C30   C     C_R   0.695663 0.525899 0.456401 0.132838
C31   C     C_R   0.695663 0.474101 0.456399 0.132842
C32   C     C_R   0.195663 0.025899 0.456401 0.132838
C33   C     C_R   0.195663 0.974101 0.456399 0.132842
C34   C     C_R   0.750810 0.554446 0.500574 -0.083454
C35   C     C_3   0.940435 0.737939 0.975263 -0.164618
C36   C     C_R   0.750810 0.445554 0.500572 -0.083455
C37   C     C_R   0.250810 0.054446 0.500574 -0.083454
C38   C     C_R   0.250810 0.945554 0.500572 -0.083455
C39   C     C_R   0.808185 0.526992 0.546436 -0.225526
C40   C     C_R   0.808185 0.473008 0.546435 -0.225524
C41   C     C_R   0.308185 0.026992 0.546436 -0.225527
C42   C     C_R   0.308186 0.973008 0.546435 -0.225524
C43   C     C_1   0.722848 0.055028 0.329839 0.264899
C44   C     C_1   0.722859 0.944964 0.329848 0.264925
C45   C     C_1   0.222848 0.555028 0.329839 0.264900
C46   C     C_3   0.940685 0.263007 0.975264 -0.164645
C47   C     C_1   0.222859 0.444964 0.329848 0.264924
C48   C     C_3   0.440403 0.238063 0.975263 -0.164612
C49   C     C_3   0.440713 0.763109 0.975264 -0.164647
C50   C     C_1   0.889408 0.749958 0.778919 -0.143971
C51   C     C_1   0.889408 0.250042 0.778919 -0.143972
C52   C     C_1   0.389408 0.249958 0.778919 -0.143971
C53   C     C_R   0.650291 0.250000 0.300603 0.822098
C54   C     C_1   0.389408 0.750042 0.778919 -0.143972
C55   C     C_1   0.610527 0.249953 0.221100 -0.138924
C56   C     C_1   0.610527 0.750047 0.221100 -0.138921
C57   C     C_1   0.110527 0.749953 0.221100 -0.138924
C58   C     C_1   0.110527 0.250047 0.221100 -0.138921
C59   C     C_3   0.021499 0.715041 0.975220 -0.158605
C60   C     C_3   0.022192 0.284270 0.975219 -0.158690
C61   C     C_3   0.521408 0.214952 0.975221 -0.158598
C62   C     C_3   0.522267 0.784194 0.975219 -0.158702
C63   C     C_3   0.963451 0.749901 0.927000 0.201195
C64   C     C_R   0.150291 0.250000 0.300603 0.822101
C65   C     C_3   0.963450 0.250099 0.927000 0.201218
C66   C     C_3   0.463451 0.249901 0.926999 0.201193
C67   C     C_3   0.463451 0.750099 0.927000 0.201221
C68   C     C_3   0.559531 0.261725 0.024771 -0.163221
C69   C     C_3   0.559222 0.737103 0.024770 -0.163412
C70   C     C_3   0.059500 0.761849 0.024770 -0.163243
C71   C     C_3   0.059249 0.237205 0.024769 -0.163397
C72   C     C_3   0.536482 0.249889 0.073032 0.200907
C73   C     C_3   0.536483 0.750111 0.073031 0.200895
C74   C     C_3   0.036482 0.749889 0.073031 0.200905
C75   C     C_R   0.150291 0.750000 0.300603 0.822098
C76   C     C_3   0.036483 0.250111 0.073031 0.200896
C77   C     C_3   0.000800 0.796708 0.975245 -0.163818
C78   C     C_3   0.999856 0.203036 0.975246 -0.163729
C79   C     C_3   0.500923 0.296673 0.975245 -0.163830
C80   C     C_3   0.499754 0.703009 0.975246 -0.163719
C81   C     C_R   0.849668 0.749978 0.699407 0.820145
C82   C     C_R   0.849668 0.250022 0.699407 0.820148
C83   C     C_R   0.349668 0.249977 0.699407 0.820145
C84   C     C_R   0.349668 0.750022 0.699407 0.820148
C85   C     C_3   0.478527 0.284836 0.024811 -0.162521
C86   C     C_3   0.625630 0.470428 0.400919 -0.477944
C87   C     C_3   0.477668 0.716018 0.024813 -0.162478
C88   C     C_3   0.978436 0.784747 0.024811 -0.162512
C89   C     C_3   0.977742 0.215943 0.024813 -0.162481
C90   C     C_1   0.922840 0.749930 0.845789 -0.085740
C91   C     C_1   0.922840 0.250070 0.845789 -0.085742
C92   C     C_1   0.422840 0.249930 0.845789 -0.085739
C93   C     C_1   0.422840 0.750070 0.845789 -0.085742
C94   C     C_1   0.577090 0.249913 0.154236 -0.082569
C95   C     C_1   0.577090 0.750087 0.154236 -0.082573
C96   C     C_1   0.077090 0.749913 0.154236 -0.082570
C97   C     C_3   0.625630 0.529572 0.400922 -0.477943
C98   C     C_1   0.077091 0.250087 0.154236 -0.082573
C99   C     C_R   0.504091 0.717455 0.456425 0.132749
C100  C     C_R   0.504088 0.282540 0.456418 0.132746
C101  C     C_R   0.004091 0.217455 0.456425 0.132749
C102  C     C_R   0.004088 0.782540 0.456418 0.132747
C103  C     C_R   0.554716 0.750535 0.500568 -0.083337
C104  C     C_R   0.554717 0.249466 0.500569 -0.083339
C105  C     C_R   0.054717 0.250535 0.500568 -0.083337
C106  C     C_R   0.054717 0.749466 0.500569 -0.083339
C107  C     C_R   0.550174 0.785006 0.546400 -0.225530
C108  C     C_3   0.125630 0.970428 0.400919 -0.477944
C109  C     C_R   0.550181 0.215002 0.546413 -0.225523
C110  C     C_R   0.050174 0.285006 0.546400 -0.225530
C111  C     C_R   0.050181 0.715002 0.546413 -0.225523
C112  C     C_R   0.496185 0.785017 0.546397 -0.225585
C113  C     C_R   0.496192 0.214991 0.546411 -0.225580
C114  C     C_R   0.996185 0.285017 0.546397 -0.225585
C115  C     C_R   0.996192 0.714991 0.546411 -0.225580
C116  C     C_R   0.445807 0.750561 0.500558 -0.082928
C117  C     C_R   0.445809 0.249441 0.500562 -0.082930
C118  C     C_R   0.945807 0.250561 0.500558 -0.082928
C119  C     C_3   0.125630 0.029572 0.400922 -0.477943
C120  C     C_R   0.945809 0.749441 0.500562 -0.082931
C121  C     C_R   0.452283 0.717474 0.456413 0.131823
C122  C     C_R   0.452281 0.282523 0.456409 0.131818
C123  C     C_R   0.952283 0.217474 0.456413 0.131824
C124  C     C_R   0.952281 0.782524 0.456409 0.131818
C125  C     C_3   0.420870 0.675163 0.400957 -0.475832
C126  C     C_3   0.420859 0.324823 0.400934 -0.475824
C127  C     C_3   0.920870 0.175163 0.400957 -0.475833
C128  C     C_3   0.920860 0.824823 0.400934 -0.475824
C129  C     C_R   0.890001 0.749952 0.500065 0.804280
C130  C     C_3   0.499014 0.203115 0.024792 -0.158346
C131  C     C_R   0.890001 0.250049 0.500064 0.804280
C132  C     C_R   0.390001 0.249952 0.500065 0.804280
C133  C     C_R   0.390001 0.750049 0.500064 0.804280
C134  C     C_3   0.480029 0.675134 0.400976 -0.477979
C135  C     C_3   0.480016 0.324849 0.400949 -0.477968
C136  C     C_3   0.980029 0.175134 0.400976 -0.477978
C137  C     C_3   0.980016 0.824849 0.400949 -0.477970
C138  C     C_R   0.758115 0.974030 0.453918 0.064465
C139  C     C_R   0.758113 0.025970 0.453916 0.064467
C140  C     C_R   0.258115 0.474030 0.453918 0.064465
H1    H     H_    0.852918 0.546937 0.582194 0.177774
H2    H     H_    0.494116 0.188120 0.582153 0.177656
H3    H     H_    0.994106 0.311892 0.582132 0.177651
H4    H     H_    0.994117 0.688120 0.582153 0.177655
H5    H     H_    0.415829 0.639769 0.425046 0.202241
H6    H     H_    0.415814 0.360223 0.425010 0.202242
H7    H     H_    0.915828 0.139769 0.425046 0.202241
H8    H     H_    0.915814 0.860223 0.425010 0.202242
H9    H     H_    0.377100 0.688180 0.347514 0.210717
H10   H     H_    0.377090 0.311797 0.347497 0.210725
H11   H     H_    0.877100 0.188180 0.347514 0.210716
H12   H     H_    0.852918 0.453063 0.582193 0.177775
H13   H     H_    0.877090 0.811797 0.347497 0.210726
H14   H     H_    0.509119 0.639726 0.425091 0.202870
H15   H     H_    0.509098 0.360262 0.425044 0.202876
H16   H     H_    0.009119 0.139726 0.425091 0.202870
H17   H     H_    0.009098 0.860262 0.425044 0.202876
H18   H     H_    0.470400 0.688126 0.347540 0.209730
H19   H     H_    0.470384 0.311845 0.347516 0.209734
H20   H     H_    0.970400 0.188126 0.347540 0.209730
H21   H     H_    0.970384 0.811845 0.347516 0.209733
H22   H     H_    0.729410 0.953085 0.582209 0.174685
H23   H     H_    0.352918 0.046937 0.582194 0.177774
H24   H     H_    0.729410 0.046915 0.582208 0.174684
H25   H     H_    0.229410 0.453085 0.582209 0.174685
H26   H     H_    0.229410 0.546915 0.582208 0.174684
H27   H     H_    0.821413 0.047086 0.424242 0.145385
H28   H     H_    0.821421 0.952919 0.424252 0.145379
H29   H     H_    0.321413 0.547086 0.424242 0.145385
H30   H     H_    0.321421 0.452919 0.424252 0.145379
H31   H     H_    0.611944 0.453363 0.347487 0.209082
H32   H     H_    0.611943 0.546641 0.347492 0.209091
H33   H     H_    0.111944 0.953363 0.347487 0.209082
H34   H     H_    0.352918 0.953063 0.582193 0.177775
H35   H     H_    0.111943 0.046641 0.347492 0.209091
H36   H     H_    0.602257 0.453369 0.424999 0.203156
H37   H     H_    0.602258 0.546628 0.425006 0.203153
H38   H     H_    0.102257 0.953369 0.424999 0.203156
H39   H     H_    0.102259 0.046628 0.425006 0.203153
H40   H     H_    0.890995 0.728117 0.953881 0.133769
H41   H     H_    0.891451 0.273607 0.953883 0.133752
H42   H     H_    0.390937 0.228343 0.953879 0.133772
H43   H     H_    0.391502 0.773792 0.953882 0.133750
H44   H     H_    0.498763 0.164676 0.046202 0.138255
H45   H     H_    0.587988 0.811874 0.582135 0.177674
H46   H     H_    0.500893 0.835902 0.046202 0.138420
H47   H     H_    0.998986 0.664613 0.046203 0.138272
H48   H     H_    0.000706 0.335854 0.046202 0.138405
H49   H     H_    0.461434 0.313548 0.046232 0.134070
H50   H     H_    0.459869 0.688008 0.046236 0.134077
H51   H     H_    0.961267 0.813386 0.046233 0.134070
H52   H     H_    0.960005 0.187871 0.046237 0.134076
H53   H     H_    0.000962 0.835176 0.953847 0.132804
H54   H     H_    0.999243 0.164357 0.953848 0.132830
H55   H     H_    0.501185 0.335113 0.953849 0.132801
H56   H     H_    0.587998 0.188138 0.582156 0.177677
H57   H     H_    0.499056 0.664308 0.953849 0.132833
H58   H     H_    0.608999 0.271443 0.046159 0.133317
H59   H     H_    0.608434 0.726421 0.046156 0.133249
H60   H     H_    0.108941 0.771670 0.046157 0.133309
H61   H     H_    0.108485 0.226607 0.046154 0.133255
H62   H     H_    0.038670 0.686401 0.953803 0.136038
H63   H     H_    0.039933 0.312342 0.953799 0.136006
H64   H     H_    0.538504 0.186239 0.953805 0.136042
H65   H     H_    0.540068 0.812205 0.953800 0.136003
H66   H     H_    0.087988 0.311874 0.582135 0.177674
H67   H     H_    0.087998 0.688138 0.582156 0.177678
H68   H     H_    0.494106 0.811892 0.582132 0.177651
N1    N     N_1   0.682804 0.074872 0.275307 -0.209123
N2    N     N_1   0.682820 0.925115 0.275319 -0.209183
N3    N     N_1   0.182804 0.574872 0.275307 -0.209131
N4    N     N_1   0.182820 0.425115 0.275319 -0.209177
O1    O     O_3   0.749980 0.749980 0.500000 -0.480102
O2    O     O_R   0.612630 0.280380 0.456900 -0.643473
O3    O     O_R   0.112630 0.219620 0.456900 -0.643474
O4    O     O_R   0.112630 0.780380 0.456900 -0.643473
O5    O     O_R   0.698160 0.780350 0.335610 -0.631245
O6    O     O_R   0.698160 0.219650 0.335610 -0.631250
O7    O     O_R   0.198160 0.280350 0.335610 -0.631245
O8    O     O_R   0.198160 0.719650 0.335610 -0.631250
O9    O     O_R   0.801810 0.780340 0.664390 -0.638518
O10   O     O_R   0.801810 0.219660 0.664390 -0.638516
O11   O     O_R   0.301810 0.280340 0.664390 -0.638518
O12   O     O_3   0.749980 0.250020 0.500000 -0.480102
O13   O     O_R   0.301810 0.719660 0.664390 -0.638517
O14   O     O_R   0.637440 0.719620 0.335610 -0.641928
O15   O     O_R   0.637440 0.280380 0.335610 -0.641928
O16   O     O_R   0.137440 0.219620 0.335610 -0.641928
O17   O     O_R   0.137440 0.780380 0.335610 -0.641928
O18   O     O_R   0.862520 0.719620 0.664390 -0.638058
O19   O     O_R   0.862520 0.280380 0.664390 -0.638058
O20   O     O_R   0.362520 0.219620 0.664390 -0.638058
O21   O     O_R   0.362520 0.780380 0.664390 -0.638058
O22   O     O_R   0.844240 0.780350 0.456900 -0.644424
O23   O     O_3   0.249980 0.249980 0.500000 -0.480102
O24   O     O_R   0.844240 0.219650 0.456900 -0.644426
O25   O     O_R   0.344240 0.280350 0.456900 -0.644424
O26   O     O_R   0.344240 0.719650 0.456900 -0.644426
O27   O     O_R   0.655730 0.780340 0.543100 -0.648419
O28   O     O_R   0.655730 0.219660 0.543100 -0.648418
O29   O     O_R   0.155730 0.280340 0.543100 -0.648419
O30   O     O_R   0.155730 0.719660 0.543100 -0.648418
O31   O     O_R   0.758800 0.865790 0.456890 -0.642697
O32   O     O_R   0.758800 0.134210 0.456890 -0.642699
O33   O     O_R   0.258800 0.365790 0.456890 -0.642697
O34   O     O_3   0.249980 0.750020 0.500000 -0.480102
O35   O     O_R   0.258800 0.634210 0.456890 -0.642699
O36   O     O_R   0.698070 0.634180 0.456910 -0.643948
O37   O     O_R   0.698070 0.365820 0.456910 -0.643949
O38   O     O_R   0.198070 0.134180 0.456910 -0.643948
O39   O     O_R   0.198070 0.865820 0.456910 -0.643949
O40   O     O_R   0.741170 0.865780 0.543090 -0.649028
O41   O     O_R   0.741170 0.134220 0.543090 -0.649030
O42   O     O_R   0.241170 0.365780 0.543090 -0.649027
O43   O     O_R   0.241170 0.634220 0.543090 -0.649029
O44   O     O_R   0.801880 0.634180 0.543110 -0.648592
O45   O     O_R   0.887330 0.719620 0.543100 -0.648842
O46   O     O_R   0.801880 0.365820 0.543110 -0.648591
O47   O     O_R   0.301880 0.134180 0.543110 -0.648592
O48   O     O_R   0.301880 0.865820 0.543110 -0.648591
O49   O     O_R   0.887330 0.280380 0.543100 -0.648843
O50   O     O_R   0.387330 0.219620 0.543100 -0.648842
O51   O     O_R   0.387330 0.780380 0.543100 -0.648843
O52   O     O_R   0.612630 0.719620 0.456900 -0.643475
Zn1   Zn    Zn3+2 0.824140 0.706600 0.561580 0.962889
Zn2   Zn    Zn3+2 0.737390 0.206640 0.561570 0.964152
Zn3   Zn    Zn3+2 0.237390 0.293360 0.561570 0.964151
Zn4   Zn    Zn3+2 0.237390 0.706640 0.561570 0.964152
Zn5   Zn    Zn3+2 0.675820 0.706600 0.438430 0.961065
Zn6   Zn    Zn3+2 0.675820 0.293400 0.438430 0.961065
Zn7   Zn    Zn3+2 0.175820 0.206600 0.438430 0.961065
Zn8   Zn    Zn3+2 0.175820 0.793400 0.438430 0.961065
Zn9   Zn    Zn3+2 0.824140 0.293400 0.561580 0.962889
Zn10  Zn    Zn3+2 0.324140 0.206600 0.561580 0.962889
Zn11  Zn    Zn3+2 0.324140 0.793400 0.561580 0.962889
Zn12  Zn    Zn3+2 0.762580 0.793360 0.438420 0.970310
Zn13  Zn    Zn3+2 0.762580 0.206640 0.438420 0.970302
Zn14  Zn    Zn3+2 0.262580 0.293360 0.438420 0.970309
Zn15  Zn    Zn3+2 0.262580 0.706640 0.438420 0.970303
Zn16  Zn    Zn3+2 0.737390 0.793360 0.561570 0.964151

loop_
_geom_bond_atom_site_label_1
_geom_bond_atom_site_label_2
_ccdc_geom_bond_type
O5    Zn12  S    
C99   C103  A    
C105  C110  A    
O52   Zn5   S    
C107  C112  A    
C49   C87   S    
C82   O19   A    
C18   O2    A    
O12   Zn9   S    
C30   C97   S    
C46   H41   S    
C1    C56   S    
O34   Zn8   S    
C83   O20   A    
O23   Zn7   S    
C100  C104  A    
C113  H2    S    
O19   Zn9   S    
C109  H56   S    
C75   O17   A    
C117  C132  S    
C77   H53   S    
C118  C131  S    
O48   Zn11  S    
C50   C90   T    
O36   Zn5   S    
C39   H1    S    
C77   C88   S    
C70   C74   S    
O33   Zn14  S    
O13   Zn4   S    
C100  C135  S    
C99   C121  A    
C83   O11   A    
O23   Zn3   S    
C119  H39   S    
C21   O40   A    
C54   C84   S    
C26   O36   A    
C20   C106  S    
C78   C89   S    
O50   Zn10  S    
C135  H19   S    
C116  C121  A    
O28   Zn2   S    
O45   Zn1   S    
C127  C136  S    
C46   C65   S    
C24   C76   S    
C116  C133  S    
C34   C39   A    
C9    H24   S    
C66   C79   S    
O20   Zn10  S    
C68   C72   S    
C28   O47   A    
O27   Zn16  S    
C12   C139  S    
C18   C104  S    
C125  H9    S    
C17   O27   A    
C60   C65   S    
C85   H49   S    
C27   C36   S    
C73   C95   S    
C14   H28   S    
C20   O4    A    
C79   C85   S    
C103  C107  A    
C65   C91   S    
C70   H60   S    
O37   Zn6   S    
C82   O10   A    
C59   C63   S    
C33   C38   A    
C24   C46   S    
C114  H3    S    
C27   O37   A    
C8    H22   S    
C53   O15   A    
C137  H21   S    
C30   C31   A    
C80   H57   S    
O32   Zn13  S    
C19   O3    A    
O34   Zn15  S    
C43   N1    T    
C19   O29   A    
O43   Zn4   S    
O23   Zn10  S    
C31   C36   A    
C26   O44   A    
C76   C98   S    
C50   C81   S    
C1    O14   A    
C56   C95   T    
C13   H47   S    
C58   C98   T    
C128  C137  S    
C72   C85   S    
C46   C89   S    
C5    C9    A    
C13   C35   S    
C129  O45   A    
O12   Zn2   S    
O10   Zn2   S    
O1    Zn1   S    
C79   H55   S    
O2    Zn6   S    
O47   Zn10  S    
C86   C97   S    
C127  H11   S    
C54   C93   T    
C29   C38   S    
O29   Zn3   S    
O30   Zn4   S    
C110  C114  A    
C76   C89   S    
C21   O31   A    
C51   C91   T    
C68   C79   S    
O1    Zn16  S    
C70   C77   S    
C16   C140  S    
C33   C108  S    
O38   Zn7   S    
O34   Zn4   S    
C84   O13   A    
C16   C47   S    
C18   O28   A    
C5    C139  A    
C106  C111  A    
C58   C64   S    
C30   C34   A    
C120  C129  S    
C74   C96   S    
C42   H34   S    
C39   C40   A    
C66   C92   S    
C99   C134  S    
C102  C137  S    
C117  C122  A    
C121  C125  S    
C123  C127  S    
C32   C37   A    
C2    C73   S    
C87   H50   S    
C113  C117  A    
C134  H18   S    
O51   Zn11  S    
C32   C119  S    
C111  H67   S    
C112  C116  A    
C132  O50   A    
C133  O51   A    
C115  H4    S    
C64   O7    A    
O39   Zn8   S    
C35   C63   S    
C13   C59   S    
O41   Zn2   S    
C137  H17   S    
C129  O22   A    
C57   C75   S    
C17   O52   A    
C72   C94   S    
C125  H5    S    
C126  H10   S    
C59   H62   S    
C28   C37   S    
C89   H52   S    
O35   Zn15  S    
C28   O38   A    
C10   C11   A    
C86   H31   S    
C136  H20   S    
C67   C93   S    
O9    Zn16  S    
C48   C66   S    
C131  O49   A    
C125  C134  S    
O44   Zn1   S    
C88   H51   S    
C41   C42   A    
C12   H27   S    
C22   O32   A    
C25   O43   A    
C20   O30   A    
C45   N3    T    
C97   H32   S    
C29   O39   A    
O34   Zn11  S    
C3    C7    A    
C23   O42   A    
C61   H64   S    
C71   C76   S    
C35   H40   S    
C78   H54   S    
C73   C87   S    
C22   O41   A    
C119  H35   S    
C49   H43   S    
C14   C138  S    
C57   C96   T    
O7    Zn14  S    
C69   C73   S    
C124  C128  S    
C108  C119  S    
C48   C130  S    
C55   C94   T    
C102  C124  A    
O42   Zn3   S    
C128  H8    S    
C60   C71   S    
C62   C69   S    
C23   O33   A    
C52   C83   S    
O15   Zn6   S    
C97   H37   S    
O1    Zn12  S    
O8    Zn15  S    
C108  H38   S    
C128  H13   S    
C19   C105  S    
C126  C135  S    
C81   O18   A    
C41   H23   S    
C52   C92   T    
C14   C44   S    
C27   O46   A    
C65   C78   S    
C67   C80   S    
C6    C10   A    
C131  O24   A    
C80   C87   S    
C81   O9    A    
C7    C25   S    
C24   H48   S    
C32   C33   A    
O25   Zn14  S    
O40   Zn16  S    
C130  H44   S    
C134  H14   S    
C75   O8    A    
O6    Zn13  S    
O12   Zn13  S    
C44   N2    T    
C118  C123  A    
C6    C140  A    
C138  C139  A    
C59   C70   S    
C4    C138  A    
C16   H30   S    
C13   C74   S    
C1    O5    A    
C74   C88   S    
C4    C8    A    
C126  H6    S    
C135  H15   S    
C7    C11   A    
C40   H12   S    
C101  C123  A    
C62   C67   S    
C38   C42   A    
C12   C43   S    
O14   Zn5   S    
C104  C109  A    
C136  H16   S    
O17   Zn8   S    
O49   Zn9   S    
C15   C16   S    
O21   Zn11  S    
O22   Zn12  S    
C15   H29   S    
C68   H58   S    
C61   C66   S    
C26   C34   S    
C5    C22   S    
C8    C9    A    
C11   H26   S    
C62   H65   S    
C100  C122  A    
C109  C113  A    
C31   C86   S    
C47   N4    T    
C108  H33   S    
O46   Zn9   S    
C37   C41   A    
C53   C55   S    
C101  C105  A    
C29   O48   A    
O24   Zn13  S    
C36   C40   A    
C112  H68   S    
O26   Zn15  S    
C122  C126  S    
C132  O25   A    
C2    H46   S    
C2    C49   S    
C35   C88   S    
C60   H63   S    
C24   C60   S    
C110  H66   S    
C51   C82   S    
C114  C118  A    
C61   C130  S    
C25   O35   A    
C12   C14   S    
C133  O26   A    
C15   C45   S    
C64   O16   A    
C3    C15   S    
C63   C77   S    
C101  C136  S    
C53   O6    A    
C71   H61   S    
C49   C67   S    
O23   Zn14  S    
O11   Zn3   S    
O16   Zn7   S    
C72   C130  S    
C107  H45   S    
C84   O21   A    
C17   C103  S    
C48   H42   S    
C4    C21   S    
C61   C68   S    
C10   H25   S    
C6    C23   S    
C63   C90   S    
C102  C106  A    
C86   H36   S    
O12   Zn6   S    
C2    C62   S    
C115  C120  A    
O1    Zn5   S    
C69   H59   S    
C48   C85   S    
C69   C80   S    
C111  C115  A    
C3    C140  A    
O3    Zn7   S    
O31   Zn12  S    
O4    Zn8   S    
C71   C78   S    
C120  C124  A    
C127  H7    S    
O18   Zn1   S    
