data_mof_unit_55884.cif
_audit_creation_date              2012-12-11T14:35:56-0500
_audit_creation_method            fapswitch 2.2
_symmetry_space_group_name_H-M    P1
_symmetry_Int_Tables_number       1
_space_group_crystal_system       triclinic
_cell_length_a                    14.559044
_cell_length_b                    16.00688
_cell_length_c                    6.915149
_cell_angle_alpha                 89.891997
_cell_angle_beta                  81.002626
_cell_angle_gamma                 89.808125
_cell_volume                      1591.70038522

loop_
_atom_site_label
_atom_site_type_symbol
_atom_type_description
_atom_site_fract_x
_atom_site_fract_y
_atom_site_fract_z
_atom_type_partial_charge
O1    O     O_R   0.337460 0.413110 0.524760 -0.541041
O2    O     O_R   0.662540 0.913110 0.475240 -0.540071
O3    O     O_R   0.348690 0.587910 0.191230 -0.545760
O4    O     O_R   0.651310 0.087910 0.808770 -0.526321
O5    O     O_R   0.166530 0.586890 0.082470 -0.545899
O6    O     O_R   0.833470 0.086890 0.917530 -0.545805
C1    C     C_R   0.374264 0.612883 0.352137 0.647899
C2    C     C_R   0.629681 0.116933 0.646269 0.646382
O7    O     O_R   0.348700 0.413830 0.191250 -0.526540
O8    O     O_R   0.651300 0.913830 0.808750 -0.533168
O9    O     O_R   0.166530 0.411570 0.082490 -0.543983
O10   O     O_R   0.833470 0.911570 0.917510 -0.539705
C3    C     C_R   0.374332 0.388060 0.353397 0.756329
C4    C     C_R   0.630366 0.884311 0.645451 0.753699
O11   O     O_R   0.337460 0.588430 0.524740 -0.551264
O12   O     O_R   0.662540 0.088430 0.475260 -0.557250
O13   O     O_3   0.192230 0.499460 0.407330 -0.371995
O14   O     O_3   0.807770 0.999460 0.592670 -0.374547
V1    V     V_3+5 0.263080 0.500100 0.108540 1.456956
V2    V     V_3+5 0.736920 0.000100 0.891460 1.464033
O15   O     O_R   0.155290 0.412090 0.756570 -0.543092
O16   O     O_R   0.844710 0.912090 0.243430 -0.542625
C5    C     C_R   0.131322 0.383921 0.934270 0.669801
C6    C     C_R   0.869075 0.884207 0.065703 0.709229
O17   O     O_R   0.155290 0.586170 0.756550 -0.545677
O18   O     O_R   0.844710 0.086170 0.243450 -0.546389
C7    C     C_R   0.133839 0.616264 0.932271 0.703575
C8    C     C_R   0.866761 0.115911 0.067240 0.701693
V3    V     V_3+5 0.240910 0.499900 0.616030 1.430932
V4    V     V_3+5 0.759090 0.999900 0.383970 1.428597
O19   O     O_3   0.311760 0.500540 0.867100 -0.358937
O20   O     O_3   0.688240 0.000540 0.132900 -0.363205
C9    C     C_3   0.101232 0.759616 0.088587 0.382497
C10   C     C_3   0.899342 0.259843 0.911867 0.368744
H1    H     H_    0.110122 0.731678 0.233076 0.041400
H2    H     H_    0.890989 0.232543 0.766737 0.039421
C11   C     C_3   0.027914 0.831676 0.128332 -0.359548
C12   C     C_3   0.971967 0.332248 0.874266 -0.353114
H3    H     H_    0.059533 0.892538 0.077113 0.161585
H4    H     H_    0.939966 0.392616 0.928955 0.163277
H5    H     H_    0.005608 0.837679 0.289043 0.123522
H6    H     H_    0.993464 0.339854 0.713725 0.125627
H7    H     H_    0.980997 0.632248 0.224873 0.165001
H8    H     H_    0.020088 0.131395 0.774832 0.162029
H9    H     H_    0.871690 0.736860 0.270285 0.156500
H10   H     H_    0.126197 0.237874 0.724728 0.148162
C13   C     C_3   0.970583 0.657871 0.080108 -0.428506
C14   C     C_3   0.030649 0.157617 0.918642 -0.416804
C15   C     C_3   0.045444 0.726281 0.768223 -0.328935
C16   C     C_3   0.955787 0.225133 0.231078 -0.328809
C17   C     C_3   0.064608 0.688582 0.965849 0.032134
C18   C     C_3   0.936298 0.188131 0.033441 0.035927
H11   H     H_    0.015360 0.677373 0.682618 0.131972
H12   H     H_    0.985558 0.175682 0.316589 0.129162
H13   H     H_    0.112399 0.745256 0.678104 0.162833
H14   H     H_    0.888917 0.244585 0.321205 0.164501
C19   C     C_3   0.941623 0.814070 0.027518 -0.001414
C20   C     C_3   0.059055 0.313686 0.972293 0.017869
C21   C     C_3   0.898518 0.730270 0.111258 -0.337973
C22   C     C_3   0.102100 0.230350 0.884644 -0.360906
C23   C     C_3   0.976024 0.800717 0.802740 -0.137745
C24   C     C_3   0.025679 0.298958 0.196998 -0.135720
H15   H     H_    0.915061 0.785590 0.730139 0.104688
H16   H     H_    0.087108 0.282594 0.267393 0.098627
H17   H     H_    0.942950 0.606197 0.998553 0.166837
H18   H     H_    0.059168 0.106408 0.000997 0.160407
H19   H     H_    0.838727 0.713903 0.036686 0.183083
H20   H     H_    0.164254 0.214129 0.952659 0.140523
H21   H     H_    0.412757 0.722919 0.608919 0.120606
H22   H     H_    0.586875 0.209171 0.350049 0.152991
C25   C     C_2   0.458025 0.665399 0.336333 0.281510
C26   C     C_2   0.562887 0.187106 0.656420 0.279352
C27   C     C_2   0.469202 0.716802 0.486472 -0.267537
C28   C     C_2   0.552350 0.230395 0.492360 -0.274355
H23   H     H_    0.507455 0.813418 0.778735 0.129204
H24   H     H_    0.455372 0.280782 0.219804 0.175286
C29   C     C_2   0.559184 0.818463 0.648269 -0.421130
C30   C     C_2   0.445740 0.321650 0.346387 -0.390788
C31   C     C_2   0.552323 0.770313 0.489194 -0.007907
C32   C     C_2   0.493667 0.306166 0.495894 -0.005909
C33   C     C_1   0.622306 0.774452 0.314709 0.468558
N1    N     N_1   0.677231 0.778238 0.174774 -0.394346
C34   C     C_1   0.495522 0.365364 0.654216 0.443200
N2    N     N_1   0.497797 0.412345 0.780383 -0.357098
O21   O     O_3   0.533225 0.647307 0.191768 -0.552732
C35   C     C_3   0.510839 0.659444 0.002377 -0.162357
H25   H     H_    0.455232 0.707046 0.997052 0.094899
H26   H     H_    0.490919 0.599094 0.942098 0.177086
H27   H     H_    0.574222 0.681090 0.905454 0.165674
O22   O     O_3   0.514609 0.210279 0.837183 -0.549027
C36   C     C_3   0.435131 0.159240 0.878073 -0.248877
H28   H     H_    0.454566 0.092422 0.891807 0.127655
H29   H     H_    0.389082 0.166667 0.764791 0.134325
H30   H     H_    0.394428 0.178609 0.020003 0.145598
O23   O     O_3   0.186296 0.790885 0.985731 -0.555276
C37   C     C_3   0.245579 0.816033 0.117797 -0.281044
H31   H     H_    0.269224 0.761122 0.195851 0.123125
H32   H     H_    0.211203 0.862726 0.224609 0.150675
H33   H     H_    0.308149 0.845728 0.033614 0.160471
O24   O     O_3   0.813742 0.290488 0.014429 -0.559501
C38   C     C_3   0.755458 0.317980 0.881963 -0.211238
H34   H     H_    0.733023 0.264489 0.798466 0.129613
H35   H     H_    0.790161 0.366198 0.779883 0.141184
H36   H     H_    0.692094 0.346566 0.966361 0.190686
C39   C     C_1   0.018629 0.877011 0.706902 0.308679
N3    N     N_1   0.051888 0.936733 0.631996 -0.392788
C40   C     C_1   0.983817 0.375020 0.295892 0.310094
N4    N     N_1   0.951121 0.434573 0.373054 -0.381267

loop_
_geom_bond_atom_site_label_1
_geom_bond_atom_site_label_2
_ccdc_geom_bond_type
C20   C24   S    
C5    C20   S    
V4    O20   S    
C38   H34   S    
O11   V3    S    
O13   V3    S    
O23   C37   S    
O4    C2    A    
V1    O19   S    
C33   N1    T    
O21   C35   S    
O9    V1    S    
C16   H12   S    
H24   C30   S    
C12   H6    S    
O3    C1    A    
C1    C25   S    
C30   C32   D    
C19   C21   S    
O12   V4    S    
C37   H33   S    
C2    O12   A    
C4    C29   S    
C23   H15   S    
O7    C3    A    
C24   H16   S    
C21   H19   S    
O5    C7    A    
O7    V1    S    
O6    C8    A    
O8    V2    S    
C6    C19   S    
C15   C17   S    
C37   H32   S    
H22   C28   S    
C16   C18   S    
C40   N4    T    
O3    V1    S    
O14   V4    S    
C23   C39   S    
C10   H2    S    
C1    O11   A    
C38   H35   S    
C25   O21   S    
C32   C34   S    
C9    O23   S    
C7    C17   S    
C14   C22   S    
C29   C31   D    
O17   V3    S    
C2    C26   S    
C15   C23   S    
C35   H26   S    
C26   C28   D    
O8    C4    A    
C36   H28   S    
C31   C33   S    
C35   H25   S    
O13   V1    S    
C13   C17   S    
C24   C40   S    
C15   H13   S    
O15   V3    S    
C16   H14   S    
C36   H29   S    
C26   O22   S    
C10   O24   S    
C34   N2    T    
C37   H31   S    
O10   V2    S    
O1    V3    S    
C27   C31   S    
C12   C20   S    
H21   C27   S    
H23   C29   S    
O18   V4    S    
C38   H36   S    
O15   C5    A    
O17   C7    A    
C16   C24   S    
O16   C6    A    
O1    C3    A    
C25   C27   D    
V2    O20   S    
C3    C30   S    
H9    C21   S    
O16   V4    S    
H10   C22   S    
C10   C12   S    
C10   C18   S    
C35   H27   S    
C19   C23   S    
O5    V1    S    
C9    C17   S    
O6    V2    S    
C39   N3    T    
O10   C6    A    
O18   C8    A    
O2    V4    S    
C11   H3    S    
C36   H30   S    
C12   H4    S    
C8    C18   S    
O22   C36   S    
H7    C13   S    
C15   H11   S    
O9    C5    A    
O24   C38   S    
C9    H1    S    
O14   V2    S    
C11   H5    S    
O2    C4    A    
C9    C11   S    
C13   C21   S    
O4    V2    S    
C14   C18   S    
C22   H20   S    
V3    O19   S    
C28   C32   S    
C14   H18   S    
C20   C22   S    
C13   H17   S    
C11   C19   S    
H8    C14   S    
