data_mof_unit_37865.cif
_audit_creation_date              2012-10-26T18:52:36-0400
_audit_creation_method            fapswitch 2.2
_symmetry_space_group_name_H-M    P1
_symmetry_Int_Tables_number       1
_space_group_crystal_system       triclinic
_cell_length_a                    10.814219
_cell_length_b                    14.672614
_cell_length_c                    14.884218
_cell_angle_alpha                 64.15691
_cell_angle_beta                  105.0773
_cell_angle_gamma                 102.847073
_cell_volume                      2036.16207417

loop_
_atom_site_label
_atom_site_type_symbol
_atom_type_description
_atom_site_fract_x
_atom_site_fract_y
_atom_site_fract_z
_atom_type_partial_charge
C1    C     C_R   0.479764 0.119945 0.311843 0.513147
C2    C     C_R   0.437285 0.357204 0.070931 0.020725
C3    C     C_R   0.392061 0.316261 0.996258 0.053379
C4    C     C_R   0.261272 0.996287 0.505996 0.581543
C5    C     C_R   0.438279 0.462760 0.044041 0.028657
C6    C     C_R   0.413477 0.530634 0.940322 0.065072
C7    C     C_R   0.357748 0.487332 0.867213 -0.004468
C8    C     C_R   0.352838 0.382465 0.895321 -0.094989
C9    C     C_R   0.455536 0.501334 0.118712 -0.138496
C10   C     C_R   0.462779 0.604518 0.093343 -0.125666
C11   C     C_R   0.462194 0.675066 0.992707 0.045319
C12   C     C_3   0.877375 0.998719 0.501395 0.045818
C13   C     C_R   0.443332 0.638166 0.915910 0.019724
C14   C     C_R   0.484711 0.781389 0.968531 0.020373
C15   C     C_R   0.512837 0.850139 0.871833 0.124796
C16   C     C_R   0.515527 0.879969 0.688360 0.594904
C17   C     C_R   0.466105 0.708473 0.819549 -0.138498
C18   C     C_R   0.729721 0.275805 0.673746 -0.024388
C19   C     C_R   0.689579 0.199179 0.636224 0.090537
C20   C     C_R   0.518614 0.288121 0.516931 0.149418
C21   C     C_R   0.542229 0.360221 0.562288 0.018022
C22   C     C_R   0.654878 0.357308 0.636562 0.024288
C23   C     C_3   0.966551 0.015099 0.596521 -0.048620
C24   C     C_R   0.461417 0.437788 0.532723 0.013603
C25   C     C_R   0.508107 0.525899 0.555768 0.024613
C26   C     C_R   0.617055 0.516884 0.635466 0.046246
C27   C     C_R   0.688390 0.434551 0.673584 -0.090431
C28   C     C_R   0.739693 0.999360 0.500796 0.569239
C29   C     C_R   0.330655 0.425146 0.488443 -0.131010
C30   C     C_R   0.259910 0.506837 0.440760 -0.135464
C31   C     C_R   0.316036 0.602400 0.439823 0.026138
C32   C     C_R   0.438336 0.614123 0.500330 0.002355
C33   C     C_R   0.249550 0.686026 0.377902 -0.115814
C34   C     C_3   0.919935 0.088072 0.400085 0.000298
C35   C     C_R   0.299421 0.782408 0.377005 0.172143
C36   C     C_R   0.485466 0.714592 0.496590 0.045246
C37   C     C_3   0.036846 0.898561 0.493411 -0.036743
C38   C     C_3   0.897299 0.892763 0.507108 -0.124222
C39   C     C_3   0.105758 0.996150 0.607478 -0.044017
C40   C     C_3   0.071544 0.094657 0.413980 -0.111800
C41   C     C_3   0.122904 0.996305 0.505458 0.023521
C42   C     C_3   0.887740 0.194981 0.379129 -0.386745
C43   C     C_3   0.335050 0.161198 0.949265 -0.382572
C44   C     C_3   0.277833 0.543723 0.765618 -0.385027
C45   C     C_R   0.459532 0.186239 0.202359 -0.025457
C46   C     C_3   0.478815 0.820164 0.046620 -0.378563
C47   C     C_3   0.218954 0.866919 0.306648 -0.339503
C48   C     C_3   0.850002 0.267220 0.754390 -0.409415
C49   C     C_3   0.447627 0.315594 0.409271 -0.347369
C50   C     C_3   0.861416 0.800734 0.603199 -0.353536
C51   C     C_3   0.119308 0.123678 0.314051 -0.418437
C52   C     C_3   0.844759 0.067167 0.304360 -0.378820
C53   C     C_R   0.501975 0.813001 0.795795 0.010702
C54   C     C_R   0.381569 0.209174 0.025563 -0.011640
C55   C     C_R   0.411585 0.145223 0.128945 -0.115579
C56   C     C_R   0.481412 0.291464 0.171247 -0.143848
Cu1   Cu    Cu3+1 0.465900 0.918260 0.475680 0.940896
Cu2   Cu    Cu3+1 0.534100 0.081740 0.524320 0.970529
H1    H     H_    0.968795 0.095105 0.584539 0.162839
H2    H     H_    0.578745 0.729635 0.538651 0.149701
H3    H     H_    0.162350 0.496095 0.400572 0.111662
H4    H     H_    0.742596 0.134350 0.667104 0.172974
H5    H     H_    0.830258 0.877291 0.443286 0.145394
H6    H     H_    0.283542 0.352426 0.486894 0.137185
H7    H     H_    0.157236 0.676221 0.330129 0.102337
H8    H     H_    0.122959 0.919923 0.668949 0.183372
H9    H     H_    0.117369 0.159213 0.436780 0.157354
H10   H     H_    0.927071 0.254417 0.312048 0.122682
H11   H     H_    0.782026 0.197786 0.360853 0.164801
H12   H     H_    0.311422 0.352566 0.837585 0.125587
H13   H     H_    0.930152 0.219277 0.442505 0.123504
H14   H     H_    0.336073 0.077165 0.985815 0.144419
H15   H     H_    0.234452 0.176132 0.910628 0.143982
H16   H     H_    0.398835 0.193322 0.892081 0.173759
H17   H     H_    0.246123 0.610306 0.765649 0.177935
H18   H     H_    0.332312 0.566616 0.703751 0.177225
H19   H     H_    0.187728 0.494606 0.750362 0.143812
H20   H     H_    0.461968 0.901002 0.013148 0.169929
H21   H     H_    0.394947 0.778297 0.084460 0.121660
H22   H     H_    0.569265 0.809681 0.104346 0.137194
H23   H     H_    0.462961 0.681485 0.762624 0.178831
H24   H     H_    0.254300 0.940400 0.311968 0.188104
H25   H     H_    0.213875 0.878635 0.226920 0.088397
H26   H     H_    0.119375 0.844937 0.322614 0.116351
H27   H     H_    0.896323 0.199145 0.772973 0.154911
H28   H     H_    0.921408 0.335766 0.727361 0.131773
H29   H     H_    0.825343 0.260249 0.825208 0.156338
H30   H     H_    0.364030 0.257880 0.403399 0.162661
H31   H     H_    0.416051 0.392249 0.370987 0.081438
H32   H     H_    0.519058 0.323686 0.364939 0.136086
H33   H     H_    0.939449 0.791614 0.670474 0.204096
H34   H     H_    0.477274 0.627953 0.155271 0.113102
H35   H     H_    0.772913 0.807160 0.622819 0.193595
H36   H     H_    0.842502 0.729684 0.589820 0.173894
H37   H     H_    0.078621 0.192781 0.253335 0.135223
H38   H     H_    0.225574 0.143498 0.324097 0.139529
H39   H     H_    0.093211 0.060686 0.287812 0.129025
H40   H     H_    0.875439 0.002715 0.299418 0.114105
H41   H     H_    0.739299 0.050761 0.303513 0.145922
H42   H     H_    0.858581 0.134640 0.232839 0.138154
H43   H     H_    0.397108 0.063208 0.152124 0.127996
H44   H     H_    0.535039 0.321378 0.226042 0.110624
H45   H     H_    0.031181 0.907632 0.414589 0.129824
H46   H     H_    0.458424 0.452571 0.197883 0.096689
H47   H     H_    0.769306 0.430258 0.735315 0.151752
I1    I     I_    0.115010 0.752217 0.578401 -0.480008
I2    I     I_    0.235735 0.103096 0.665091 -0.392974
I3    I     I_    0.586414 0.005408 0.851255 -0.363471
I4    I     I_    0.655245 0.592020 0.735085 -0.494721
I5    I     I_    0.900878 0.938565 0.740930 -0.389387
N1    N     N_R   0.585360 0.204570 0.560800 -0.223480
N2    N     N_R   0.414550 0.795430 0.439160 -0.219659
O1    O     O_R   0.455060 0.022100 0.338110 -0.524021
O2    O     O_R   0.512640 0.160150 0.379180 -0.528792
O3    O     O_R   0.288900 0.930980 0.479450 -0.485496
O4    O     O_R   0.346480 0.069030 0.520520 -0.477450
O5    O     O_R   0.487360 0.839850 0.620820 -0.490277
O6    O     O_R   0.544940 0.977900 0.661890 -0.445170
O7    O     O_R   0.653520 0.930970 0.479480 -0.524383
O8    O     O_R   0.711100 0.069020 0.520550 -0.508552

loop_
_geom_bond_atom_site_label_1
_geom_bond_atom_site_label_2
_ccdc_geom_bond_type
C43   H15   S    
C42   H10   S    
C51   H39   S    
C43   H14   S    
C4    O3    A    
C34   C42   S    
C49   H32   S    
C35   C47   S    
C33   H7    S    
C7    C8    A    
C39   C41   S    
C23   H1    S    
C12   C23   S    
C26   C27   A    
C20   C49   S    
C12   C28   S    
C34   C40   S    
C15   C53   A    
C44   H19   S    
C37   C38   S    
C5    C6    A    
C3    C54   A    
Cu1   N2    S    
C4    C41   S    
C27   H47   S    
C19   H4    S    
Cu2   O6    S    
C18   C19   A    
C47   H24   S    
C44   H18   S    
C24   C29   A    
C33   C35   A    
C16   C53   S    
C46   H21   S    
C45   C56   A    
C40   H9    S    
C36   N2    A    
C31   C33   A    
C47   H25   S    
C9    C10   A    
C51   H38   S    
Cu1   O7    S    
C43   H16   S    
C29   H6    S    
C10   H34   S    
C21   C22   A    
Cu2   O4    S    
C49   H30   S    
C1    O1    A    
Cu2   N1    S    
C48   H27   S    
C24   C25   A    
Cu1   O3    S    
C3    C8    A    
C28   O8    A    
C46   H20   S    
C50   H36   S    
Cu1   O1    S    
C25   C26   A    
C7    C44   S    
C52   H42   S    
C42   H11   S    
C14   C46   S    
C15   I3    S    
C44   H17   S    
C39   I2    S    
C5    C9    A    
C29   C30   A    
C16   O6    A    
C20   N1    A    
C43   C54   S    
C31   C32   A    
Cu2   O8    S    
C48   H29   S    
C47   H26   S    
C26   I4    S    
C40   C41   S    
C22   C27   A    
C39   H8    S    
C48   H28   S    
C21   C24   A    
C2    C5    A    
C1    O2    A    
C12   C34   S    
C12   C38   S    
C17   C53   A    
Cu1   O5    S    
C38   H5    S    
C23   I5    S    
C54   C55   A    
C18   C22   A    
C34   C52   S    
C4    O4    A    
C49   H31   S    
C36   H2    S    
C28   O7    A    
C18   C48   S    
C37   H45   S    
C32   C36   A    
C50   H35   S    
C6    C7    A    
C38   C50   S    
C19   N1    A    
C40   C51   S    
C55   H43   S    
C52   H41   S    
C8    H12   S    
C13   C17   A    
C2    C3    A    
C56   H44   S    
C37   I1    S    
C2    C56   A    
C16   O5    A    
C6    C13   A    
C46   H22   S    
C11   C13   A    
C1    C45   S    
Cu1   Cu2   S    
C30   C31   A    
C25   C32   A    
C9    H46   S    
C23   C39   S    
C52   H40   S    
C42   H13   S    
C11   C14   A    
C17   H23   S    
C37   C41   S    
C10   C11   A    
C50   H33   S    
C20   C21   A    
C45   C55   A    
C30   H3    S    
Cu2   O2    S    
C14   C15   A    
C35   N2    A    
C51   H37   S    
