data_mof_unit_24730.cif
_audit_creation_date              2012-12-10T16:48:11-0500
_audit_creation_method            fapswitch 2.2
_symmetry_space_group_name_H-M    P1
_symmetry_Int_Tables_number       1
_space_group_crystal_system       triclinic
_cell_length_a                    15.841183
_cell_length_b                    8.688396
_cell_length_c                    7.453294
_cell_angle_alpha                 103.010413
_cell_angle_beta                  94.035233
_cell_angle_gamma                 92.230815
_cell_volume                      995.434281761

loop_
_atom_site_label
_atom_site_type_symbol
_atom_type_description
_atom_site_fract_x
_atom_site_fract_y
_atom_site_fract_z
_atom_type_partial_charge
C1    C     C_R   0.497478 0.199736 0.453261 0.881530
C2    C     C_R   0.502522 0.800264 0.546739 0.881530
C3    C     C_R   0.339986 0.499815 0.502524 0.822860
C4    C     C_R   0.660014 0.500185 0.497476 0.822860
C5    C     C_2   0.496269 0.031816 0.427015 -0.361816
C6    C     C_2   0.503731 0.968183 0.572985 -0.361815
C7    C     C_3   0.972161 0.415258 0.617510 -0.193405
C8    C     C_3   0.027839 0.584741 0.382490 -0.193405
C9    C     C_3   0.022936 0.352581 0.449618 0.034236
C10   C     C_3   0.977064 0.647419 0.550381 0.034236
C11   C     C_1   0.250522 0.500307 0.507677 -0.157109
C12   C     C_1   0.749477 0.499692 0.492323 -0.157109
C13   C     C_3   0.033558 0.565410 0.673492 -0.206396
C14   C     C_3   0.966441 0.434590 0.326508 -0.206396
C15   C     C_3   0.083213 0.500341 0.504767 0.125361
C16   C     C_3   0.916787 0.499659 0.495233 0.125361
C17   C     C_1   0.174977 0.500441 0.508104 -0.043974
C18   C     C_1   0.825022 0.499559 0.491896 -0.043974
Cu1   Cu    Cu3+1 0.509330 0.517380 0.684380 0.963111
Cu2   Cu    Cu3+1 0.490670 0.482620 0.315620 0.963111
H1    H     H_    0.948361 0.344671 0.712388 0.156657
H2    H     H_    0.051639 0.655329 0.287611 0.156657
H3    H     H_    0.938072 0.379990 0.184844 0.148914
H4    H     H_    0.061927 0.620010 0.815156 0.148914
H5    H     H_    0.489236 0.960198 0.286354 0.180491
H6    H     H_    0.510764 0.039802 0.713646 0.180491
H7    H     H_    0.434416 0.377482 0.948780 0.228220
H8    H     H_    0.565583 0.622518 0.051220 0.228220
N1    N     N_2   0.476600 0.456420 0.038510 -0.214541
N2    N     N_2   0.523400 0.543580 0.961490 -0.214541
O1    O     O_R   0.506070 0.286130 0.619780 -0.585035
O2    O     O_R   0.493930 0.713870 0.380220 -0.585035
O3    O     O_R   0.490300 0.256770 0.308360 -0.585196
O4    O     O_R   0.509700 0.743230 0.691640 -0.585196
O5    O     O_R   0.386960 0.514660 0.655680 -0.583646
O6    O     O_R   0.613040 0.485340 0.344320 -0.583646
O7    O     O_R   0.371190 0.485310 0.344260 -0.573110
O8    O     O_R   0.628810 0.514690 0.655740 -0.573110
C19   C     C_1   0.048968 0.189554 0.394260 0.252894
N3    N     N_1   0.069504 0.060984 0.350611 -0.290048
C20   C     C_1   0.951031 0.810446 0.605740 0.252894
N4    N     N_1   0.930496 0.939016 0.649389 -0.290048

loop_
_geom_bond_atom_site_label_1
_geom_bond_atom_site_label_2
_ccdc_geom_bond_type
C14   H3    S    
C8    H2    S    
C9    C14   S    
C4    O6    A    
C15   C17   S    
N1    N2    D    
Cu1   O8    S    
H7    N1    S    
C20   N4    T    
Cu1   Cu2   S    
C3    O5    A    
Cu1   O1    S    
C2    O4    A    
H8    N2    S    
C9    C15   S    
C1    O3    A    
Cu1   O5    S    
C10   C20   S    
C7    H1    S    
Cu2   O7    S    
C9    C19   S    
C6    H6    S    
C1    C5    S    
Cu2   O3    S    
C16   C18   S    
C7    C16   S    
C4    O8    A    
C8    C15   S    
C14   C16   S    
Cu2   N1    S    
C13   C15   S    
C1    O1    A    
C5    C6    D    
C5    H5    S    
C3    C11   S    
Cu2   O6    S    
C7    C13   S    
C3    O7    A    
C2    O2    A    
Cu2   O2    S    
C12   C18   T    
C19   N3    T    
C7    C9    S    
C11   C17   T    
C10   C16   S    
C8    C14   S    
C4    C12   S    
Cu1   N2    S    
Cu1   O4    S    
C8    C10   S    
C2    C6    S    
C13   H4    S    
C10   C13   S    
