data_mof_unit_16447.cif
_audit_creation_date              2012-10-26T21:13:41-0400
_audit_creation_method            fapswitch 2.2
_symmetry_space_group_name_H-M    P1
_symmetry_Int_Tables_number       1
_space_group_crystal_system       triclinic
_cell_length_a                    9.077811
_cell_length_b                    10.823292
_cell_length_c                    9.549242
_cell_angle_alpha                 90.04273
_cell_angle_beta                  89.987932
_cell_angle_gamma                 90.147558
_cell_volume                      938.226814472

loop_
_atom_site_label
_atom_site_type_symbol
_atom_type_description
_atom_site_fract_x
_atom_site_fract_y
_atom_site_fract_z
_atom_type_partial_charge
C1    C     C_R   0.497173 0.262329 0.499918 0.547026
C2    C     C_R   0.571033 0.591284 0.926364 0.156370
C3    C     C_3   0.731437 0.621175 0.920958 -0.277256
C4    C     C_R   0.220676 0.499980 0.499988 0.555083
C5    C     C_3   0.730962 0.621867 0.079828 -0.276316
C6    C     C_R   0.497627 0.737696 0.499961 0.546807
C7    C     C_R   0.779308 0.500118 0.500017 0.554095
C8    C     C_1   0.065532 0.500077 0.500006 -0.063557
C9    C     C_1   0.934432 0.500132 0.500011 -0.069542
C10   C     C_R   0.481712 0.063708 0.625455 0.017627
C11   C     C_R   0.482498 0.129218 0.499644 0.007983
C12   C     C_R   0.463179 0.935432 0.373435 -0.162777
C13   C     C_R   0.462761 0.064259 0.373407 -0.162677
C14   C     C_R   0.483300 0.870803 0.499701 0.007820
C15   C     C_R   0.482327 0.936537 0.625466 0.025023
C16   C     C_3   0.585790 0.930780 0.746894 -0.270703
C17   C     C_3   0.584601 0.071044 0.747242 -0.266373
C18   C     C_R   0.570833 0.591405 0.073707 0.155443
C19   C     C_R   0.418891 0.416691 0.074355 -0.011495
C20   C     C_R   0.418895 0.416671 0.925497 -0.012450
Cu1   Cu    Cu3+1 0.499990 0.499980 0.640670 0.938401
Cu2   Cu    Cu3+1 0.500010 0.500020 0.359330 0.936074
H1    H     H_    0.454166 0.112286 0.274278 0.128950
H2    H     H_    0.355512 0.347688 0.869690 0.115708
H3    H     H_    0.798585 0.544987 0.876278 0.159083
H4    H     H_    0.692795 0.112792 0.719411 0.141556
H5    H     H_    0.753034 0.713654 0.874973 0.118188
H6    H     H_    0.798291 0.546343 0.125513 0.159874
H7    H     H_    0.751239 0.714930 0.125342 0.125114
H8    H     H_    0.454825 0.887202 0.274307 0.134829
H9    H     H_    0.533303 0.889721 0.841273 0.137000
H10   H     H_    0.694592 0.891166 0.718142 0.131630
H11   H     H_    0.530811 0.110959 0.841540 0.132800
H12   H     H_    0.355485 0.347734 0.130085 0.112460
N1    N     N_R   0.500920 0.500930 0.147930 -0.229770
N2    N     N_R   0.500930 0.500890 0.852020 -0.230215
O1    O     O_R   0.500000 0.319640 0.618810 -0.505280
O2    O     O_R   0.500020 0.319680 0.381230 -0.512204
O3    O     O_R   0.288380 0.499980 0.618770 -0.496445
O4    O     O_R   0.288400 0.500020 0.381190 -0.496702
O5    O     O_R   0.499980 0.680320 0.618770 -0.496067
O6    O     O_R   0.500000 0.680360 0.381190 -0.506230
O7    O     O_R   0.711600 0.499980 0.618810 -0.500906
O8    O     O_R   0.711620 0.500020 0.381230 -0.497977

loop_
_geom_bond_atom_site_label_1
_geom_bond_atom_site_label_2
_ccdc_geom_bond_type
C7    O7    A    
C2    C18   A    
C5    H6    S    
C18   N1    A    
C19   C20   A    
Cu1   O3    S    
C4    O3    A    
C1    O1    A    
C4    C8    S    
Cu2   O4    S    
C3    H5    S    
C2    C3    S    
Cu1   N2    S    
C19   N1    A    
C7    O8    A    
C16   H9    S    
Cu2   N1    S    
C11   C13   A    
Cu2   O6    S    
C17   H11   S    
C1    O2    A    
Cu1   O5    S    
C17   H4    S    
Cu1   Cu2   S    
C12   C14   A    
C5    H7    S    
C10   C15   A    
Cu2   O2    S    
C14   C15   A    
C6    C14   S    
C10   C11   A    
C10   C17   S    
C15   C16   S    
C20   N2    A    
C4    O4    A    
C3    H3    S    
Cu1   O1    S    
C12   C13   A    
C13   H1    S    
C6    O6    A    
C2    N2    A    
C7    C9    S    
C16   H10   S    
C8    C9    T    
C5    C18   S    
C12   H8    S    
Cu1   O7    S    
C6    O5    A    
Cu2   O8    S    
C20   H2    S    
C16   C17   S    
C3    C5    S    
C19   H12   S    
C1    C11   S    
