data_mof_unit_11867.cif
_audit_creation_date              2012-12-11T14:48:38-0500
_audit_creation_method            fapswitch 2.2
_symmetry_space_group_name_H-M    P1
_symmetry_Int_Tables_number       1
_space_group_crystal_system       triclinic
_cell_length_a                    7.213236
_cell_length_b                    19.145494
_cell_length_c                    18.981697
_cell_angle_alpha                 89.999556
_cell_angle_beta                  89.020746
_cell_angle_gamma                 90.004656
_cell_volume                      2621.00783682

loop_
_atom_site_label
_atom_site_type_symbol
_atom_type_description
_atom_site_fract_x
_atom_site_fract_y
_atom_site_fract_z
_atom_type_partial_charge
O1    O     O_R   0.350610 0.187000 0.656530 -0.537840
O2    O     O_R   0.649390 0.813000 0.343470 -0.537525
O3    O     O_R   0.149390 0.687000 0.343470 -0.537856
O4    O     O_R   0.850610 0.313000 0.656530 -0.537484
O5    O     O_R   0.655920 0.179060 0.799470 -0.533571
O6    O     O_R   0.344080 0.820940 0.200530 -0.534507
O7    O     O_R   0.844080 0.679060 0.200530 -0.533582
O8    O     O_R   0.155920 0.320940 0.799470 -0.534685
O9    O     O_R   0.826150 0.314000 0.799910 -0.531552
O10   O     O_R   0.173850 0.686000 0.200090 -0.531815
O11   O     O_R   0.673850 0.814000 0.200090 -0.531678
O12   O     O_R   0.326150 0.186000 0.799910 -0.531820
C1    C     C_R   0.486916 0.161255 0.822690 0.723378
C2    C     C_R   0.513093 0.838717 0.177314 0.724545
C3    C     C_R   0.013071 0.661248 0.177316 0.723403
C4    C     C_R   0.986920 0.338716 0.822685 0.724556
O13   O     O_R   0.680230 0.178680 0.657050 -0.538263
O14   O     O_R   0.319770 0.821320 0.342950 -0.538247
O15   O     O_R   0.819770 0.678680 0.342950 -0.538257
O16   O     O_R   0.180230 0.321320 0.657050 -0.538208
C5    C     C_R   0.511663 0.162155 0.633556 0.683058
C6    C     C_R   0.488353 0.837903 0.366385 0.684130
C7    C     C_R   0.988330 0.662153 0.366443 0.683010
C8    C     C_R   0.011656 0.337900 0.633611 0.684158
O17   O     O_3   0.504860 0.294770 0.728200 -0.374952
O18   O     O_3   0.495140 0.705230 0.271800 -0.373859
O19   O     O_3   0.995140 0.794770 0.271800 -0.375014
O20   O     O_3   0.004860 0.205230 0.728200 -0.373839
V1    V     V_3+5 0.779710 0.242290 0.728230 1.412512
V2    V     V_3+5 0.220290 0.757710 0.271770 1.409342
V3    V     V_3+5 0.720290 0.742290 0.271770 1.412371
V4    V     V_3+5 0.279710 0.257710 0.728230 1.409032
H1    H     H_    0.232060 0.451903 0.605214 0.124260
H2    H     H_    0.767741 0.548277 0.395031 0.123467
H3    H     H_    0.267912 0.951883 0.394796 0.124435
H4    H     H_    0.732304 0.048313 0.604939 0.123495
C9    C     C_1   0.023096 0.607255 0.122952 -0.186063
C10   C     C_1   0.976717 0.392372 0.877317 -0.187165
C11   C     C_1   0.476825 0.107313 0.877107 -0.186299
C12   C     C_1   0.523350 0.892371 0.122674 -0.186591
C13   C     C_2   0.058929 0.502770 0.027605 0.330622
C14   C     C_2   0.937956 0.495410 0.973883 0.350830
C15   C     C_2   0.440601 0.003019 0.972660 0.331342
C16   C     C_2   0.562442 0.995381 0.026052 0.351383
C17   C     C_1   0.963547 0.438184 0.921888 -0.044411
C18   C     C_1   0.035349 0.560988 0.078795 -0.065799
C19   C     C_1   0.536637 0.938172 0.078091 -0.045922
C20   C     C_1   0.464428 0.061118 0.921335 -0.065805
C21   C     C_R   0.993530 0.390788 0.576727 -0.063901
C22   C     C_R   0.006388 0.609354 0.423423 -0.064334
C23   C     C_R   0.506498 0.890800 0.423260 -0.063901
C24   C     C_R   0.493594 0.109356 0.576575 -0.064337
H5    H     H_    0.315775 0.564311 0.550129 0.119822
H6    H     H_    0.683987 0.435915 0.450123 0.119928
H7    H     H_    0.184168 0.064281 0.449889 0.119869
H8    H     H_    0.816103 0.935971 0.549832 0.119948
C25   C     C_R   0.195483 0.560048 0.516964 -0.193143
C26   C     C_R   0.804297 0.440167 0.483278 -0.193262
C27   C     C_R   0.304481 0.060031 0.483043 -0.193147
C28   C     C_R   0.695767 0.940207 0.516689 -0.193264
C29   C     C_R   0.160171 0.612872 0.468246 -0.158365
C30   C     C_R   0.839704 0.387302 0.531927 -0.158010
C31   C     C_R   0.339785 0.112856 0.531764 -0.158429
C32   C     C_R   0.660359 0.887337 0.468044 -0.157973
C33   C     C_R   0.885405 0.552125 0.429599 -0.239800
C34   C     C_R   0.114410 0.448062 0.570634 -0.239416
C35   C     C_R   0.614615 0.052148 0.570383 -0.239799
C36   C     C_R   0.385590 0.948058 0.429363 -0.239403
C37   C     C_R   0.921437 0.498226 0.478217 0.155635
C38   C     C_R   0.078339 0.501986 0.522042 0.155528
C39   C     C_R   0.578591 0.998248 0.521764 0.155607
C40   C     C_R   0.421660 0.001987 0.477953 0.155532
H9    H     H_    0.744238 0.343687 0.535142 0.126257
H10   H     H_    0.255682 0.656470 0.464986 0.126298
H11   H     H_    0.755850 0.843735 0.464822 0.126280
H12   H     H_    0.244247 0.156440 0.535035 0.126301
O21   O     O_3   0.798836 0.545873 0.967191 -0.586306
C41   C     C_3   0.645648 0.523109 0.927420 0.089727
H13   H     H_    0.519541 0.548431 0.950073 0.147645
H14   H     H_    0.619720 0.465924 0.931407 0.116713
C42   C     C_3   0.666365 0.546278 0.850403 -0.310755
H15   H     H_    0.671296 0.604255 0.848016 0.200438
H16   H     H_    0.797698 0.525804 0.827102 0.193089
C43   C     C_3   0.504587 0.520174 0.806741 -0.817625
H17   H     H_    0.500409 0.462155 0.806877 0.240309
H18   H     H_    0.521853 0.538378 0.751474 0.226339
H19   H     H_    0.371242 0.540688 0.828371 0.230061
O22   O     O_3   0.198720 0.452425 0.033757 -0.586130
C44   C     C_3   0.328579 0.468820 0.086188 0.066307
H20   H     H_    0.259251 0.471096 0.139036 0.128275
H21   H     H_    0.397034 0.519683 0.074018 0.132161
C45   C     C_3   0.476477 0.411711 0.088073 -0.277717
H22   H     H_    0.411050 0.361496 0.104196 0.198028
H23   H     H_    0.539072 0.404685 0.034737 0.194352
C46   C     C_3   0.629323 0.429927 0.139570 -0.833748
H24   H     H_    0.697614 0.479694 0.123965 0.241926
H25   H     H_    0.735305 0.387866 0.139232 0.235272
H26   H     H_    0.570834 0.435176 0.193826 0.227431
O23   O     O_3   0.703253 0.045325 0.031976 -0.586669
C47   C     C_3   0.853044 0.023588 0.074071 0.089372
H27   H     H_    0.980767 0.048544 0.052351 0.148183
H28   H     H_    0.879536 0.966362 0.071577 0.117438
C48   C     C_3   0.825913 0.048439 0.150299 -0.311570
H29   H     H_    0.820928 0.106457 0.151325 0.200425
H30   H     H_    0.692754 0.028455 0.172480 0.192955
C49   C     C_3   0.983749 0.023331 0.196491 -0.819951
H31   H     H_    0.987753 0.965319 0.197701 0.239936
H32   H     H_    0.961850 0.042769 0.251116 0.227147
H33   H     H_    0.118779 0.043392 0.176003 0.229892
O24   O     O_3   0.299355 0.953175 0.967077 -0.586354
C50   C     C_3   0.169518 0.969665 0.914678 0.066004
H34   H     H_    0.238562 0.971440 0.861755 0.128210
H35   H     H_    0.102203 0.020791 0.926630 0.133542
C51   C     C_3   0.020383 0.912994 0.913279 -0.276369
H36   H     H_    0.084770 0.862400 0.897805 0.198118
H37   H     H_    0.957211 0.906783 0.966626 0.194637
C52   C     C_3   0.868395 0.931104 0.861391 -0.832948
H38   H     H_    0.801664 0.981398 0.876172 0.242753
H39   H     H_    0.761067 0.889521 0.862301 0.235097
H40   H     H_    0.927338 0.935288 0.807108 0.227122

loop_
_geom_bond_atom_site_label_1
_geom_bond_atom_site_label_2
_ccdc_geom_bond_type
C26   C30   A    
C12   C19   T    
O1    C5    A    
H7    C27   S    
O13   V1    S    
C13   C14   D    
O3    C7    A    
C46   H24   S    
C43   H19   S    
O15   V3    S    
C42   H15   S    
H4    C35   S    
O21   C41   S    
O20   V1    S    
O9    C4    A    
C43   H18   S    
O10   C3    A    
C52   H39   S    
O16   V4    S    
O4    C8    A    
O11   C2    A    
C41   H14   S    
C31   H12   S    
O24   C50   S    
C3    C9    S    
C10   C17   T    
O16   C8    A    
O2    C6    A    
C13   C18   S    
C30   H9    S    
O14   V2    S    
C15   O24   S    
C25   C38   A    
C44   H21   S    
C15   C20   S    
O5    C1    A    
O4    V1    S    
C16   C19   S    
O9    V1    S    
C27   C40   A    
O17   V4    S    
O7    C3    A    
O11   V3    S    
O18   V3    S    
O8    C4    A    
O12   V4    S    
O19   V2    S    
C50   C51   S    
H2    C33   S    
C47   H28   S    
C42   H16   S    
H1    C34   S    
C51   H36   S    
O5    V1    S    
C46   H26   S    
O7    V3    S    
C21   C34   A    
O8    V4    S    
C43   H17   S    
C50   H35   S    
C52   H40   S    
H5    C25   S    
C41   H13   S    
C7    C22   S    
C28   C39   A    
O1    V4    S    
O13   C5    A    
H8    C28   S    
O2    V3    S    
C14   C17   S    
C47   C48   S    
O3    V2    S    
O15   C7    A    
C15   C16   D    
O6    C2    A    
O10   V2    S    
O23   C47   S    
C36   C40   A    
C45   H23   S    
C48   H30   S    
O12   C1    A    
C44   C45   S    
C24   C35   A    
O6    V2    S    
C42   C43   S    
H6    C26   S    
C8    C21   S    
C13   O22   S    
C21   C30   A    
C50   H34   S    
O14   C6    A    
C23   C32   A    
C24   C31   A    
C51   H37   S    
C46   H25   S    
C26   C37   A    
C25   C29   A    
C29   H10   S    
C27   C31   A    
C28   C32   A    
C44   H20   S    
C39   C40   A    
C52   H38   S    
C41   C42   S    
C34   C38   A    
C49   H32   S    
H3    C36   S    
C33   C37   A    
C45   H22   S    
C16   O23   S    
C32   H11   S    
C48   C49   S    
C35   C39   A    
C23   C36   A    
C45   C46   S    
C37   C38   A    
C22   C33   A    
C1    C11   S    
C51   C52   S    
C2    C12   S    
O22   C44   S    
C14   O21   S    
C49   H31   S    
C48   H29   S    
C22   C29   A    
C6    C23   S    
C47   H27   S    
C9    C18   T    
C5    C24   S    
C4    C10   S    
C11   C20   T    
C49   H33   S    
