data_mof_unit_57919.cif
_audit_creation_date              2012-12-11T15:08:36-0500
_audit_creation_method            fapswitch 2.2
_symmetry_space_group_name_H-M    P1
_symmetry_Int_Tables_number       1
_space_group_crystal_system       triclinic
_cell_length_a                    26.647552
_cell_length_b                    7.142739
_cell_length_c                    12.211398
_cell_angle_alpha                 89.996172
_cell_angle_beta                  103.249745
_cell_angle_gamma                 89.98475
_cell_volume                      2262.40321526

loop_
_atom_site_label
_atom_site_type_symbol
_atom_type_description
_atom_site_fract_x
_atom_site_fract_y
_atom_site_fract_z
_atom_type_partial_charge
O1    O     O_R   0.437360 0.505910 0.042120 -0.536142
O2    O     O_R   0.562640 0.005910 0.957880 -0.536111
O3    O     O_R   0.542480 0.176660 0.157100 -0.539090
O4    O     O_R   0.457520 0.676660 0.842900 -0.539136
C1    C     C_R   0.556936 0.343785 0.196257 0.686503
C2    C     C_R   0.443089 0.843845 0.803737 0.686526
O5    O     O_R   0.436520 0.176250 0.054800 -0.539617
O6    O     O_R   0.563480 0.676250 0.945200 -0.539569
O7    O     O_R   0.455920 0.005040 0.854840 -0.545088
O8    O     O_R   0.544080 0.505040 0.145160 -0.545084
C3    C     C_R   0.418754 0.344881 0.068794 0.683733
C4    C     C_R   0.581230 0.844840 0.931099 0.683599
O9    O     O_3   0.506490 0.338900 0.934520 -0.376148
O10   O     O_3   0.493510 0.838900 0.065480 -0.376106
V1    V     V_3+5 0.498800 0.064400 0.012150 1.411984
V2    V     V_3+5 0.501200 0.564400 0.987850 1.411969
C5    C     C_R   0.682614 0.776559 0.761718 -0.173996
C6    C     C_R   0.317389 0.278817 0.238309 -0.173609
H1    H     H_    0.685676 0.733355 0.679240 0.115041
H2    H     H_    0.314328 0.236833 0.320989 0.114948
C7    C     C_R   0.630288 0.848558 0.893776 -0.080876
C8    C     C_R   0.369692 0.348837 0.105994 -0.080529
C9    C     C_R   0.864926 0.896565 0.210562 0.050996
C10   C     C_R   0.134775 0.393422 0.789148 0.049806
C11   C     C_R   0.817432 0.889525 0.240363 -0.174886
C12   C     C_R   0.182307 0.388437 0.759364 -0.175588
C13   C     C_R   0.771277 0.849392 0.163109 0.085073
C14   C     C_R   0.228571 0.349312 0.836587 0.085144
C15   C     C_R   0.771031 0.845783 0.045699 0.042051
C16   C     C_R   0.228914 0.346082 0.954069 0.042170
C17   C     C_R   0.819871 0.843145 0.015177 -0.013839
C18   C     C_R   0.180109 0.343682 0.984732 -0.013670
C19   C     C_R   0.724937 0.840628 0.957402 0.055675
C20   C     C_R   0.275043 0.341293 0.042358 0.055622
C21   C     C_R   0.728270 0.804456 0.845070 0.068087
C22   C     C_R   0.271736 0.306145 0.154844 0.068116
C23   C     C_R   0.776826 0.803077 0.816453 0.057006
C24   C     C_R   0.223204 0.305141 0.183507 0.057202
C25   C     C_R   0.821418 0.820535 0.901994 -0.191957
C26   C     C_R   0.178611 0.322164 0.097983 -0.191833
C27   C     C_R   0.675562 0.880142 0.975576 -0.239912
C28   C     C_R   0.324427 0.380130 0.024066 -0.239935
C29   C     C_R   0.633349 0.798915 0.783554 0.081280
C30   C     C_R   0.366646 0.300219 0.216365 0.080938
C31   C     C_R   0.866956 0.865060 0.097729 -0.097429
C32   C     C_R   0.132964 0.364312 0.902246 -0.097377
H3    H     H_    0.670936 0.937299 0.053155 0.139185
H4    H     H_    0.329088 0.436601 0.946337 0.139008
H5    H     H_    0.817028 0.901749 0.327873 0.143660
H6    H     H_    0.182707 0.401323 0.671882 0.143744
H7    H     H_    0.858265 0.815923 0.880061 0.120826
H8    H     H_    0.141776 0.317820 0.119941 0.120334
C33   C     C_R   0.091982 0.858161 0.305991 -0.039048
C34   C     C_R   0.908149 0.359111 0.693751 -0.039185
C35   C     C_R   0.408665 0.845318 0.691579 -0.056853
C36   C     C_R   0.591382 0.344981 0.308429 -0.056935
C37   C     C_R   0.101408 0.843497 0.506063 -0.169871
C38   C     C_R   0.898601 0.348230 0.493556 -0.168166
C39   C     C_R   0.070240 0.851516 0.398566 -0.191828
C40   C     C_R   0.929831 0.357895 0.600962 -0.180029
C41   C     C_R   0.145561 0.853245 0.320151 -0.228313
C42   C     C_R   0.854593 0.351174 0.679712 -0.229362
C43   C     C_R   0.178430 0.838623 0.429084 0.105069
C44   C     C_R   0.821670 0.337794 0.570756 0.105497
C45   C     C_R   0.155177 0.839636 0.522131 0.088781
C46   C     C_R   0.844862 0.341243 0.477639 0.086121
C47   C     C_R   0.233180 0.822872 0.448307 -0.016022
C48   C     C_R   0.766927 0.321054 0.551543 -0.014873
C49   C     C_R   0.264644 0.832147 0.560786 0.003704
C50   C     C_R   0.735426 0.330994 0.439110 0.003614
C51   C     C_R   0.239167 0.831476 0.652186 0.280129
C52   C     C_R   0.760863 0.331177 0.347675 0.281033
C53   C     C_R   0.185280 0.835133 0.630785 -0.314547
C54   C     C_R   0.814733 0.336416 0.369001 -0.314273
C55   C     C_R   0.256983 0.789154 0.358118 -0.198753
C56   C     C_R   0.743146 0.286305 0.641648 -0.198627
C57   C     C_R   0.309798 0.770729 0.375035 -0.222238
C58   C     C_R   0.690329 0.267775 0.624715 -0.222462
C59   C     C_R   0.341499 0.792218 0.481633 0.107407
C60   C     C_R   0.658599 0.290170 0.518207 0.107532
C61   C     C_R   0.320024 0.830439 0.575849 0.098767
C62   C     C_R   0.680048 0.329171 0.424069 0.098561
C63   C     C_R   0.394983 0.774564 0.494266 -0.189430
C64   C     C_R   0.605115 0.272658 0.505586 -0.189667
C65   C     C_R   0.428081 0.796028 0.599143 -0.170063
C66   C     C_R   0.571994 0.294998 0.400794 -0.169905
C67   C     C_R   0.355446 0.866315 0.679882 -0.208921
C68   C     C_R   0.644609 0.365817 0.320134 -0.209061
H9    H     H_    0.166439 0.833765 0.700681 0.133214
H10   H     H_    0.833539 0.336338 0.299044 0.132749
H11   H     H_    0.343822 0.914708 0.753462 0.177775
H12   H     H_    0.656242 0.414627 0.246646 0.177703
H13   H     H_    0.468953 0.774025 0.608737 0.118898
H14   H     H_    0.531125 0.272968 0.391190 0.118942
H15   H     H_    0.326063 0.740461 0.303269 0.143011
H16   H     H_    0.674083 0.236852 0.696418 0.143085
H17   H     H_    0.083332 0.843922 0.576925 0.113090
H18   H     H_    0.916559 0.349826 0.422499 0.112095
H19   H     H_    0.029062 0.857991 0.386645 0.139256
H20   H     H_    0.970986 0.368423 0.612561 0.133942
H21   H     H_    0.160163 0.864941 0.245062 0.100375
H22   H     H_    0.840053 0.359799 0.754999 0.100357
H23   H     H_    0.235454 0.767424 0.273002 0.141603
H24   H     H_    0.764669 0.264144 0.726719 0.141548
H25   H     H_    0.411215 0.741488 0.422877 0.129366
H26   H     H_    0.588899 0.239001 0.576911 0.129469
O11   O     O_R   0.955980 0.206520 0.854760 -0.538751
O12   O     O_R   0.044020 0.706520 0.145240 -0.538915
O13   O     O_R   0.063490 0.536770 0.945200 -0.541762
O14   O     O_R   0.936510 0.036770 0.054800 -0.541869
C69   C     C_R   0.082488 0.368765 0.935419 0.682400
C70   C     C_R   0.917531 0.868877 0.064784 0.682952
O15   O     O_R   0.957530 0.536190 0.842880 -0.548795
O16   O     O_R   0.042470 0.036190 0.157120 -0.549109
O17   O     O_R   0.937350 0.707210 0.042130 -0.537236
O18   O     O_R   0.062650 0.207210 0.957870 -0.537044
C71   C     C_R   0.941935 0.368110 0.805667 0.684558
C72   C     C_R   0.058177 0.867983 0.194164 0.685124
O19   O     O_3   0.993540 0.373870 0.065440 -0.376278
O20   O     O_3   0.006460 0.873870 0.934560 -0.375990
V3    V     V_3+5 0.001200 0.648440 0.987860 1.397997
V4    V     V_3+5 0.998800 0.148440 0.012140 1.397804
C73   C     C_3   0.584575 0.780354 0.689592 -0.378910
C74   C     C_3   0.594479 0.773552 0.569715 -0.312586
C75   C     C_3   0.545333 0.780848 0.477199 -0.763769
H27   H     H_    0.520457 0.659723 0.483660 0.219943
H28   H     H_    0.524168 0.912211 0.482504 0.219957
H29   H     H_    0.555252 0.775604 0.393752 0.232117
H30   H     H_    0.619045 0.893666 0.557534 0.204579
H31   H     H_    0.614835 0.642216 0.558678 0.212758
H32   H     H_    0.563410 0.652250 0.704411 0.173466
H33   H     H_    0.559559 0.903434 0.694125 0.157179
C76   C     C_3   0.415437 0.281487 0.310297 -0.378878
C77   C     C_3   0.405587 0.275023 0.430225 -0.312591
C78   C     C_3   0.454780 0.280952 0.522645 -0.763707
H34   H     H_    0.479321 0.158791 0.516199 0.219978
H35   H     H_    0.476287 0.411424 0.517207 0.220021
H36   H     H_    0.444887 0.276559 0.606136 0.232088
H37   H     H_    0.381262 0.395818 0.442530 0.204605
H38   H     H_    0.384999 0.144251 0.441253 0.212747
H39   H     H_    0.436532 0.153143 0.295527 0.173486
H40   H     H_    0.440507 0.404315 0.305643 0.157234
O21   O     O_3   0.266471 0.816931 0.762489 -0.683125
H41   H     H_    0.242781 0.815917 0.814408 0.293555
O22   O     O_3   0.733547 0.316063 0.237412 -0.683094
H42   H     H_    0.757217 0.315620 0.185447 0.293527
C79   C     C_3   0.780274 0.796278 0.693555 -0.381335
C80   C     C_3   0.832618 0.848238 0.669727 -0.291552
C81   C     C_3   0.828165 0.868180 0.544166 -0.773711
H43   H     H_    0.823220 0.728953 0.502986 0.232550
H44   H     H_    0.794827 0.957294 0.506112 0.226774
H45   H     H_    0.863043 0.937595 0.528941 0.239898
H46   H     H_    0.845871 0.983433 0.710787 0.206928
H47   H     H_    0.861875 0.739316 0.702693 0.203064
H48   H     H_    0.769171 0.655044 0.659731 0.191250
H49   H     H_    0.751767 0.897593 0.646206 0.192887
C82   C     C_3   0.219763 0.298761 0.306395 -0.381904
C83   C     C_3   0.167264 0.348866 0.329980 -0.291645
C84   C     C_3   0.171567 0.367465 0.455452 -0.774434
H50   H     H_    0.177888 0.228349 0.496569 0.231700
H51   H     H_    0.204058 0.460305 0.493462 0.226983
H52   H     H_    0.135992 0.431765 0.470435 0.244654
H53   H     H_    0.153741 0.484126 0.289257 0.207521
H54   H     H_    0.138267 0.239338 0.296691 0.203187
H55   H     H_    0.231231 0.157964 0.340587 0.191248
H56   H     H_    0.247977 0.401145 0.353540 0.193279
C85   C     C_3   0.912443 0.925119 0.304826 -0.383982
C86   C     C_3   0.925292 0.746425 0.376079 -0.299059
C87   C     C_3   0.957039 0.784342 0.495976 -0.773786
H57   H     H_    0.990374 0.687791 0.516666 0.211049
H58   H     H_    0.971658 0.929964 0.506883 0.226937
H59   H     H_    0.933784 0.757979 0.558828 0.240437
H60   H     H_    0.889107 0.675443 0.382651 0.209155
H61   H     H_    0.946668 0.648672 0.332324 0.184540
H62   H     H_    0.946528 0.968109 0.273194 0.157302
H63   H     H_    0.904361 0.041545 0.358140 0.184136
C88   C     C_3   0.087062 0.420690 0.695071 -0.377486
C89   C     C_3   0.076223 0.246194 0.619137 -0.295495
C90   C     C_3   0.045135 0.289013 0.499232 -0.778823
H64   H     H_    0.006597 0.223139 0.483633 0.209546
H65   H     H_    0.040459 0.441142 0.482335 0.228467
H66   H     H_    0.064760 0.229632 0.436282 0.240227
H67   H     H_    0.113168 0.181121 0.612429 0.208009
H68   H     H_    0.055348 0.141047 0.659099 0.184073
H69   H     H_    0.052392 0.454362 0.726948 0.154814
H70   H     H_    0.094176 0.543374 0.645485 0.179809
C91   C     C_3   0.728867 0.768372 0.214695 -0.385439
C92   C     C_3   0.702968 0.913000 0.277137 -0.300232
C93   C     C_3   0.661249 0.826004 0.327679 -0.776047
H71   H     H_    0.631558 0.757155 0.261224 0.238183
H72   H     H_    0.678619 0.723801 0.393953 0.232258
H73   H     H_    0.642169 0.937011 0.367050 0.234982
H74   H     H_    0.732277 0.973640 0.346716 0.208718
H75   H     H_    0.685154 0.027927 0.221281 0.238979
H76   H     H_    0.700236 0.685173 0.153857 0.192743
H77   H     H_    0.747466 0.665961 0.278804 0.205843
C94   C     C_3   0.270989 0.268598 0.784894 -0.385304
C95   C     C_3   0.296765 0.413391 0.722353 -0.300980
C96   C     C_3   0.338557 0.326697 0.671874 -0.775520
H78   H     H_    0.368278 0.257961 0.738354 0.238103
H79   H     H_    0.321263 0.224440 0.605602 0.232230
H80   H     H_    0.357581 0.437854 0.632512 0.234792
H81   H     H_    0.267399 0.473742 0.652702 0.208786
H82   H     H_    0.314499 0.528377 0.778214 0.239291
H83   H     H_    0.299668 0.185384 0.845656 0.192862
H84   H     H_    0.252422 0.166197 0.720785 0.205915

loop_
_geom_bond_atom_site_label_1
_geom_bond_atom_site_label_2
_ccdc_geom_bond_type
C56   H24   S    
C78   H36   S    
C25   H7    S    
C43   C45   A    
C35   C65   A    
C82   C83   S    
C9    C31   A    
C67   H11   S    
C73   H33   S    
C13   C15   A    
C39   H19   S    
C87   H57   S    
O15   C71   A    
C1    C36   S    
C94   H83   S    
C79   C80   S    
C38   H18   S    
C2    C35   S    
C60   C64   A    
O2    C4    A    
C2    O7    A    
O22   H42   S    
C33   C39   A    
C31   C70   S    
C45   C53   A    
C73   C74   S    
C34   C40   A    
C95   C96   S    
C86   H61   S    
C76   H40   S    
O18   V4    S    
C74   C75   S    
O17   V3    S    
C44   C48   A    
C51   O21   S    
C21   C23   A    
C56   C58   A    
O13   C69   A    
C77   H38   S    
C91   H77   S    
C58   C60   A    
C36   C68   A    
C38   C40   A    
O21   H41   S    
C46   C54   A    
C15   C19   A    
C88   H69   S    
C93   H72   S    
C49   C51   A    
C42   C44   A    
C66   H14   S    
C5    H1    S    
C7    C29   A    
C65   H13   S    
C38   C46   A    
C8    C30   A    
C68   H12   S    
C58   H16   S    
C20   C28   A    
C59   C63   A    
O1    C3    A    
C96   H80   S    
C64   H26   S    
C84   H51   S    
C69   O18   A    
C16   C18   A    
C79   H48   S    
O12   V3    S    
C20   C22   A    
C89   H67   S    
C83   H54   S    
C90   H66   S    
C73   H32   S    
O5    V1    S    
C92   H75   S    
C96   H78   S    
O6    V2    S    
C32   C69   S    
C90   H65   S    
C55   H23   S    
C87   H58   S    
C81   H44   S    
C94   H84   S    
C94   C95   S    
C80   H47   S    
C12   C14   A    
O20   V4    S    
C89   C90   S    
C11   H5    S    
O19   V3    S    
C86   H60   S    
C43   C47   A    
C84   H52   S    
C16   C20   A    
O12   C72   A    
C78   H34   S    
C49   C61   A    
C80   C81   S    
C52   C54   A    
C81   H45   S    
C82   H55   S    
C85   C86   S    
C51   C53   A    
C33   C72   S    
C28   H4    S    
C34   C42   A    
O3    C1    A    
C26   H8    S    
C4    C7    S    
C57   H15   S    
C88   H70   S    
C63   H25   S    
C92   C93   S    
C47   C49   A    
C44   C46   A    
C83   C84   S    
O4    V2    S    
C93   H73   S    
O5    C3    A    
C5    C29   A    
O2    V1    S    
C6    C30   A    
C75   H29   S    
C76   C77   S    
C36   C66   A    
C84   H50   S    
C17   C25   A    
O6    C4    A    
C37   H17   S    
C41   H21   S    
C41   C43   A    
C27   H3    S    
C57   C59   A    
C74   H31   S    
O1    V2    S    
C13   C91   S    
C23   C79   S    
C75   H28   S    
C79   H49   S    
C55   C57   A    
O16   C72   A    
C83   H53   S    
C7    C27   A    
C60   C62   A    
C86   C87   S    
C63   C65   A    
C92   H74   S    
C95   H82   S    
C75   H27   S    
C87   H59   S    
C9    C85   S    
C34   C71   S    
O4    C2    A    
C47   C55   A    
C80   H46   S    
C33   C41   A    
C29   C73   S    
C77   H37   S    
O3    V1    S    
O20   V3    S    
C85   H62   S    
O19   V4    S    
C30   C76   S    
C78   H35   S    
C91   H76   S    
C18   C32   A    
C24   C82   S    
C10   C12   A    
C40   H20   S    
C82   H56   S    
C59   C61   A    
C77   C78   S    
C48   C56   A    
C3    C8    S    
C76   H39   S    
C14   C94   S    
C10   C32   A    
C54   H10   S    
C12   H6    S    
O7    V1    S    
C19   C27   A    
C1    O8    A    
C15   C17   A    
O8    V2    S    
C81   H43   S    
O14   V4    S    
C10   C88   S    
C24   C26   A    
C61   C67   A    
O13   V3    S    
C8    C28   A    
C62   C68   A    
C22   C24   A    
C19   C21   A    
C14   C16   A    
C74   H30   S    
C6    H2    S    
C18   C26   A    
C35   C67   A    
C93   H71   S    
C50   C62   A    
O14   C70   A    
C37   C39   A    
C53   H9    S    
C90   H64   S    
O16   V4    S    
C91   C92   S    
C9    C11   A    
O15   V3    S    
C23   C25   A    
C88   C89   S    
C17   C31   A    
O9    V2    S    
C95   H81   S    
C96   H79   S    
C48   C50   A    
O10   V1    S    
C64   C66   A    
C50   C52   A    
C5    C21   A    
O11   V4    S    
C42   H22   S    
C6    C22   A    
O11   C71   A    
C70   O17   A    
C89   H68   S    
C52   O22   S    
C85   H63   S    
C37   C45   A    
C11   C13   A    
