data_mof_unit_45667.cif
_audit_creation_date              2012-12-10T19:10:05-0500
_audit_creation_method            fapswitch 2.2
_symmetry_space_group_name_H-M    P1
_symmetry_Int_Tables_number       1
_space_group_crystal_system       triclinic
_cell_length_a                    10.961971
_cell_length_b                    10.9212
_cell_length_c                    9.67236
_cell_angle_alpha                 92.486867
_cell_angle_beta                  91.941622
_cell_angle_gamma                 89.610844
_cell_volume                      1156.18322562

loop_
_atom_site_label
_atom_site_type_symbol
_atom_type_description
_atom_site_fract_x
_atom_site_fract_y
_atom_site_fract_z
_atom_type_partial_charge
C1    C     C_R   0.501558 0.261983 0.497526 0.810718
C2    C     C_R   0.245191 0.737521 0.064681 -0.089682
C3    C     C_R   0.932551 0.562624 0.391819 -0.206210
C4    C     C_R   0.873604 0.516261 0.505786 -0.020484
C5    C     C_R   0.947695 0.482981 0.620451 0.048224
C6    C     C_R   0.072315 0.469714 0.608648 -0.216180
C7    C     C_R   0.130070 0.508594 0.493485 -0.081381
C8    C     C_R   0.060707 0.561807 0.386026 -0.016036
C9    C     C_R   0.930520 0.582454 0.855545 -0.010412
C10   C     C_R   0.918805 0.567278 0.997465 -0.235066
C11   C     C_R   0.882717 0.455108 0.045466 -0.209458
C12   C     C_R   0.263153 0.503295 0.497632 0.783547
C13   C     C_R   0.861342 0.356102 0.953203 0.065696
C14   C     C_R   0.878463 0.367325 0.812573 -0.215936
C15   C     C_R   0.907834 0.480653 0.762368 0.038667
C16   C     C_R   0.462152 0.069707 0.614653 0.087393
C17   C     C_R   0.493115 0.127140 0.493389 -0.171715
C18   C     C_R   0.510697 0.051815 0.372380 -0.018316
C19   C     C_R   0.483013 0.927049 0.373630 -0.227630
C20   C     C_R   0.470403 0.869470 0.498778 -0.098268
C21   C     C_R   0.452252 0.942684 0.617355 0.123449
C22   C     C_3   0.519022 0.935462 0.752124 -0.427910
C23   C     C_R   0.490578 0.736828 0.501325 0.797910
C24   C     C_3   0.532327 0.073206 0.750938 -0.216873
C25   C     C_R   0.529374 0.602617 0.079734 0.245517
C26   C     C_R   0.446599 0.407251 0.066005 0.108826
C27   C     C_R   0.450907 0.406340 0.917926 -0.048946
C28   C     C_R   0.526551 0.603917 0.933632 0.201468
C29   C     C_3   0.641137 0.675403 0.938380 -0.454850
C30   C     C_3   0.644243 0.672183 0.095098 -0.456715
C31   C     C_R   0.738114 0.506206 0.502421 0.816654
C32   C     C_R   0.214487 0.806115 0.183663 -0.051204
C33   C     C_R   0.152992 0.751504 0.290479 0.002753
C34   C     C_R   0.121158 0.625852 0.274883 0.016295
C35   C     C_R   0.156298 0.557440 0.156367 -0.109207
C36   C     C_R   0.215778 0.613583 0.050866 -0.146256
Cu1   Cu    Cu3+1 0.499990 0.499980 0.640670 0.952595
Cu2   Cu    Cu3+1 0.500010 0.500020 0.359330 0.981040
H1    H     H_    0.292241 0.780502 0.983112 0.143101
H2    H     H_    0.865598 0.445738 0.153597 0.168448
H3    H     H_    0.867535 0.288693 0.741305 0.161090
H4    H     H_    0.492318 0.871342 0.279538 0.191250
H5    H     H_    0.459462 0.904774 0.834568 0.194875
H6    H     H_    0.605108 0.883456 0.738131 0.235320
H7    H     H_    0.482006 0.121971 0.834515 0.181903
H8    H     H_    0.239867 0.901869 0.192524 0.190616
H9    H     H_    0.410530 0.331470 0.856070 0.167271
H10   H     H_    0.711343 0.622929 0.883996 0.234509
H11   H     H_    0.628423 0.769495 0.905910 0.203735
H12   H     H_    0.718673 0.617077 0.140637 0.212692
H13   H     H_    0.631779 0.763770 0.146708 0.214598
H14   H     H_    0.136084 0.460513 0.145076 0.142604
H15   H     H_    0.238952 0.560860 0.958089 0.131417
H16   H     H_    0.879064 0.604958 0.310925 0.133688
H17   H     H_    0.125664 0.436503 0.696175 0.165519
H18   H     H_    0.929804 0.644815 0.070243 0.189199
N1    N     N_R   0.500790 0.500930 0.147930 -0.211554
N2    N     N_R   0.500790 0.500890 0.852020 -0.203518
O1    O     O_R   0.500000 0.319640 0.618810 -0.610833
O2    O     O_R   0.500010 0.319680 0.381230 -0.564401
O3    O     O_R   0.319640 0.499990 0.618790 -0.592363
O4    O     O_R   0.319650 0.500030 0.381210 -0.610715
O5    O     O_R   0.499990 0.680320 0.618770 -0.581278
O6    O     O_R   0.500000 0.680360 0.381190 -0.595964
O7    O     O_R   0.680350 0.499970 0.618790 -0.574451
O8    O     O_R   0.680360 0.500010 0.381210 -0.566573
C37   C     C_2   0.793873 0.252602 0.998340 0.855564
O9    O     O_2   0.838856 0.149963 0.997644 -0.537710
O10   O     O_R   0.672829 0.273665 0.030906 -0.748712
H19   H     H_    0.620202 0.199060 0.015046 0.340074
C38   C     C_2   0.590011 0.085621 0.259684 0.903646
O11   O     O_2   0.667693 0.164642 0.280447 -0.550253
O12   O     O_R   0.588385 0.012881 0.136674 -0.798499
H20   H     H_    0.666909 0.016676 0.085038 0.357965
C39   C     C_2   0.661370 0.117821 0.738419 0.414920
H21   H     H_    0.676201 0.215075 0.732953 0.077294
O13   O     O_2   0.748613 0.047794 0.733109 -0.510598
C40   C     C_2   0.376022 0.309222 0.126475 0.359836
H22   H     H_    0.330507 0.325208 0.222622 0.127457
O14   O     O_2   0.363453 0.209396 0.065979 -0.576476
C41   C     C_2   0.126184 0.825002 0.418604 0.337066
H23   H     H_    0.085655 0.782491 0.504889 0.108537
O15   O     O_2   0.150167 0.934098 0.429947 -0.523444
C42   C     C_2   0.954543 0.707315 0.807641 0.838383
O16   O     O_2   0.011679 0.781112 0.882763 -0.562913
O17   O     O_R   0.905832 0.743369 0.680302 -0.778626
H24   H     H_    0.922893 0.832445 0.663107 0.364283

loop_
_geom_bond_atom_site_label_1
_geom_bond_atom_site_label_2
_ccdc_geom_bond_type
C31   O8    A    
C30   H13   S    
C16   C21   A    
O12   H20   S    
C35   C36   A    
C6    H17   S    
C41   H23   S    
C7    C8    A    
C29   H11   S    
C25   C28   A    
C26   C27   A    
C26   C40   S    
C24   H7    S    
C28   C29   S    
Cu1   Cu2   S    
C42   O17   S    
C18   C19   A    
C1    O1    A    
C5    C6    A    
C3    H16   S    
C40   O14   D    
C27   H9    S    
C25   C30   S    
C2    C32   A    
C34   C35   A    
C36   H15   S    
Cu1   O5    S    
C2    H1    S    
C22   H6    S    
Cu2   O8    S    
C16   C17   A    
Cu1   O7    S    
C10   H18   S    
C9    C10   A    
Cu1   N2    S    
C19   H4    S    
C23   O5    A    
C30   H12   S    
C16   C24   S    
C21   C22   S    
O10   H19   S    
C25   N1    A    
C41   O15   D    
C33   C34   A    
Cu2   O6    S    
C7    C12   S    
C29   H10   S    
C37   O9    D    
C42   O16   D    
C3    C8    A    
C1    O2    A    
C38   O12   S    
O17   H24   S    
C37   O10   S    
C39   H21   S    
C29   C30   S    
Cu2   N1    S    
C12   O4    A    
C22   H5    S    
C20   C23   S    
C17   C18   A    
C8    C34   S    
C39   O13   D    
Cu1   O1    S    
C14   H3    S    
Cu2   O2    S    
C23   O6    A    
C22   C24   S    
C3    C4    A    
C13   C37   S    
C2    C36   A    
C18   C38   S    
C31   O7    A    
C40   H22   S    
C32   H8    S    
C4    C5    A    
C27   N2    A    
Cu1   O3    S    
C24   C39   S    
C6    C7    A    
C28   N2    A    
C1    C17   S    
C32   C33   A    
C19   C20   A    
C9    C15   A    
C38   O11   D    
C12   O3    A    
C11   C13   A    
C11   H2    S    
C26   N1    A    
C5    C15   S    
C4    C31   S    
C10   C11   A    
C9    C42   S    
C20   C21   A    
C35   H14   S    
C14   C15   A    
C13   C14   A    
C33   C41   S    
Cu2   O4    S    
