data_mof_unit_56969.cif
_audit_creation_date              2012-10-26T17:10:23-0400
_audit_creation_method            fapswitch 2.2
_symmetry_space_group_name_H-M    P1
_symmetry_Int_Tables_number       1
_space_group_crystal_system       triclinic
_cell_length_a                    16.892567
_cell_length_b                    16.88605
_cell_length_c                    16.898913
_cell_angle_alpha                 67.3385
_cell_angle_beta                  67.325502
_cell_angle_gamma                 67.350082
_cell_volume                      3942.83703864

loop_
_atom_site_label
_atom_site_type_symbol
_atom_type_description
_atom_site_fract_x
_atom_site_fract_y
_atom_site_fract_z
_atom_type_partial_charge
C1    C     C_R   0.596253 0.021769 0.596690 0.071014
C2    C     C_R   0.403747 0.978231 0.403310 0.071015
C3    C     C_R   0.021837 0.596183 0.596703 0.071070
C4    C     C_R   0.978163 0.403816 0.403297 0.071070
C5    C     C_R   0.596653 0.596210 0.021856 0.071315
C6    C     C_R   0.403347 0.403790 0.978144 0.071315
C7    C     C_R   0.022936 0.829768 0.566803 0.805707
C8    C     C_R   0.977064 0.170232 0.433197 0.805706
C9    C     C_R   0.829786 0.566791 0.023007 0.806369
C10   C     C_R   0.170214 0.433209 0.976993 0.806368
C11   C     C_R   0.566804 0.022985 0.829799 0.806055
C12   C     C_R   0.433195 0.977015 0.170201 0.806054
C13   C     C_R   0.433199 0.170238 0.977058 0.805941
C14   C     C_R   0.566801 0.829762 0.022942 0.805941
C15   C     C_R   0.977010 0.433198 0.170207 0.806301
C16   C     C_R   0.022990 0.566802 0.829793 0.806301
C17   C     C_R   0.170224 0.977081 0.433185 0.805634
C18   C     C_R   0.829775 0.022919 0.566815 0.805634
C19   C     C_R   0.546483 0.011126 0.547235 0.108268
C20   C     C_R   0.453517 0.988874 0.452765 0.108268
C21   C     C_R   0.011183 0.546420 0.547255 0.110053
C22   C     C_R   0.988817 0.453580 0.452745 0.110053
C23   C     C_R   0.547220 0.546456 0.011174 0.109619
C24   C     C_R   0.452779 0.453544 0.988826 0.109619
C25   C     C_R   0.553653 0.058528 0.456956 -0.174416
C26   C     C_R   0.446347 0.941472 0.543044 -0.174416
C27   C     C_R   0.952315 0.492444 0.589691 -0.173193
C28   C     C_R   0.047685 0.507556 0.410309 -0.173193
C29   C     C_R   0.456972 0.553431 0.058702 -0.176907
C30   C     C_R   0.543028 0.446569 0.941298 -0.176907
C31   C     C_R   0.507641 0.047610 0.410292 -0.171990
C32   C     C_R   0.492359 0.952390 0.589708 -0.171990
C33   C     C_R   0.410311 0.507433 0.047735 -0.175031
C34   C     C_R   0.589689 0.492567 0.952265 -0.175031
C35   C     C_R   0.941338 0.446490 0.543001 -0.175414
C36   C     C_R   0.058661 0.553509 0.456999 -0.175414
C37   C     C_R   0.556486 0.024726 0.685660 -0.199341
C38   C     C_R   0.443514 0.975274 0.314340 -0.199341
C39   C     C_R   0.024769 0.685237 0.556665 -0.199475
C40   C     C_R   0.975231 0.314763 0.443334 -0.199475
C41   C     C_R   0.685622 0.556436 0.024806 -0.201536
C42   C     C_R   0.314377 0.443564 0.975194 -0.201536
C43   C     C_R   0.314703 0.975306 0.443336 -0.198712
C44   C     C_R   0.685297 0.024694 0.556664 -0.198712
C45   C     C_R   0.443382 0.314745 0.975225 -0.201222
C46   C     C_R   0.556617 0.685254 0.024775 -0.201222
C47   C     C_R   0.975244 0.443572 0.314330 -0.200734
C48   C     C_R   0.024756 0.556428 0.685670 -0.200734
C49   C     C_R   0.605182 0.029379 0.734312 -0.060886
C50   C     C_R   0.394817 0.970621 0.265688 -0.060887
C51   C     C_R   0.029500 0.734141 0.605152 -0.061295
C52   C     C_R   0.970500 0.265859 0.394848 -0.061295
C53   C     C_R   0.734292 0.605156 0.029437 -0.060989
C54   C     C_R   0.265708 0.394844 0.970563 -0.060989
C55   C     C_R   0.265835 0.970544 0.394839 -0.061207
C56   C     C_R   0.734165 0.029456 0.605161 -0.061207
C57   C     C_R   0.394866 0.265857 0.970486 -0.061177
C58   C     C_R   0.605134 0.734143 0.029513 -0.061177
C59   C     C_R   0.970600 0.394838 0.265688 -0.060934
C60   C     C_R   0.029400 0.605162 0.734312 -0.060933
C61   C     C_R   0.693191 0.033177 0.693186 -0.227234
C62   C     C_R   0.306809 0.966822 0.306814 -0.227234
C63   C     C_R   0.033203 0.693190 0.693178 -0.226324
C64   C     C_R   0.966797 0.306810 0.306822 -0.226324
C65   C     C_R   0.693178 0.693183 0.033228 -0.225407
C66   C     C_R   0.306822 0.306816 0.966772 -0.225407
Cu1   Cu    Cu3+1 0.995180 0.995180 0.424630 0.938256
Cu2   Cu    Cu3+1 0.004820 0.004820 0.575370 0.938256
Cu3   Cu    Cu3+1 0.995180 0.424630 0.995180 0.936651
Cu4   Cu    Cu3+1 0.004820 0.575370 0.004820 0.936650
Cu5   Cu    Cu3+1 0.424630 0.995180 0.995180 0.937383
Cu6   Cu    Cu3+1 0.575370 0.004820 0.004820 0.937383
H1    H     H_    0.486755 0.913629 0.658740 0.131302
H2    H     H_    0.513245 0.086371 0.341260 0.131302
H3    H     H_    0.105297 0.593659 0.422804 0.128792
H4    H     H_    0.894703 0.406341 0.577196 0.128792
H5    H     H_    0.658705 0.487141 0.913421 0.128710
H6    H     H_    0.341295 0.512859 0.086579 0.128710
H7    H     H_    0.406097 0.894928 0.577280 0.130441
H8    H     H_    0.593903 0.105072 0.422719 0.130441
H9    H     H_    0.577232 0.406481 0.894635 0.129077
H10   H     H_    0.422768 0.593519 0.105365 0.129077
H11   H     H_    0.086499 0.513079 0.341294 0.128461
H12   H     H_    0.913501 0.486921 0.658706 0.128461
H13   H     H_    0.731082 0.035533 0.730985 0.174690
H14   H     H_    0.268918 0.964467 0.269014 0.174690
H15   H     H_    0.035541 0.731114 0.730975 0.174939
H16   H     H_    0.964459 0.268885 0.269025 0.174939
H17   H     H_    0.731002 0.731101 0.035561 0.175203
H18   H     H_    0.268998 0.268899 0.964439 0.175203
O1    O     O_R   0.124540 0.978640 0.385460 -0.588958
O2    O     O_R   0.875460 0.021360 0.614540 -0.588959
O3    O     O_R   0.978640 0.385460 0.124540 -0.588299
O4    O     O_R   0.021360 0.614540 0.875460 -0.588299
O5    O     O_R   0.385460 0.124540 0.978640 -0.587963
O6    O     O_R   0.614540 0.875460 0.021360 -0.587963
O7    O     O_R   0.614540 0.021360 0.875460 -0.588963
O8    O     O_R   0.385460 0.978640 0.124540 -0.588963
O9    O     O_R   0.875460 0.614540 0.021360 -0.587977
O10   O     O_R   0.124540 0.385460 0.978640 -0.587977
O11   O     O_R   0.021360 0.875460 0.614540 -0.588672
O12   O     O_R   0.978640 0.124540 0.385460 -0.588672
O13   O     O_R   0.013780 0.867370 0.487190 -0.591703
O14   O     O_R   0.986220 0.132630 0.512810 -0.591703
O15   O     O_R   0.867370 0.487190 0.013780 -0.593296
O16   O     O_R   0.132630 0.512810 0.986220 -0.593296
O17   O     O_R   0.487190 0.013780 0.867370 -0.592016
O18   O     O_R   0.512810 0.986220 0.132630 -0.592016
O19   O     O_R   0.512810 0.132630 0.986220 -0.592725
O20   O     O_R   0.487190 0.867370 0.013780 -0.592725
O21   O     O_R   0.986220 0.512810 0.132630 -0.592956
O22   O     O_R   0.013780 0.487190 0.867370 -0.592956
O23   O     O_R   0.132630 0.986220 0.512810 -0.591415
O24   O     O_R   0.867370 0.013780 0.487190 -0.591414
H19   H     H_    0.487911 0.022145 0.717286 0.148006
H20   H     H_    0.512089 0.977855 0.282714 0.148006
H21   H     H_    0.019687 0.717399 0.488937 0.148256
H22   H     H_    0.980313 0.282601 0.511063 0.148256
H23   H     H_    0.717236 0.487851 0.022211 0.147240
H24   H     H_    0.282764 0.512149 0.977789 0.147240
H25   H     H_    0.282523 0.980404 0.511066 0.148455
H26   H     H_    0.717477 0.019596 0.488934 0.148455
H27   H     H_    0.511125 0.282583 0.980321 0.147519
H28   H     H_    0.488875 0.717417 0.019678 0.147519
H29   H     H_    0.977852 0.512158 0.282701 0.147639
H30   H     H_    0.022148 0.487842 0.717298 0.147639

loop_
_geom_bond_atom_site_label_1
_geom_bond_atom_site_label_2
_ccdc_geom_bond_type
C25   C31   A    
C40   H22   S    
C55   C62   A    
C26   C32   A    
C6    C45   A    
Cu5   O17   S    
C25   H8    S    
C39   C51   A    
C17   O1    A    
C57   C66   A    
C39   H21   S    
C18   O24   A    
C17   O23   A    
C66   H18   S    
C21   C36   A    
C45   H27   S    
C65   H17   S    
C22   C35   A    
C62   H14   S    
C45   C57   A    
C59   C64   A    
C13   O5    A    
C60   C63   A    
C23   C29   A    
C27   H12   S    
Cu4   O4    S    
Cu1   O24   S    
Cu3   O3    S    
C34   H5    S    
Cu3   O22   S    
C33   H6    S    
Cu5   O5    S    
C9    O15   A    
Cu5   O20   S    
C29   C33   A    
C3    C48   A    
C37   C49   A    
C16   C60   S    
C44   C56   A    
C13   O19   A    
C1    C44   A    
C4    C40   A    
C5    C41   A    
C47   H29   S    
C53   C65   A    
C8    C52   S    
C12   O8    A    
C18   C56   S    
Cu2   O23   S    
C4    C22   S    
C21   C27   A    
C3    C39   A    
C9    O9    A    
C7    O13   A    
C46   C58   A    
C28   H11   S    
C46   H28   S    
C10   C54   S    
C19   C32   A    
C14   O6    A    
C48   C60   A    
Cu6   O7    S    
C14   C58   S    
Cu5   O8    S    
C35   H4    S    
C1    C19   S    
C49   C61   A    
C30   C34   A    
C2    C20   S    
Cu1   Cu2   S    
C20   C31   A    
C15   O21   A    
C51   C63   A    
Cu2   O11   S    
Cu4   O16   S    
C32   H1    S    
C12   O18   A    
Cu3   O15   S    
C31   H2    S    
C27   C35   A    
Cu1   O13   S    
C47   C59   A    
C26   H7    S    
C37   H19   S    
C11   C49   S    
C36   H3    S    
C38   H20   S    
C2    C38   A    
C58   C65   A    
C5    C23   S    
C2    C43   A    
C23   C34   A    
C6    C24   S    
Cu1   O1    S    
C41   H23   S    
C10   O10   A    
C8    O14   A    
C41   C53   A    
C61   H13   S    
C54   C66   A    
C43   C55   A    
C52   C64   A    
C50   C62   A    
C10   O16   A    
C9    C53   S    
Cu4   O9    S    
C16   O22   A    
C14   O20   A    
C43   H25   S    
Cu6   O19   S    
C63   H15   S    
C15   C59   S    
Cu2   O14   S    
C15   O3    A    
C12   C50   S    
C38   C50   A    
C1    C37   A    
C5    C46   A    
C16   O4    A    
C24   C33   A    
C11   O7    A    
C18   O2    A    
C30   H9    S    
C7    C51   S    
Cu5   Cu6   S    
C40   C52   A    
C42   C54   A    
C11   O17   A    
C42   H24   S    
C20   C26   A    
C17   C55   S    
C44   H26   S    
Cu2   O2    S    
Cu6   O18   S    
Cu3   Cu4   S    
C19   C25   A    
C24   C30   A    
C3    C21   S    
Cu4   O21   S    
C48   H30   S    
Cu6   O6    S    
Cu3   O10   S    
C29   H10   S    
C13   C57   S    
C28   C36   A    
C6    C42   A    
C56   C61   A    
C4    C47   A    
C22   C28   A    
C8    O12   A    
C64   H16   S    
Cu1   O12   S    
C7    O11   A    
