data_mof_unit_15930.cif
_audit_creation_date              2013-03-05T16:05:20-0500
_audit_creation_method            fapswitch 2.2
_symmetry_space_group_name_H-M    P1
_symmetry_Int_Tables_number       1
_space_group_crystal_system       triclinic
_cell_length_a                    10.866146
_cell_length_b                    9.585719
_cell_length_c                    15.906938
_cell_angle_alpha                 89.990717
_cell_angle_beta                  92.176741
_cell_angle_gamma                 89.63152
_cell_volume                      1655.6338932

loop_
_atom_site_label
_atom_site_type_symbol
_atom_site_description
_atom_site_fract_x
_atom_site_fract_y
_atom_site_fract_z
_atom_type_partial_charge
O1    O     O_R   0.319660 0.618740 0.500000 -0.544863
O2    O     O_R   0.319660 0.381260 0.500000 -0.548459
C1    C     C_R   0.262303 0.500714 0.503672 0.851817
O3    O     O_R   0.500020 0.618840 0.379440 -0.566687
O4    O     O_R   0.500020 0.381160 0.379440 -0.569980
C2    C     C_R   0.499695 0.500016 0.340483 0.803789
Cu1   Cu    Cu3+1 0.500020 0.640660 0.500000 1.066690
Cu2   Cu    Cu3+1 0.500020 0.359340 0.500000 1.062197
O5    O     O_R   0.680370 0.618830 0.500010 -0.580609
O6    O     O_R   0.680370 0.381170 0.500010 -0.577576
O7    O     O_R   0.500010 0.618730 0.620560 -0.550890
O8    O     O_R   0.500010 0.381270 0.620560 -0.552493
C3    C     C_R   0.737383 0.499619 0.499058 0.857403
C4    C     C_R   0.499401 0.500042 0.659480 0.835156
C5    C     C_3   0.426949 0.649271 0.049200 0.296111
C6    C     C_3   0.413716 0.367221 0.048790 0.302404
C7    C     C_3   0.389532 0.384134 0.946694 0.246483
C8    C     C_3   0.440724 0.656538 0.948057 0.252592
C9    C     C_1   0.494117 0.500533 0.748486 -0.033261
C10   C     C_3   0.490786 0.503937 0.083003 -0.361833
C11   C     C_3   0.479009 0.504405 0.915651 -0.209499
C12   C     C_3   0.612382 0.471262 0.951050 -0.541981
C13   C     C_3   0.629225 0.493577 0.049068 0.457614
C14   C     C_1   0.487339 0.502161 0.823512 0.168983
C15   C     C_1   0.495545 0.501651 0.175664 0.282026
C16   C     C_1   0.497978 0.500288 0.251149 0.048622
H1    H     H_    0.682260 0.528770 0.916038 0.250573
H2    H     H_    0.633524 0.361890 0.933924 0.253080
C17   C     C_R   0.063784 0.377153 0.524238 0.312397
C18   C     C_R   0.060124 0.627960 0.493252 0.325759
C19   C     C_R   0.936246 0.376308 0.516270 -0.170592
C20   C     C_R   0.932772 0.624226 0.488112 -0.157864
H3    H     H_    0.888410 0.279627 0.526574 0.211221
H4    H     H_    0.882383 0.720632 0.476238 0.208110
C21   C     C_R   0.870743 0.499370 0.499637 -0.148889
C22   C     C_R   0.127844 0.502665 0.508921 -0.256875
C23   C     C_R   0.423955 0.074640 0.445937 0.043485
C24   C     C_R   0.423916 0.926501 0.445971 0.057903
H5    H     H_    0.362588 0.130457 0.402425 0.176087
H6    H     H_    0.362664 0.871579 0.402412 0.189043
N1    N     N_R   0.500030 0.852070 0.500020 -0.215463
N2    N     N_R   0.500030 0.147930 0.500020 -0.211198
C25   C     C_R   0.577382 0.925016 0.554752 0.238896
C26   C     C_R   0.576852 0.073730 0.555082 0.235624
N3    N     N_R   0.329590 0.717334 0.904275 0.195693
O9    O     O_R   0.318945 0.711930 0.822556 -0.269842
O10   O     O_R   0.274218 0.822313 0.938976 -0.184602
N4    N     N_R   0.259917 0.418317 0.919700 0.171998
O11   O     O_R   0.168251 0.354221 0.952498 -0.171335
O12   O     O_R   0.237905 0.462642 0.843285 -0.258360
I1    I     I_    0.703626 0.819829 0.641712 -0.153356
I2    I     I_    0.698982 0.176650 0.644691 -0.172825
N5    N     N_R   0.296736 0.653654 0.074892 0.183065
O13   O     O_R   0.205101 0.609768 0.027427 -0.202624
O14   O     O_R   0.271025 0.705772 0.147886 -0.209643
N6    N     N_R   0.295022 0.344829 0.090724 0.189079
O15   O     O_R   0.261308 0.419133 0.154311 -0.281609
O16   O     O_R   0.242651 0.223451 0.081419 -0.166255
N7    N     N_R   0.487840 0.240722 0.073061 0.164790
O17   O     O_R   0.484977 0.195226 0.150185 -0.229668
O18   O     O_R   0.562924 0.177813 0.023736 -0.266986
N8    N     N_R   0.483675 0.776632 0.087638 0.172414
O19   O     O_R   0.518872 0.777634 0.166691 -0.268261
O20   O     O_R   0.449000 0.897280 0.057168 -0.183724
I3    I     I_    0.412278 0.190471 0.873518 0.062811
I4    I     I_    0.582403 0.803707 0.905889 0.032598
N9    N     N_R   0.702776 0.619516 0.069480 0.159820
O21   O     O_R   0.723035 0.650442 0.148432 -0.236267
O22   O     O_R   0.786467 0.659806 0.018461 -0.231766
N10   N     N_R   0.703465 0.376259 0.085464 0.199471
O23   O     O_R   0.709466 0.355656 0.166393 -0.271793
O24   O     O_R   0.792603 0.324148 0.042526 -0.199216
N11   N     N_R   0.125354 0.251688 0.552502 0.150050
O25   O     O_R   0.195848 0.253934 0.620499 -0.277061
O26   O     O_R   0.092464 0.131905 0.520753 -0.268522
N12   N     N_R   0.117718 0.760999 0.484628 0.138795
O27   O     O_R   0.167540 0.820985 0.550828 -0.258657
O28   O     O_R   0.094606 0.835064 0.417259 -0.293266

loop_
_geom_bond_atom_site_label_1
_geom_bond_atom_site_label_2
_geom_bond_distance
_ccdc_geom_bond_type
C5    C8    1.622992 S    
C18   C20   1.383831 A    
C8    C11   1.604426 S    
N1    C25   1.380412 A    
N11   O25   1.301692 A    
C7    N4    1.491128 S    
Cu1   Cu2   2.696654 S    
N5    O13   1.298792 A    
Cu1   O7    1.929196 S    
C17   C22   1.419484 A    
C23   C24   1.420024 A    
C5    N5    1.487932 S    
Cu2   N2    2.026517 S    
C3    C21   1.448776 S    
O4    C2    1.296781 A    
O7    C4    1.295332 A    
C17   N11   1.436236 S    
C10   C15   1.473059 S    
N6    O15   1.299855 A    
N3    O10   1.302681 A    
C13   N9    1.481336 S    
C23   N2    1.367715 A    
O5    C3    1.296711 A    
N8    O20   1.301804 A    
C6    C7    1.643105 S    
C19   H3    1.080997 S    
N10   O23   1.301481 A    
C6    C10   1.641552 S    
C26   I2    2.154031 S    
N4    O12   1.300646 A    
N7    O17   1.303514 A    
C12   H2    1.108108 S    
C11   C12   1.565365 S    
N11   O26   1.301121 A    
C13   N10   1.484342 S    
N2    C26   1.380750 A    
O3    Cu1   1.929147 S    
N5    O14   1.303397 A    
C5    C10   1.634041 S    
N7    O18   1.298983 A    
N9    O21   1.301361 A    
C20   C21   1.392843 A    
N12   O27   1.301356 A    
C24   N1    1.367644 A    
O3    C2    1.296724 A    
C15   C16   1.200089 T    
N3    O9    1.301730 A    
C7    C11   1.602805 S    
O1    C1    1.297549 A    
C6    N7    1.493926 S    
C20   H4    1.083992 S    
C25   C26   1.425516 A    
C6    N6    1.491075 S    
N8    O19   1.300456 A    
C18   N12   1.433009 S    
C10   C13   1.619858 S    
Cu2   O8    1.929264 S    
Cu2   O6    1.972183 S    
N4    O11   1.299640 A    
O8    C4    1.296142 A    
C12   H1    1.108151 S    
C19   C21   1.393892 A    
C8    N3    1.486556 S    
Cu1   O5    1.969506 S    
O1    Cu1   1.972393 S    
C4    C9    1.419168 S    
O2    Cu2   1.969706 S    
N12   O28   1.300971 A    
O6    C3    1.297287 A    
O4    Cu2   1.929079 S    
C8    I4    2.217258 S    
C7    I3    2.208822 S    
C18   C22   1.421524 A    
C9    C14   1.198587 T    
C17   C19   1.386909 A    
C24   H6    1.081599 S    
C25   I1    2.156273 S    
C2    C16   1.420436 S    
C1    C22   1.466605 S    
C5    N8    1.491825 S    
N6    O16   1.304468 A    
O2    C1    1.302540 A    
Cu1   N1    2.026518 S    
C23   H5    1.081754 S    
C11   C14   1.472021 S    
C12   C13   1.577714 S    
N10   O24   1.303189 A    
N9    O22   1.302019 A    
