data_mof_unit_6555.cif
_audit_creation_date              2013-03-05T15:58:06-0500
_audit_creation_method            fapswitch 2.2
_symmetry_space_group_name_H-M    P1
_symmetry_Int_Tables_number       1
_space_group_crystal_system       triclinic
_cell_length_a                    15.05862
_cell_length_b                    13.695174
_cell_length_c                    10.734578
_cell_angle_alpha                 89.968102
_cell_angle_beta                  89.830129
_cell_angle_gamma                 89.990942
_cell_volume                      2213.78644138

loop_
_atom_site_label
_atom_site_type_symbol
_atom_site_description
_atom_site_fract_x
_atom_site_fract_y
_atom_site_fract_z
_atom_type_partial_charge
O1    O     O_R   0.370250 0.582280 0.500040 -0.582094
O2    O     O_R   0.370250 0.417720 0.500040 -0.585203
C1    C     C_R   0.328682 0.499981 0.500224 0.812044
O3    O     O_R   0.499970 0.582270 0.317700 -0.590507
O4    O     O_R   0.499970 0.417730 0.317700 -0.595470
C2    C     C_R   0.500049 0.500162 0.259628 0.748133
Cu1   Cu    Cu3+1 0.499990 0.597420 0.500010 0.927155
Cu2   Cu    Cu3+1 0.499990 0.402580 0.500010 0.929032
O5    O     O_R   0.629730 0.582260 0.499980 -0.587481
O6    O     O_R   0.629730 0.417740 0.499980 -0.570105
O7    O     O_R   0.500000 0.582270 0.682320 -0.593210
O8    O     O_R   0.500000 0.417730 0.682320 -0.588166
C3    C     C_R   0.671262 0.499958 0.494170 0.819938
C4    C     C_R   0.499957 0.500132 0.740388 0.755903
C5    C     C_3   0.499490 0.607083 0.071257 -0.368607
C6    C     C_3   0.416462 0.447321 0.072320 -0.373715
H1    H     H_    0.558931 0.647379 0.105157 0.163112
H2    H     H_    0.415156 0.370600 0.106563 0.171766
H3    H     H_    0.439574 0.646588 0.105533 0.171863
H4    H     H_    0.355354 0.483945 0.107525 0.150902
C7    C     C_3   0.499560 0.607061 0.928620 -0.371713
C8    C     C_3   0.416343 0.447434 0.928527 -0.385770
H5    H     H_    0.439770 0.646733 0.894637 0.161759
H6    H     H_    0.355286 0.484329 0.894067 0.148987
H7    H     H_    0.559129 0.647185 0.894303 0.170694
H8    H     H_    0.414774 0.370777 0.894178 0.166923
H9    H     H_    0.644838 0.486065 0.105746 0.152767
H10   H     H_    0.586489 0.371769 0.106110 0.167836
H11   H     H_    0.644771 0.485363 0.892451 0.150861
H12   H     H_    0.585938 0.371420 0.893716 0.173974
C9    C     C_3   0.584140 0.448374 0.071546 -0.396157
C10   C     C_3   0.500039 0.500706 0.121758 0.164512
C11   C     C_3   0.499960 0.500660 0.878260 0.158675
C12   C     C_3   0.583989 0.448146 0.927769 -0.368318
C13   C     C_R   0.814470 0.430258 0.411459 0.140315
C14   C     C_R   0.768028 0.499971 0.484631 -0.079487
C15   C     C_R   0.814137 0.570966 0.552153 -0.304913
C16   C     C_R   0.906333 0.572233 0.552815 0.107756
C17   C     C_R   0.953665 0.499060 0.488390 0.013926
C18   C     C_R   0.908155 0.426645 0.419188 0.100381
C19   C     C_R   0.951866 0.645040 0.618617 -0.198861
C20   C     C_R   0.044349 0.646123 0.620136 -0.217614
C21   C     C_R   0.092308 0.573526 0.557474 0.114908
C22   C     C_R   0.046974 0.499056 0.492396 0.073663
C23   C     C_R   0.095052 0.424862 0.431018 0.113044
C24   C     C_R   0.050137 0.352008 0.365499 -0.225873
C25   C     C_R   0.957864 0.352972 0.359024 -0.208321
C26   C     C_R   0.184929 0.574024 0.558664 -0.254718
C27   C     C_R   0.232244 0.499675 0.498486 -0.070851
C28   C     C_R   0.187479 0.424917 0.435866 -0.253933
H13   H     H_    0.777794 0.625029 0.605831 0.158557
H14   H     H_    0.915884 0.701447 0.668446 0.141026
H15   H     H_    0.078348 0.703387 0.670781 0.139732
H16   H     H_    0.220254 0.631200 0.607878 0.139348
H17   H     H_    0.224763 0.368013 0.388688 0.148783
H18   H     H_    0.086462 0.294374 0.318503 0.143485
H19   H     H_    0.926259 0.294602 0.307815 0.157614
C29   C     C_R   0.445590 0.793271 0.580403 0.006804
C30   C     C_R   0.445745 0.206669 0.580608 0.006462
N1    N     N_R   0.499930 0.743810 0.499950 -0.181375
N2    N     N_R   0.499930 0.256190 0.499950 -0.181468
C31   C     C_R   0.554249 0.793337 0.419487 0.006324
C32   C     C_R   0.553909 0.206670 0.419107 0.007895
C33   C     C_R   0.555459 0.896407 0.417459 -0.005757
C34   C     C_R   0.555313 0.103627 0.417313 -0.005082
C35   C     C_R   0.499918 0.948167 0.499965 0.086976
C36   C     C_R   0.499906 0.051809 0.499964 0.087124
C37   C     C_R   0.444368 0.896340 0.582440 -0.004522
C38   C     C_R   0.444431 0.103587 0.582533 -0.005920
C39   C     C_R   0.610627 0.948732 0.335261 -0.204245
C40   C     C_R   0.610530 0.051397 0.335154 -0.206507
C41   C     C_R   0.389220 0.051268 0.664674 -0.204255
C42   C     C_R   0.389167 0.948599 0.664599 -0.206433
H20   H     H_    0.403214 0.752317 0.643130 0.119180
H21   H     H_    0.403505 0.247579 0.643511 0.125135
H22   H     H_    0.596611 0.752434 0.356738 0.124970
H23   H     H_    0.595720 0.247509 0.355708 0.126588
H24   H     H_    0.653827 0.910282 0.271026 0.134971
H25   H     H_    0.653675 0.089933 0.270874 0.134779
H26   H     H_    0.346059 0.089725 0.728954 0.134791
H27   H     H_    0.345962 0.910093 0.728816 0.132293
C43   C     C_3   0.766134 0.364779 0.319887 -0.902917
H28   H     H_    0.799989 0.366782 0.227852 0.221580
H29   H     H_    0.764900 0.288599 0.355342 0.233585
H30   H     H_    0.697490 0.389100 0.300512 0.230736

loop_
_geom_bond_atom_site_label_1
_geom_bond_atom_site_label_2
_geom_bond_distance
_ccdc_geom_bond_type
C18   C25   1.411759 A    
C35   C37   1.407994 A    
C32   C34   1.411487 A    
C39   H24   1.083325 S    
C19   C20   1.392901 A    
C2    C10   1.479997 S    
C13   C14   1.419482 A    
C4    C11   1.480025 S    
C40   H25   1.083423 S    
C1    C27   1.452408 S    
Cu1   Cu2   2.668366 S    
C23   C24   1.396935 A    
C26   H16   1.085116 S    
C14   C15   1.398858 A    
C20   H15   1.083951 S    
O4    C2    1.289294 A    
C15   H13   1.085460 S    
O7    C4    1.285742 A    
C7    C11   1.554501 S    
C29   N1    1.367689 A    
N1    C31   1.367666 A    
N2    C32   1.367496 A    
O5    C3    1.290391 A    
C31   C33   1.411833 A    
C5    H3    1.113663 S    
C34   C36   1.407838 A    
C39   C40   1.406014 A    
C33   C39   1.406192 A    
C21   C26   1.394866 A    
C19   H14   1.084007 S    
C6    H4    1.113183 S    
Cu2   N2    2.004837 S    
C35   C36   1.419395 A    
C31   H22   1.082685 S    
O3    Cu1   1.968104 S    
C42   H27   1.083342 S    
C13   C43   1.518433 S    
C30   N2    1.367744 A    
H12   C12   1.113084 S    
H9    C9    1.113118 S    
C5    C10   1.554199 S    
C16   C19   1.402549 A    
O3    C2    1.286010 A    
C17   C18   1.417420 A    
C37   C42   1.406133 A    
C34   C40   1.406062 A    
H11   C12   1.113177 S    
O1    C1    1.289333 A    
C33   C35   1.408017 A    
C38   C41   1.406149 A    
Cu1   O7    1.967874 S    
C21   C22   1.413524 A    
C15   C16   1.388494 A    
C25   H19   1.081594 S    
C9    C10   1.550536 S    
Cu2   O8    1.968104 S    
C11   C12   1.550515 S    
C9    C12   1.543399 S    
C6    H2    1.113113 S    
C3    C14   1.460447 S    
C29   C37   1.411844 A    
C26   C27   1.399820 A    
C30   C38   1.412006 A    
C43   H28   1.110719 S    
C43   H29   1.110488 S    
C7    H5    1.113771 S    
C8    H6    1.113173 S    
C20   C21   1.400052 A    
C30   H21   1.082679 S    
Cu1   N1    2.004836 S    
C22   C23   1.410107 A    
C29   H20   1.082733 S    
C32   H23   1.081454 S    
C5    H1    1.113783 S    
C8    C11   1.550441 S    
C7    H7    1.113675 S    
C24   C25   1.391507 A    
C6    C8    1.543562 S    
O1    Cu1   1.964709 S    
H10   C9    1.113183 S    
O2    Cu2   1.964644 S    
O8    C4    1.289524 A    
C41   C42   1.406065 A    
O6    C3    1.289495 A    
O4    Cu2   1.967875 S    
C17   C22   1.405883 A    
C6    C10   1.550732 S    
C43   H30   1.106244 S    
C28   H17   1.085184 S    
C13   C18   1.414310 A    
C41   H26   1.083324 S    
C16   C17   1.410028 A    
C23   C28   1.392958 A    
O2    C1    1.288710 A    
Cu1   O5    1.964674 S    
C5    C7    1.531138 S    
Cu2   O6    1.964739 S    
C27   C28   1.399338 A    
C8    H8    1.113173 S    
C24   H18   1.084163 S    
C36   C38   1.407985 A    
