data_mof_unit_34742.cif
_audit_creation_date              2012-12-11T17:57:10-0500
_audit_creation_method            fapswitch 2.2
_symmetry_space_group_name_H-M    P1
_symmetry_Int_Tables_number       1
_space_group_crystal_system       triclinic
_cell_length_a                    8.173953
_cell_length_b                    12.738344
_cell_length_c                    17.314043
_cell_angle_alpha                 98.620151
_cell_angle_beta                  96.954186
_cell_angle_gamma                 98.5405
_cell_volume                      1743.61047797

loop_
_atom_site_label
_atom_site_type_symbol
_atom_type_description
_atom_site_fract_x
_atom_site_fract_y
_atom_site_fract_z
_atom_type_partial_charge
Ba1   Ba    Ba6+2 0.843240 0.548600 0.461650 1.649138
Ba2   Ba    Ba6+2 0.346590 0.451490 0.538360 1.640559
C1    C     C_3   0.554594 0.860384 0.184318 -0.433398
C2    C     C_3   0.341037 0.594696 0.229980 -0.053275
C3    C     C_2   0.283640 0.564749 0.142620 -0.111879
C4    C     C_3   0.115404 0.785820 0.249318 0.351157
C5    C     C_2   0.138085 0.497163 0.114009 0.015875
C6    C     C_2   0.044853 0.443487 0.171546 -0.123675
C7    C     C_1   0.108046 0.458569 0.247847 0.052290
C8    C     C_R   0.888448 0.458403 0.861103 -0.134027
C9    C     C_R   0.822943 0.444070 0.781280 0.009338
C10   C     C_R   0.081272 0.539482 0.752140 0.059964
C11   C     C_R   0.147740 0.555168 0.832834 -0.119794
C12   C     C_3   0.634899 0.811939 0.251454 0.317052
C13   C     C_R   0.053376 0.512171 0.887850 0.007813
C14   C     C_2   0.068958 0.474410 0.027588 -0.074500
C15   C     C_2   0.125461 0.532233 0.973270 -0.072073
C16   C     C_3   0.079636 0.816479 0.168138 -0.363324
C17   C     C_R   0.921266 0.480274 0.726850 -0.285424
C18   C     C_R   0.775685 0.184138 0.531157 -0.289818
C19   C     C_R   0.426085 0.809748 0.469549 -0.295236
C20   C     C_R   0.392429 0.985595 0.443088 -0.090833
C21   C     C_R   0.327222 0.877656 0.438952 -0.016420
C22   C     C_R   0.583384 0.850704 0.513861 0.090712
C23   C     C_3   0.412017 0.275650 0.299034 0.309722
C24   C     C_R   0.649633 0.963491 0.523932 -0.035070
C25   C     C_R   0.553284 0.030122 0.484434 -0.086098
C26   C     C_R   0.617762 0.140607 0.489107 0.039317
C27   C     C_R   0.873668 0.120151 0.567577 -0.017601
C28   C     C_3   0.270426 0.786084 0.633862 0.303329
C29   C     C_R   0.807819 0.012985 0.569804 0.091623
C30   C     C_3   0.340756 0.905461 0.657763 -0.423437
C31   C     C_3   0.925956 0.213800 0.366743 0.292657
C32   C     C_3   0.882696 0.091826 0.345618 -0.388358
C33   C     C_3   0.778040 0.702816 0.698101 0.323171
C34   C     C_3   0.371564 0.241377 0.209951 -0.378414
C35   C     C_3   0.815484 0.738507 0.787220 -0.395547
C36   C     C_3   0.117558 0.242360 0.757513 0.367325
C37   C     C_3   0.146655 0.217599 0.840809 -0.371049
C38   C     C_3   0.601152 0.181367 0.730548 0.349378
C39   C     C_3   0.658361 0.107566 0.785815 -0.412428
C40   C     C_2   0.255551 0.517874 0.276645 -0.230683
H1    H     H_    0.747255 0.869326 0.281744 0.100359
H2    H     H_    0.893080 0.684051 0.675714 0.006991
H3    H     H_    0.679419 0.630011 0.684719 0.062931
H4    H     H_    0.514200 0.936614 0.208464 0.095828
H5    H     H_    0.918269 0.809061 0.802160 0.122870
H6    H     H_    0.853536 0.672578 0.816400 0.062308
H7    H     H_    0.702111 0.761161 0.810163 0.127837
H8    H     H_    0.548632 0.805399 0.296291 -0.041716
H9    H     H_    0.443852 0.803406 0.151217 0.106173
H10   H     H_    0.296844 0.294491 0.321927 0.011818
H11   H     H_    0.509623 0.349054 0.311781 0.075785
H12   H     H_    0.469793 0.915452 0.689302 0.122290
H13   H     H_    0.270485 0.169837 0.195131 0.117067
H14   H     H_    0.329462 0.308088 0.182638 0.067956
H15   H     H_    0.484648 0.221044 0.185492 0.130508
H16   H     H_    0.645691 0.877710 0.143323 0.127067
H17   H     H_    0.126855 0.760884 0.123692 0.065376
H18   H     H_    0.197665 0.320165 0.755713 0.092780
H19   H     H_    0.984259 0.249894 0.743794 -0.075405
H20   H     H_    0.280459 0.212959 0.857740 0.154625
H21   H     H_    0.111625 0.282038 0.883101 0.072295
H22   H     H_    0.069210 0.139422 0.844019 0.105023
H23   H     H_    0.343155 0.944797 0.604982 0.082804
H24   H     H_    0.708389 0.210557 0.701147 -0.061977
H25   H     H_    0.500855 0.134527 0.683832 0.082012
H26   H     H_    0.756881 0.154136 0.833519 0.112517
H27   H     H_    0.709999 0.041775 0.752889 0.082706
H28   H     H_    0.054889 0.700792 0.246096 0.063398
H29   H     H_    0.551170 0.071897 0.812657 0.133140
H30   H     H_    0.228959 0.598504 0.990833 0.067135
H31   H     H_    0.926589 0.389927 0.150063 0.080722
H32   H     H_    0.807903 0.431094 0.901790 0.073656
H33   H     H_    0.966062 0.407627 0.008988 0.069332
H34   H     H_    0.262798 0.945544 0.697317 0.152321
H35   H     H_    0.359647 0.603841 0.104750 0.063905
H36   H     H_    0.271803 0.601569 0.852758 0.085680
H37   H     H_    0.312457 0.519205 0.336833 0.064479
H38   H     H_    0.868679 0.468923 0.665180 0.071274
H39   H     H_    0.313138 0.033929 0.415217 0.106113
H40   H     H_    0.253032 0.794371 0.265194 -0.067871
H41   H     H_    0.826196 0.267988 0.532488 0.066874
H42   H     H_    0.374980 0.725011 0.463344 0.063216
H43   H     H_    0.942954 0.810944 0.150894 0.145162
H44   H     H_    0.142649 0.900200 0.168886 0.111236
H45   H     H_    0.820720 0.245732 0.390438 0.007475
H46   H     H_    0.363411 0.745139 0.605549 0.009459
H47   H     H_    0.154043 0.775823 0.591520 0.065200
H48   H     H_    0.017779 0.954925 0.604408 0.200002
H49   H     H_    0.916130 0.000632 0.679208 0.167661
H50   H     H_    0.038620 0.235116 0.412115 0.074225
H51   H     H_    0.763451 0.068638 0.304235 0.112833
H52   H     H_    0.868828 0.055875 0.399374 0.085632
H53   H     H_    0.983916 0.059656 0.317213 0.151297
N1    N     N_3   0.900359 0.958269 0.621604 -0.444926
O1    O     O_2   0.825360 0.427200 0.308020 -0.448972
O2    O     O_2   0.213670 0.123038 0.558654 -0.483941
O3    O     O_3   0.159252 0.159128 0.704534 -0.604852
O4    O     O_3   0.099050 0.435020 0.406000 -0.505441
O5    O     O_3   0.588300 0.633530 0.539940 -0.496187
O6    O     O_2   0.332090 0.232110 0.462130 -0.468006
O7    O     O_3   0.469100 0.191437 0.332401 -0.648825
O8    O     O_2   0.488724 0.462140 0.781331 -0.488163
O9    O     O_3   0.536088 0.263430 0.774533 -0.588936
O10   O     O_3   0.623690 0.628090 0.355970 -0.474388
O11   O     O_2   0.633099 0.504677 0.218288 -0.478054
O12   O     O_3   0.724426 0.787414 0.664823 -0.621322
O13   O     O_3   0.954574 0.255192 0.298445 -0.635877
O14   O     O_3   0.685416 0.714660 0.220641 -0.579584
O15   O     O_2   0.857620 0.767930 0.537920 -0.456286
O16   O     O_3   0.055170 0.686660 0.395490 -0.482677
O17   O     O_2   0.990751 0.881015 0.448598 -0.483714
O18   O     O_3   0.049900 0.854286 0.304181 -0.605254
O19   O     O_2   0.364350 0.572830 0.692030 -0.457440
O20   O     O_3   0.090660 0.565070 0.594010 -0.506335
O21   O     O_3   0.566030 0.372000 0.644040 -0.474076
O22   O     O_3   0.237080 0.744765 0.701653 -0.633166
O23   O     O_3   0.601410 0.366560 0.460070 -0.480528
O24   O     O_3   0.134540 0.313430 0.604520 -0.482535
P1    P     P_3+3 0.996360 0.395990 0.320310 0.977207
P2    P     P_3+3 0.688190 0.753610 0.561600 1.002299
P3    P     P_3+3 0.107138 0.825305 0.398213 0.948541
P4    P     P_3+3 0.193350 0.604100 0.679700 0.977672
P5    P     P_3+3 0.094097 0.177234 0.608023 0.946387
P6    P     P_3+3 0.570984 0.607613 0.254000 0.976270
P7    P     P_3+3 0.508221 0.230427 0.435144 0.937184
P8    P     P_3+3 0.603320 0.387012 0.746550 0.963489

loop_
_geom_bond_atom_site_label_1
_geom_bond_atom_site_label_2
_ccdc_geom_bond_type
C4    H40   S    
C27   P5    S    
C14   H33   S    
C32   H51   S    
C5    C6    S    
O3    P5    S    
C37   H22   S    
C9    C17   A    
C24   C25   A    
C16   H44   S    
C36   O3    S    
C33   C35   S    
C23   H11   S    
O4    P1    S    
C8    C13   A    
Ba1   O16   S    
C36   C37   S    
Ba2   O6    S    
C29   N1    S    
C4    H28   S    
Ba1   Ba2   S    
Ba1   O23   S    
Ba1   P2    S    
C4    O18   S    
O1    P1    D    
C33   O12   S    
H49   N1    S    
Ba2   O20   S    
O2    P5    D    
C6    C7    D    
C38   H25   S    
O17   P3    D    
C7    P1    S    
Ba1   O20   S    
C35   H5    S    
O7    P7    S    
C26   P7    S    
Ba1   O10   S    
C39   H29   S    
C36   H19   S    
C12   H1    S    
Ba2   O4    S    
C40   H37   S    
C38   H24   S    
O15   P2    D    
C28   H47   S    
Ba1   O4    S    
C30   H12   S    
Ba2   O21   S    
C39   H26   S    
C18   C27   A    
C4    C16   S    
C16   H43   S    
C20   H39   S    
C32   H53   S    
O16   P3    S    
C34   H15   S    
C31   H50   S    
Ba1   O1    S    
C3    C5    D    
C1    H9    S    
O24   P5    S    
C14   C15   D    
C21   P3    S    
C18   C26   A    
Ba2   O5    S    
C34   H14   S    
C35   H7    S    
Ba2   O19   S    
C10   P4    S    
C19   H42   S    
C22   P2    S    
C31   C32   S    
C7    C40   D    
O22   P4    S    
C35   H6    S    
C33   H2    S    
C1    C12   S    
O14   P6    S    
C36   H18   S    
O18   P3    S    
C5    C14   S    
O6    P7    D    
C20   C25   A    
C11   C13   A    
C19   C22   A    
C31   O13   S    
C3    H35   S    
C33   H3    S    
Ba1   O5    S    
C39   H27   S    
C13   C15   S    
C37   H20   S    
C11   H36   S    
C38   C39   S    
Ba2   O24   S    
O19   P4    D    
O20   P4    S    
O9    P8    S    
C23   O7    S    
C32   H52   S    
O11   P6    D    
O12   P2    S    
C2    C3    S    
C30   H34   S    
Ba2   O23   S    
H48   N1    S    
Ba2   P4    S    
C37   H21   S    
O10   P6    S    
C1    H4    S    
O5    P2    S    
C2    P6    S    
C19   C21   A    
C9    P8    S    
C31   H45   S    
C23   H10   S    
C27   C29   A    
C34   H13   S    
Ba1   O15   S    
C28   C30   S    
C8    H32   S    
C22   C24   A    
O13   P1    S    
C12   H8    S    
C2    C40   S    
C12   O14   S    
C10   C17   A    
C6    H31   S    
O8    P8    D    
C17   H38   S    
O21   P8    S    
Ba1   P1    S    
C8    C9    A    
C23   C34   S    
C1    H16   S    
C16   H17   S    
C24   C29   A    
C10   C11   A    
C15   H30   S    
C18   H41   S    
C28   O22   S    
C25   C26   A    
C20   C21   A    
C38   O9    S    
C28   H46   S    
C30   H23   S    
O23   P7    S    
