data_mof_unit_11696.cif
_audit_creation_date              2012-10-26T21:05:23-0400
_audit_creation_method            fapswitch 2.2
_symmetry_space_group_name_H-M    P1
_symmetry_Int_Tables_number       1
_space_group_crystal_system       triclinic
_cell_length_a                    9.619347
_cell_length_b                    10.816089
_cell_length_c                    13.865591
_cell_angle_alpha                 92.968506
_cell_angle_beta                  83.885172
_cell_angle_gamma                 89.63042
_cell_volume                      1432.3908121

loop_
_atom_site_label
_atom_site_type_symbol
_atom_type_description
_atom_site_fract_x
_atom_site_fract_y
_atom_site_fract_z
_atom_type_partial_charge
C1    C     C_R   0.500299 0.736798 0.491398 0.596421
C2    C     C_R   0.622999 0.935187 0.490358 -0.117780
C3    C     C_R   0.621569 0.062835 0.501097 -0.085931
C4    C     C_R   0.476334 0.499764 0.682921 0.570994
C5    C     C_R   0.494365 0.128270 0.513936 0.027332
C6    C     C_R   0.876886 0.334912 0.371121 -0.047016
C7    C     C_R   0.958172 0.250431 0.309900 0.233671
C8    C     C_R   0.101897 0.251197 0.309353 -0.104637
C9    C     C_R   0.164391 0.334614 0.370290 -0.093348
C10   C     C_R   0.085257 0.420032 0.435370 0.151605
C11   C     C_R   0.935867 0.419674 0.435918 0.118589
C12   C     C_1   0.460502 0.496473 0.786248 0.083497
C13   C     C_R   0.913369 0.574906 0.561441 0.053508
C14   C     C_R   0.059806 0.573158 0.565594 0.355023
C15   C     C_R   0.498416 0.262883 0.507208 0.570777
C16   C     C_R   0.523630 0.499478 0.317091 0.545504
C17   C     C_1   0.538666 0.500132 0.213727 0.060614
C18   C     C_2   0.552824 0.503091 0.022914 0.381215
C19   C     C_2   0.437154 0.488278 0.977069 0.240900
C20   C     C_1   0.448545 0.492831 0.873184 0.106828
C21   C     C_1   0.547383 0.501223 0.126746 0.102827
C22   C     C_R   0.248239 0.887340 0.447535 0.362465
C23   C     C_R   0.119509 0.947603 0.471098 -0.079150
C24   C     C_R   0.111380 0.057502 0.528144 0.374739
C25   C     C_R   0.233625 0.115073 0.551757 0.422429
C26   C     C_R   0.366322 0.062626 0.516680 -0.086488
C27   C     C_R   0.371149 0.938252 0.481079 -0.023627
C28   C     C_R   0.498377 0.871090 0.482115 0.034227
Cu1   Cu    Cu3+1 0.359340 0.500010 0.500010 1.162065
Cu2   Cu    Cu3+1 0.640660 0.499990 0.499990 1.008637
F1    F     F_    0.678870 0.521859 0.971533 -0.581163
F2    F     F_    0.253376 0.786564 0.384607 -0.582916
F3    F     F_    0.984946 0.110257 0.558469 -0.591258
F4    F     F_    0.220852 0.214732 0.615939 -0.537628
H1    H     H_    0.768119 0.330027 0.365787 0.211849
H2    H     H_    0.274033 0.758685 0.728576 0.368625
H3    H     H_    0.166442 0.186317 0.261676 0.188273
H4    H     H_    0.274943 0.325939 0.364236 0.175887
H5    H     H_    0.722390 0.886841 0.488052 0.164781
H6    H     H_    0.025534 0.907384 0.446989 0.174012
H7    H     H_    0.720574 0.110125 0.500057 0.212744
H8    H     H_    0.845239 0.632715 0.612205 0.176908
H9    H     H_    0.061343 0.432747 0.000186 0.410643
H10   H     H_    0.673748 0.066067 0.226289 0.388779
N1    N     N_R   0.852210 0.498790 0.499090 -0.279074
N2    N     N_R   0.148080 0.498710 0.499060 -0.225527
O1    O     O_R   0.381190 0.680360 0.500010 -0.390548
O2    O     O_2   0.230943 0.570171 0.110347 -0.238403
O3    O     O_3   0.150523 0.447537 0.959977 -0.421830
O4    O     O_2   0.901011 0.184182 0.131132 -0.191614
O5    O     O_2   0.947489 0.017903 0.237308 -0.240654
O6    O     O_3   0.707307 0.133588 0.268612 -0.563456
O7    O     O_2   0.993946 0.737685 0.716802 -0.261739
O8    O     O_2   0.124553 0.553208 0.746592 -0.193191
O9    O     O_3   0.255373 0.733269 0.661548 -0.519606
O10   O     O_R   0.618760 0.680340 0.500000 -0.533250
O11   O     O_R   0.364420 0.499990 0.637850 -0.405101
O12   O     O_R   0.601990 0.499960 0.637840 -0.496130
O13   O     O_R   0.381240 0.319660 0.500000 -0.489328
O14   O     O_R   0.618810 0.319640 0.499990 -0.527026
O15   O     O_R   0.398010 0.500040 0.362160 -0.492078
O16   O     O_R   0.635580 0.500010 0.362150 -0.525591
O17   O     O_2   0.275624 0.346330 0.094065 -0.283859
S1    S     S_3+6 0.270420 0.462542 0.039547 0.048641
S2    S     S_3+6 0.879633 0.142885 0.233423 0.041403
S3    S     S_3+6 0.108980 0.649910 0.674302 0.082536

loop_
_geom_bond_atom_site_label_1
_geom_bond_atom_site_label_2
_ccdc_geom_bond_type
C16   O15   A    
C10   N2    A    
C1    C28   S    
C2    C28   A    
C23   C24   A    
C15   O13   A    
Cu1   Cu2   S    
O8    S3    D    
C5    C26   A    
C7    S2    S    
C18   C21   S    
C9    C10   A    
C19   S1    S    
Cu2   N1    S    
C24   F3    S    
Cu1   N2    S    
H10   O6    S    
C2    C3    A    
C14   S3    S    
C7    C8    A    
C14   N2    A    
O3    S1    S    
C13   C14   A    
C24   C25   A    
C13   N1    A    
O7    S3    D    
C12   C20   T    
C26   C27   A    
C6    C7    A    
C22   F2    S    
Cu1   O1    S    
C25   F4    S    
Cu2   O12   S    
C13   H8    S    
C1    O10   A    
Cu1   O11   S    
C22   C27   A    
Cu2   O16   S    
O5    S2    D    
O4    S2    D    
Cu1   O15   S    
C5    C15   S    
C11   N1    A    
C8    H3    S    
O17   S1    D    
H9    O3    S    
C23   H6    S    
C16   C17   S    
Cu1   O13   S    
C6    C11   A    
O9    S3    S    
C6    H1    S    
C3    H7    S    
C18   C19   D    
C10   C11   A    
C4    O12   A    
C27   C28   A    
H2    O9    S    
C22   C23   A    
C1    O1    A    
C9    H4    S    
C18   F1    S    
O2    S1    D    
C25   C26   A    
C4    C12   S    
Cu2   O10   S    
C2    H5    S    
C16   O16   A    
C15   O14   A    
C17   C21   T    
O6    S2    S    
C19   C20   S    
C4    O11   A    
C8    C9    A    
C3    C5    A    
Cu2   O14   S    
