data_mof_unit_29369.cif
_audit_creation_date              2012-12-10T17:07:15-0500
_audit_creation_method            fapswitch 2.2
_symmetry_space_group_name_H-M    P1
_symmetry_Int_Tables_number       1
_space_group_crystal_system       triclinic
_cell_length_a                    18.315418
_cell_length_b                    18.290275
_cell_length_c                    18.385302
_cell_angle_alpha                 119.862805
_cell_angle_beta                  120.076983
_cell_angle_gamma                 60.109381
_cell_volume                      4360.59088076

loop_
_atom_site_label
_atom_site_type_symbol
_atom_type_description
_atom_site_fract_x
_atom_site_fract_y
_atom_site_fract_z
_atom_type_partial_charge
C1    C     C_R   0.139915 0.860536 0.640489 0.484412
C2    C     C_R   0.879492 0.400877 0.927219 -0.163027
C3    C     C_R   0.941832 0.335770 0.886210 -0.088358
C4    C     C_R   0.860924 0.140090 0.360193 0.500501
C5    C     C_R   0.923381 0.259414 0.815738 0.177338
C6    C     C_R   0.926004 0.264380 0.374891 -0.138012
C7    C     C_R   0.959122 0.321660 0.381462 -0.145995
C8    C     C_R   0.911730 0.370873 0.323770 0.155976
C9    C     C_R   0.826837 0.365350 0.259778 0.286792
C10   C     C_R   0.789604 0.310101 0.255835 0.002581
C11   C     C_R   0.841697 0.257424 0.312799 -0.034141
C12   C     C_R   0.584363 0.217747 0.689717 0.131930
C13   C     C_R   0.809712 0.196461 0.304467 0.008518
C14   C     C_R   0.728047 0.187132 0.241090 -0.140485
C15   C     C_R   0.673546 0.241296 0.188192 0.088738
C16   C     C_R   0.140157 0.139960 0.635221 0.538046
C17   C     C_R   0.703139 0.303404 0.195618 0.060379
C18   C     C_R   0.936786 0.666409 0.253130 0.147458
C19   C     C_R   0.968960 0.575307 0.206544 -0.106634
C20   C     C_R   0.914504 0.523136 0.159555 -0.158229
C21   C     C_R   0.825960 0.561405 0.155227 -0.102072
C22   C     C_R   0.790653 0.652972 0.200963 -0.005867
C23   C     C_R   0.666508 0.233921 0.721258 0.025382
C24   C     C_R   0.846728 0.706790 0.253303 0.002115
C25   C     C_R   0.809550 0.798125 0.302388 0.071746
C26   C     C_R   0.719062 0.835039 0.295079 0.199628
C27   C     C_R   0.665423 0.780980 0.242435 -0.141604
C28   C     C_R   0.861664 0.858384 0.359840 0.601936
C29   C     C_R   0.700286 0.691503 0.195699 0.001725
C30   C     C_R   0.244016 0.675946 0.569760 -0.136614
C31   C     C_R   0.290233 0.586386 0.534146 -0.127180
C32   C     C_R   0.347666 0.533212 0.588777 0.254589
C33   C     C_R   0.354522 0.570118 0.678317 -0.044194
C34   C     C_R   0.723583 0.177704 0.669436 -0.056544
C35   C     C_R   0.303476 0.659265 0.714148 -0.049764
C36   C     C_R   0.248272 0.713163 0.659155 0.010436
C37   C     C_R   0.195819 0.801760 0.693797 0.018838
C38   C     C_R   0.194649 0.834840 0.780048 -0.134836
C39   C     C_R   0.248724 0.782373 0.835113 0.117615
C40   C     C_R   0.140314 0.858834 0.360219 0.527550
C41   C     C_R   0.304129 0.694895 0.802620 0.054103
C42   C     C_R   0.288602 0.696600 0.391989 -0.101025
C43   C     C_R   0.359979 0.620341 0.407602 -0.120222
C44   C     C_R   0.407274 0.563617 0.348889 -0.117454
C45   C     C_R   0.692954 0.304159 0.800406 0.014408
C46   C     C_R   0.386261 0.585070 0.276510 -0.089768
C47   C     C_R   0.319525 0.666415 0.263684 -0.013807
C48   C     C_R   0.267861 0.722035 0.320703 -0.020238
C49   C     C_R   0.197017 0.800623 0.304416 0.014634
C50   C     C_R   0.180258 0.825236 0.234527 0.119771
C51   C     C_R   0.233665 0.771496 0.180079 0.116358
C52   C     C_R   0.857747 0.139312 0.637544 0.519406
C53   C     C_R   0.302870 0.692574 0.194760 0.018090
C54   C     C_R   0.331607 0.074976 0.646142 0.247114
C55   C     C_R   0.424045 0.028890 0.680495 0.204961
C56   C     C_R   0.774664 0.317241 0.826957 -0.023172
C57   C     C_R   0.473412 0.068250 0.767254 -0.099272
C58   C     C_R   0.434739 0.155385 0.818400 0.204067
C59   C     C_R   0.345123 0.205151 0.779532 0.003249
C60   C     C_R   0.290622 0.157652 0.702581 -0.007201
C61   C     C_R   0.197015 0.195860 0.685057 0.037782
C62   C     C_R   0.159205 0.287207 0.726567 -0.183452
C63   C     C_R   0.213221 0.339565 0.786172 -0.174038
C64   C     C_R   0.699076 0.106849 0.591379 -0.088907
C65   C     C_R   0.306371 0.300013 0.813043 0.039469
C66   C     C_R   0.639780 0.640030 0.139811 0.497962
C67   C     C_R   0.834363 0.255902 0.778694 0.019967
C68   C     C_R   0.360406 0.359170 0.864093 0.526746
C69   C     C_R   0.641933 0.359961 0.139807 0.597622
C70   C     C_R   0.360013 0.640407 0.860427 0.514548
C71   C     C_R   0.359748 0.639715 0.139590 0.524593
C72   C     C_R   0.639559 0.360071 0.859437 0.529831
C73   C     C_R   0.626141 0.084682 0.569057 0.137550
C74   C     C_R   0.568217 0.141871 0.617711 -0.068095
C75   C     C_3   0.005514 0.375765 0.271688 -0.316452
C76   C     C_3   0.514991 0.297600 0.161230 -0.286898
C77   C     C_3   0.058414 0.710491 0.380674 -0.294559
C78   C     C_R   0.804342 0.192124 0.696190 0.002160
C79   C     C_3   0.318516 0.852043 0.991736 -0.296875
C80   C     C_3   0.025439 0.902680 0.159103 -0.254916
C81   C     C_3   0.548752 0.971620 0.482963 -0.301107
C82   C     C_3   0.157259 0.769829 0.025843 -0.253049
C83   C     C_3   0.453001 0.347923 0.686580 -0.271568
C84   C     C_3   0.081640 0.188778 0.817815 -0.291287
C85   C     C_R   0.800109 0.389083 0.902629 -0.110930
H1    H     H_    0.005974 0.344081 0.913206 0.105682
H2    H     H_    0.203688 0.715356 0.526435 0.105029
H3    H     H_    0.281576 0.558632 0.463959 0.084141
H4    H     H_    0.398815 0.528101 0.719190 0.124358
H5    H     H_    0.251247 0.734715 0.437065 0.129745
H6    H     H_    0.378553 0.604547 0.465130 0.126466
H7    H     H_    0.460462 0.502668 0.359393 0.113623
H8    H     H_    0.423200 0.536930 0.231272 0.120596
H9    H     H_    0.087622 0.318594 0.712565 0.146201
H10   H     H_    0.542177 0.029957 0.795474 0.138553
H11   H     H_    0.181840 0.411060 0.812386 0.146159
H12   H     H_    0.968568 0.224513 0.418357 0.149356
H13   H     H_    0.507547 0.130325 0.598436 0.110758
H14   H     H_    0.760312 0.438266 0.944593 0.153674
H15   H     H_    0.894937 0.458938 0.981730 0.122513
H16   H     H_    0.704792 0.139598 0.235132 0.127107
H17   H     H_    0.985578 0.455584 0.392685 0.254484
H18   H     H_    0.033609 0.421089 0.278160 0.146830
H19   H     H_    0.964222 0.351432 0.200949 0.166049
H20   H     H_    0.061942 0.318071 0.291735 0.139141
H21   H     H_    0.808170 0.454837 0.217688 0.347371
H22   H     H_    0.586598 0.169166 0.100473 0.254192
H23   H     H_    0.024337 0.325032 0.429670 0.120775
H24   H     H_    0.523080 0.286307 0.219314 0.130239
H25   H     H_    0.450758 0.289890 0.108223 0.159090
H26   H     H_    0.512110 0.366935 0.181496 0.138140
H27   H     H_    0.618624 0.941483 0.321775 0.330768
H28   H     H_    0.024483 0.705915 0.253597 0.248779
H29   H     H_    0.089567 0.762734 0.413076 0.125855
H30   H     H_    0.110968 0.643544 0.373137 0.115815
H31   H     H_    0.025044 0.722250 0.423848 0.162278
H32   H     H_    0.385310 0.429746 0.492576 0.321734
H33   H     H_    0.185097 0.862308 0.928932 0.241130
H34   H     H_    0.037175 0.544709 0.206845 0.103334
H35   H     H_    0.313392 0.910192 0.982402 0.135654
H36   H     H_    0.384571 0.799665 0.990536 0.167838
H37   H     H_    0.314025 0.873967 0.058007 0.137144
H38   H     H_    0.132995 0.950120 0.221653 0.240276
H39   H     H_    0.973763 0.953957 0.190435 0.184783
H40   H     H_    0.020425 0.835930 0.136293 0.151830
H41   H     H_    0.011018 0.917107 0.100458 0.113458
H42   H     H_    0.669482 0.956675 0.483377 0.286950
H43   H     H_    0.550227 0.908053 0.425980 0.147333
H44   H     H_    0.479713 0.019413 0.466633 0.150152
H45   H     H_    0.940877 0.452570 0.125222 0.105066
H46   H     H_    0.566679 0.958294 0.543626 0.183501
H47   H     H_    0.218570 0.863138 0.132841 0.237098
H48   H     H_    0.099928 0.828576 0.009245 0.108883
H49   H     H_    0.131688 0.723956 0.022476 0.147099
H50   H     H_    0.190007 0.734438 0.974856 0.205148
H51   H     H_    0.323031 0.008526 0.521733 0.320751
H52   H     H_    0.422287 0.913467 0.588693 0.341605
H53   H     H_    0.539973 0.144278 0.924723 0.323248
H54   H     H_    0.481167 0.247809 0.728053 0.253780
H55   H     H_    0.404983 0.396237 0.723160 0.122925
H56   H     H_    0.785610 0.518238 0.115967 0.122580
H57   H     H_    0.415144 0.319124 0.615537 0.168468
H58   H     H_    0.490756 0.383326 0.691457 0.198141
H59   H     H_    0.997568 0.123842 0.786507 0.241028
H60   H     H_    0.123911 0.125287 0.782121 0.140783
H61   H     H_    0.115361 0.199606 0.890388 0.121747
H62   H     H_    0.074773 0.243709 0.802195 0.161353
H63   H     H_    0.736464 0.065786 0.546170 0.168232
H64   H     H_    0.595467 0.809155 0.236453 0.099767
H65   H     H_    0.152683 0.902553 0.805277 0.108705
N1    N     N_2   0.951575 0.423522 0.328388 -0.528513
N2    N     N_2   0.588032 0.233418 0.127488 -0.484274
N3    N     N_2   0.994554 0.716698 0.294574 -0.502870
N4    N     N_2   0.246600 0.817669 0.923032 -0.513845
N5    N     N_2   0.112784 0.907493 0.223022 -0.499542
N6    N     N_2   0.611874 0.006005 0.495484 -0.516148
N7    N     N_2   0.221091 0.798573 0.112826 -0.501784
N8    N     N_2   0.514146 0.278279 0.725576 -0.498525
N9    N     N_2   0.994732 0.182543 0.788474 -0.497801
O1    O     O_3   1.000000 1.000000 0.500000 -0.448786
O2    O     O_R   0.323460 0.615830 0.884170 -0.532399
O3    O     O_R   0.444880 0.615840 0.176480 -0.554161
O4    O     O_R   0.055060 0.884200 0.615800 -0.547982
O5    O     O_R   0.615800 0.444940 0.884180 -0.561329
O6    O     O_R   0.323440 0.615840 0.055040 -0.533964
O7    O     O_R   0.615780 0.323500 0.884180 -0.504846
O8    O     O_R   0.615760 0.323500 0.055050 -0.502123
O9    O     O_R   0.444910 0.615830 0.884180 -0.553893
O10   O     O_R   0.615780 0.615830 0.176490 -0.521981
O11   O     O_R   0.323430 0.444950 0.884170 -0.567785
O12   O     O_R   0.055100 0.176520 0.615800 -0.558567
O13   O     O_R   0.884210 0.176520 0.444920 -0.543058
O14   O     O_R   0.176540 0.055080 0.615800 -0.486302
O15   O     O_R   0.884190 0.884200 0.323480 -0.515430
O16   O     O_R   0.176540 0.884190 0.444930 -0.540129
O17   O     O_R   0.884180 0.055090 0.615790 -0.560731
O18   O     O_R   0.055100 0.884190 0.323490 -0.530458
O19   O     O_R   0.884190 0.176530 0.615790 -0.502885
O20   O     O_3   0.781947 0.409604 0.198645 -0.711043
O21   O     O_3   0.683822 0.925318 0.337550 -0.715763
O22   O     O_3   0.397533 0.445261 0.556631 -0.735344
O23   O     O_R   0.884180 0.884200 0.444920 -0.535322
O24   O     O_3   0.282226 0.046137 0.556962 -0.687110
O25   O     O_3   0.467046 0.943721 0.633963 -0.714567
O26   O     O_3   0.479014 0.187673 0.908607 -0.659643
O27   O     O_R   0.176510 0.884190 0.615800 -0.549787
O28   O     O_R   0.884210 0.055080 0.323480 -0.549155
O29   O     O_3   0.499970 0.500030 0.999970 -0.450860
O30   O     O_R   0.615800 0.615830 0.055050 -0.546890
O31   O     O_R   0.444880 0.323510 0.884180 -0.483745
O32   O     O_R   0.615760 0.444950 0.176490 -0.517917
Zn1   Zn    Zn3+2 0.956630 0.130130 0.543370 0.952397
Zn2   Zn    Zn3+2 0.130140 0.956620 0.543380 0.950901
Zn3   Zn    Zn3+2 0.956630 0.956620 0.369870 0.940339
Zn4   Zn    Zn3+2 0.956610 0.956630 0.543370 0.930038
Zn5   Zn    Zn3+2 0.543340 0.369890 0.956600 0.983079
Zn6   Zn    Zn3+2 0.543340 0.543410 0.130100 0.956140
Zn7   Zn    Zn3+2 0.369830 0.543410 0.956590 0.920029
Zn8   Zn    Zn3+2 0.543370 0.543400 0.956600 0.928270

loop_
_geom_bond_atom_site_label_1
_geom_bond_atom_site_label_2
_ccdc_geom_bond_type
C16   O14   A    
C63   C65   A    
C17   C69   S    
C23   C45   A    
O9    Zn8   S    
C12   C74   A    
C27   C29   A    
O8    Zn5   S    
C66   O10   A    
C35   C36   A    
C5    C67   A    
C69   O32   A    
C56   C85   A    
C7    C8    A    
C74   H13   S    
H52   O25   S    
C54   C60   A    
C1    O27   A    
O13   Zn1   S    
C25   C28   S    
C79   H36   S    
C12   C23   A    
C26   C27   A    
C62   C63   A    
C81   N6    S    
O2    Zn7   S    
C18   C24   A    
C4    O28   A    
C46   H8    S    
C36   C37   A    
C71   O3    A    
O7    Zn5   S    
C33   H4    S    
C30   C31   A    
H32   O22   S    
C81   H46   S    
C80   H40   S    
C76   N2    S    
C10   C17   A    
C40   C49   S    
C66   O30   A    
C4    C13   S    
C73   N6    S    
C2    C85   A    
C18   C19   A    
C73   C74   A    
C82   H50   S    
C28   O23   A    
C83   H55   S    
O29   Zn5   S    
O27   Zn2   S    
C77   N3    S    
C46   C47   A    
C68   O11   A    
C47   C48   A    
C45   C56   A    
C75   N1    S    
C8    C9    A    
C5    N9    S    
C30   C36   A    
C55   O25   S    
O29   Zn7   S    
C77   H31   S    
C9    C10   A    
C52   O17   A    
C9    O20   S    
O5    Zn8   S    
C1    C37   S    
H17   N1    S    
H27   O21   S    
O30   Zn8   S    
O4    Zn4   S    
C2    H15   S    
C59   C60   A    
C27   H64   S    
C13   C14   A    
C64   H63   S    
C58   O26   S    
C75   H18   S    
C67   C78   A    
C52   C78   S    
C15   N2    S    
C84   N9    S    
C44   C46   A    
C79   H37   S    
O18   Zn3   S    
C39   N4    S    
C6    H12   S    
C32   O22   S    
H53   O26   S    
C24   C25   A    
H54   N8    S    
C39   C41   A    
C20   H45   S    
C6    C11   A    
C82   N7    S    
C76   H24   S    
C14   H16   S    
H38   N5    S    
O29   Zn8   S    
C25   C26   A    
C84   H60   S    
C63   H11   S    
C51   N7    S    
C43   H6    S    
C29   C66   S    
C60   C61   A    
C51   C53   A    
C82   H49   S    
C43   C44   A    
C69   O8    A    
C37   C38   A    
C85   H14   S    
C70   O9    A    
C83   H57   S    
O19   Zn1   S    
C81   H44   S    
C31   C32   A    
O3    Zn6   S    
C68   O31   A    
C50   N5    S    
C64   C73   A    
C23   C34   A    
C79   H35   S    
C8    N1    S    
C34   C64   A    
C50   C51   A    
C72   O5    A    
C42   C48   A    
H59   N9    S    
O1    Zn1   S    
C18   N3    S    
O1    Zn4   S    
H22   N2    S    
C48   C49   A    
O15   Zn3   S    
C26   O21   S    
C55   C57   A    
O28   Zn3   S    
O14   Zn2   S    
C75   H19   S    
C22   C24   A    
C16   C61   S    
C65   C68   S    
C77   H29   S    
C53   C71   S    
C70   O2    A    
H21   O20   S    
O11   Zn7   S    
C80   N5    S    
O10   Zn6   S    
C80   H39   S    
C84   H62   S    
C57   H10   S    
C15   C17   A    
C54   C55   A    
C31   H3    S    
C4    O13   A    
C14   C15   A    
C72   O7    A    
O32   Zn6   S    
H28   N3    S    
C3    C5    A    
C44   H7    S    
H42   N6    S    
C40   O16   A    
C54   O24   S    
C75   H20   S    
C6    C7    A    
C84   H61   S    
C56   C67   A    
H47   N7    S    
C47   C53   A    
C12   N8    S    
C32   C33   A    
C19   C20   A    
C62   H9    S    
C2    C3    A    
C58   C59   A    
C21   H56   S    
C81   H43   S    
C77   H30   S    
O6    Zn7   S    
C34   C78   A    
C79   N4    S    
C83   H58   S    
O31   Zn5   S    
C11   C13   A    
C16   O12   A    
C28   O15   A    
C57   C58   A    
C38   C39   A    
C83   N8    S    
C80   H41   S    
O29   Zn6   S    
C82   H48   S    
C76   H26   S    
H51   O24   S    
C33   C35   A    
C38   H65   S    
O12   Zn1   S    
H33   N4    S    
C71   O6    A    
O17   Zn4   S    
C61   C62   A    
C35   C41   A    
C52   O19   A    
C10   C11   A    
C19   H34   S    
C40   O18   A    
C3    H1    S    
C20   C21   A    
C1    O4    A    
C76   H25   S    
C49   C50   A    
C42   C43   A    
O1    Zn3   S    
C22   C29   A    
C7    H23   S    
O1    Zn2   S    
O23   Zn4   S    
C42   H5    S    
C30   H2    S    
C21   C22   A    
O16   Zn2   S    
C59   C65   A    
C41   C70   S    
C45   C72   S    
