data_mof_unit_60414.cif
_audit_creation_date              2012-12-10T17:57:00-0500
_audit_creation_method            fapswitch 2.2
_symmetry_space_group_name_H-M    P1
_symmetry_Int_Tables_number       1
_space_group_crystal_system       triclinic
_cell_length_a                    18.654162
_cell_length_b                    18.632871
_cell_length_c                    18.768072
_cell_angle_alpha                 109.453256
_cell_angle_beta                  109.622711
_cell_angle_gamma                 109.043204
_cell_volume                      5039.79538301

loop_
_atom_site_label
_atom_site_type_symbol
_atom_type_description
_atom_site_fract_x
_atom_site_fract_y
_atom_site_fract_z
_atom_type_partial_charge
C1    C     C_R   0.379995 0.379942 0.500047 0.908195
C2    C     C_R   0.315509 0.313511 0.501401 -0.086886
C3    C     C_R   0.298833 0.573222 0.334484 -0.185503
C4    C     C_R   0.619095 0.498202 0.620557 0.838373
C5    C     C_R   0.234619 0.574850 0.271559 0.192068
C6    C     C_R   0.183850 0.502262 0.186510 -0.000231
C7    C     C_R   0.196325 0.429762 0.165309 -0.240629
C8    C     C_R   0.260758 0.429194 0.228313 -0.182117
C9    C     C_R   0.312019 0.500876 0.312902 -0.074265
C10   C     C_R   0.744471 0.767259 0.575593 -0.185317
C11   C     C_R   0.809980 0.831249 0.577110 0.146331
C12   C     C_3   0.809169 0.502302 0.810639 0.145782
C13   C     C_R   0.814791 0.813168 0.500057 -0.030274
C14   C     C_R   0.756708 0.730872 0.423418 0.154887
C15   C     C_R   0.692227 0.668159 0.424149 -0.191439
C16   C     C_R   0.619857 0.620333 0.499562 0.888362
C17   C     C_R   0.686210 0.686512 0.499601 -0.118548
C18   C     C_R   0.995806 0.379733 0.875755 0.883436
C19   C     C_R   0.876710 0.501974 0.878399 0.832595
C20   C     C_R   0.996940 0.620238 0.117088 0.845926
C21   C     C_R   0.117874 0.500432 0.118425 0.868805
C22   C     C_R   0.001129 0.880054 0.380504 0.841382
C23   C     C_3   0.848684 0.584383 0.801820 -0.370364
C24   C     C_R   0.120228 0.117758 0.497680 0.902227
C25   C     C_R   0.996386 0.117307 0.619086 0.881266
C26   C     C_R   0.880173 0.880011 0.500135 0.878938
C27   C     C_R   0.070810 0.317173 0.816538 -0.244600
C28   C     C_R   0.378878 0.500189 0.379080 0.876644
C29   C     C_R   0.070750 0.251279 0.755392 -0.233164
C30   C     C_R   0.991618 0.180119 0.684014 -0.068999
C31   C     C_R   0.910261 0.172972 0.673145 0.185188
C32   C     C_R   0.910601 0.242524 0.733410 0.198798
C33   C     C_R   0.991790 0.312824 0.806292 -0.065055
C34   C     C_3   0.736411 0.502475 0.832975 -0.407205
C35   C     C_R   0.000635 0.759924 0.178628 -0.187792
C36   C     C_R   0.001170 0.823638 0.243320 -0.183787
C37   C     C_R   0.002140 0.814673 0.314599 -0.005840
C38   C     C_R   0.001971 0.742294 0.321554 -0.185652
C39   C     C_R   0.998901 0.677294 0.255561 -0.185741
C40   C     C_3   0.699273 0.418485 0.650171 -0.366052
C41   C     C_R   0.998500 0.686593 0.184559 -0.006043
C42   C     C_3   0.768926 0.419059 0.722994 -0.433507
C43   C     C_3   0.776303 0.586144 0.733029 0.015875
C44   C     C_3   0.662936 0.496810 0.758707 -0.468375
C45   C     C_R   0.235128 0.311478 0.483862 0.142591
C46   C     C_3   0.688300 0.499738 0.688378 0.170619
C47   C     C_3   0.215005 0.377678 0.465228 -0.866145
C48   C     C_3   0.274439 0.101082 0.506696 -0.858300
C49   C     C_3   0.422124 0.256852 0.542843 -0.910267
C50   C     C_3   0.221796 0.653553 0.298343 -0.922183
C51   C     C_3   0.873484 0.917579 0.660847 -0.896544
C52   C     C_3   0.762272 0.705915 0.340904 -0.899580
C53   C     C_3   0.823539 0.092274 0.599826 -0.894282
C54   C     C_3   0.825008 0.241660 0.718024 -0.917148
C55   C     C_3   0.803862 0.604580 0.669358 -0.930552
C56   C     C_R   0.172154 0.245863 0.482742 -0.232138
C57   C     C_R   0.186834 0.181074 0.494875 -0.131290
C58   C     C_R   0.264688 0.178753 0.506256 0.181867
C59   C     C_R   0.332280 0.249189 0.515353 0.159162
H1    H     H_    0.111233 0.245404 0.472841 0.171214
H2    H     H_    0.718027 0.417239 0.599668 0.188286
H3    H     H_    0.764174 0.563284 0.894952 0.159862
H4    H     H_    0.768341 0.642024 0.767591 0.159965
H5    H     H_    0.881584 0.645022 0.865643 0.142173
H6    H     H_    0.146243 0.361504 0.446518 0.231070
H7    H     H_    0.258248 0.443596 0.524102 0.255753
H8    H     H_    0.224921 0.379285 0.410520 0.230424
H9    H     H_    0.211319 0.039139 0.459701 0.232443
H10   H     H_    0.321283 0.092555 0.485490 0.237073
H11   H     H_    0.297049 0.109538 0.573197 0.249702
H12   H     H_    0.156707 0.374119 0.099702 0.142781
H13   H     H_    0.474576 0.324272 0.570569 0.222988
H14   H     H_    0.440471 0.240090 0.595326 0.239733
H15   H     H_    0.421908 0.212205 0.486073 0.249009
H16   H     H_    0.338736 0.628692 0.400206 0.163185
H17   H     H_    0.166635 0.647409 0.245132 0.241704
H18   H     H_    0.208177 0.662791 0.353019 0.238144
H19   H     H_    0.282312 0.712815 0.320458 0.248006
H20   H     H_    0.739686 0.779640 0.634059 0.160240
H21   H     H_    0.856060 0.921359 0.712562 0.234036
H22   H     H_    0.940383 0.926065 0.685536 0.259056
H23   H     H_    0.636042 0.357309 0.617839 0.167251
H24   H     H_    0.873683 0.972330 0.649638 0.231568
H25   H     H_    0.821278 0.755231 0.348383 0.244183
H26   H     H_    0.764566 0.643855 0.320487 0.235128
H27   H     H_    0.703467 0.695959 0.288191 0.247442
H28   H     H_    0.646656 0.604780 0.365669 0.166936
H29   H     H_    0.132702 0.371301 0.872693 0.162892
H30   H     H_    0.830066 0.035521 0.566210 0.242876
H31   H     H_    0.781115 0.069811 0.626211 0.239668
H32   H     H_    0.789922 0.107783 0.550783 0.247975
H33   H     H_    0.834504 0.305746 0.759930 0.237821
H34   H     H_    0.269982 0.372629 0.211152 0.162628
H35   H     H_    0.786341 0.226153 0.650048 0.237204
H36   H     H_    0.786518 0.192179 0.730035 0.250122
H37   H     H_    0.737878 0.359758 0.727376 0.182983
H38   H     H_    0.998060 0.620638 0.260259 0.146023
H39   H     H_    0.814669 0.552593 0.632624 0.252668
H40   H     H_    0.753775 0.610178 0.622564 0.244250
H41   H     H_    0.865795 0.667861 0.706337 0.245627
H42   H     H_    0.899712 0.583749 0.783802 0.198711
H43   H     H_    0.651498 0.552109 0.786442 0.188809
H44   H     H_    0.601072 0.435117 0.729052 0.173837
H45   H     H_    0.132801 0.256367 0.763189 0.166242
H46   H     H_    0.708344 0.445946 0.842310 0.196597
H47   H     H_    0.000280 0.766853 0.123437 0.138214
H48   H     H_    0.001638 0.880088 0.238371 0.143102
H49   H     H_    0.002249 0.735410 0.376738 0.144922
H50   H     H_    0.820624 0.416261 0.706982 0.165436
O1    O     O_R   0.408680 0.356690 0.448540 -0.616587
O2    O     O_R   0.052580 0.908350 0.460820 -0.623604
O3    O     O_R   0.039640 0.091520 0.447910 -0.627294
O4    O     O_R   0.408060 0.460070 0.551440 -0.623422
O5    O     O_R   0.143620 0.091540 0.551930 -0.615396
O6    O     O_R   0.947420 0.091470 0.539000 -0.615132
O7    O     O_R   0.051410 0.091490 0.643030 -0.624553
O8    O     O_R   0.856380 0.908290 0.447890 -0.621762
O9    O     O_R   0.960370 0.908300 0.551910 -0.621713
O10   O     O_R   0.592410 0.448290 0.540650 -0.627389
O11   O     O_R   0.591790 0.551670 0.643550 -0.636535
O12   O     O_R   0.049540 0.460010 0.906120 -0.622978
O13   O     O_R   0.591940 0.539930 0.448560 -0.623120
O14   O     O_R   0.591320 0.643310 0.551460 -0.624518
O15   O     O_R   0.408210 0.448330 0.356450 -0.626111
O16   O     O_R   0.407590 0.551710 0.459350 -0.627416
O17   O     O_R   0.946090 0.356640 0.906180 -0.613753
O18   O     O_R   0.853500 0.448290 0.905220 -0.632477
O19   O     O_R   0.956960 0.551660 0.905160 -0.633629
O20   O     O_R   0.945110 0.539900 0.088450 -0.620970
O21   O     O_R   0.048570 0.643270 0.088390 -0.624000
O22   O     O_R   0.037700 0.448250 0.089410 -0.619576
O23   O     O_R   0.141150 0.551620 0.089350 -0.614432
O24   O     O_R   0.948590 0.908340 0.356800 -0.623527
Zn1   Zn    Zn3+2 0.500420 0.430970 0.431290 0.943181
Zn2   Zn    Zn3+2 0.499580 0.569030 0.568710 0.936608
Zn3   Zn    Zn3+2 0.928250 0.430930 0.997320 0.947141
Zn4   Zn    Zn3+2 0.066410 0.568980 0.997240 0.947812
Zn5   Zn    Zn3+2 0.930570 0.999900 0.430450 0.950128
Zn6   Zn    Zn3+2 0.069430 0.999920 0.569370 0.943559

loop_
_geom_bond_atom_site_label_1
_geom_bond_atom_site_label_2
_ccdc_geom_bond_type
C24   O5    A    
C27   C29   A    
O3    Zn5   S    
O8    Zn5   S    
C24   O3    A    
C26   O8    A    
C20   O20   A    
C20   C41   S    
O2    Zn6   S    
C7    C8    A    
C39   C41   A    
C4    C46   S    
C27   C33   A    
C40   C46   S    
C12   C23   S    
C29   C30   A    
C42   H37   S    
C36   C37   A    
C42   H50   S    
C25   O6    A    
C7    H12   S    
C30   C31   A    
C39   H38   S    
C11   C13   A    
C16   C17   S    
C23   H42   S    
C10   C17   A    
O12   Zn4   S    
O13   Zn1   S    
C19   O19   A    
C34   H3    S    
C23   C43   S    
C56   C57   A    
C12   C19   S    
C1    C2    S    
C32   C54   S    
C52   H25   S    
C16   O13   A    
C51   H21   S    
C21   O22   A    
C12   C42   S    
C14   C52   S    
C35   C36   A    
C45   C56   A    
C8    C9    A    
C49   H13   S    
C55   H41   S    
C53   H32   S    
C4    O10   A    
C3    H16   S    
C48   H10   S    
C47   H7    S    
O7    Zn6   S    
O16   Zn2   S    
C40   C42   S    
O17   Zn3   S    
O24   Zn5   S    
C13   C14   A    
C36   H48   S    
C1    O4    A    
C35   C41   A    
C50   H19   S    
C47   H8    S    
C43   C46   S    
C44   H44   S    
C44   C46   S    
C45   C47   S    
C2    C45   A    
C38   C39   A    
O10   Zn1   S    
C22   O24   A    
C43   H4    S    
C40   H23   S    
C34   C44   S    
O18   Zn3   S    
O22   Zn3   S    
C25   O7    A    
C48   H11   S    
C44   H43   S    
C2    C59   A    
C24   C57   S    
O23   Zn4   S    
C6    C21   S    
C48   H9    S    
C40   H2    S    
C56   H1    S    
C29   H45   S    
O14   Zn2   S    
O19   Zn4   S    
C21   O23   A    
C54   H33   S    
C37   C38   A    
C3    C9    A    
C50   H17   S    
C1    O1    A    
O20   Zn3   S    
C31   C32   A    
O6    Zn5   S    
O5    Zn6   S    
C31   C53   S    
C54   H36   S    
C43   C55   S    
C23   H5    S    
C53   H30   S    
C49   H14   S    
C13   C26   S    
O1    Zn1   S    
C12   C34   S    
O9    Zn6   S    
C50   H18   S    
C51   H24   S    
C28   O16   A    
C15   H28   S    
C25   C30   S    
C15   C17   A    
C51   H22   S    
C52   H26   S    
C49   H15   S    
C34   H46   S    
C16   O14   A    
C8    H34   S    
C26   O9    A    
C20   O21   A    
C3    C5    A    
C10   H20   S    
C28   O15   A    
C48   C58   S    
C6    C7    A    
C49   C59   S    
O15   Zn1   S    
O11   Zn2   S    
C32   C33   A    
C52   H27   S    
C58   C59   A    
C35   H47   S    
C18   O17   A    
C22   C37   S    
C57   C58   A    
C5    C6    A    
C55   H39   S    
C19   O18   A    
C38   H49   S    
C27   H29   S    
C5    C50   S    
C18   C33   S    
C54   H35   S    
C11   C51   S    
C10   C11   A    
C18   O12   A    
C22   O2    A    
O4    Zn2   S    
C55   H40   S    
C53   H31   S    
C14   C15   A    
C4    O11   A    
O21   Zn4   S    
C47   H6    S    
C9    C28   S    
