data_mof_unit_33209.cif
_audit_creation_date              2012-10-26T20:46:42-0400
_audit_creation_method            fapswitch 2.2
_symmetry_space_group_name_H-M    P1
_symmetry_Int_Tables_number       1
_space_group_crystal_system       triclinic
_cell_length_a                    15.139568
_cell_length_b                    13.815127
_cell_length_c                    10.93352
_cell_angle_alpha                 89.987213
_cell_angle_beta                  90.10534
_cell_angle_gamma                 89.942245
_cell_volume                      2286.79588845

loop_
_atom_site_label
_atom_site_type_symbol
_atom_type_description
_atom_site_fract_x
_atom_site_fract_y
_atom_site_fract_z
_atom_type_partial_charge
C1    C     C_R   0.329771 0.500032 0.500100 0.620978
C2    C     C_R   0.559550 0.892687 0.425729 0.193371
C3    C     C_R   0.439906 0.892839 0.573393 0.197917
C4    C     C_R   0.558007 0.790480 0.428017 0.059049
C5    C     C_R   0.441745 0.790621 0.571591 0.078364
C6    C     C_R   0.499755 0.945724 0.499591 -0.015694
C7    C     C_R   0.499176 0.500026 0.265128 0.627787
C8    C     C_R   0.500848 0.500038 0.734862 0.626824
C9    C     C_2   0.496803 0.420546 0.932982 -0.085302
C10   C     C_2   0.499866 0.420429 0.066931 -0.132927
C11   C     C_2   0.504330 0.501680 0.866723 -0.026609
C12   C     C_R   0.669812 0.499941 0.500103 0.651499
C13   C     C_2   0.495336 0.501780 0.133267 -0.025806
C14   C     C_R   0.093452 0.556451 0.416213 -0.076505
C15   C     C_R   0.904579 0.508073 0.610563 -0.079219
C16   C     C_R   0.185536 0.556765 0.413955 0.213618
C17   C     C_R   0.812474 0.508005 0.611832 0.207369
C18   C     C_R   0.232910 0.500077 0.500374 -0.007354
C19   C     C_R   0.765956 0.499795 0.500198 0.005106
C20   C     C_R   0.186126 0.443302 0.586985 0.216659
C21   C     C_R   0.812253 0.491299 0.388661 0.209014
C22   C     C_R   0.094012 0.443165 0.584745 -0.078277
C23   C     C_R   0.047614 0.499660 0.500420 -0.056662
C24   C     C_R   0.904367 0.490996 0.390092 -0.079711
C25   C     C_R   0.950661 0.499523 0.500368 -0.054932
C26   C     C_R   0.558342 0.107072 0.574529 -0.044914
C27   C     C_R   0.441357 0.107445 0.425165 -0.038201
C28   C     C_R   0.557249 0.209018 0.573527 0.065623
C29   C     C_R   0.442627 0.209368 0.426429 0.087237
C30   C     C_R   0.499836 0.054784 0.499724 0.100605
Cu1   Cu    Cu3+1 0.500000 0.596430 0.500000 1.092979
Cu2   Cu    Cu3+1 0.500000 0.403570 0.500000 1.081082
H1    H     H_    0.489135 0.350890 0.888092 0.164920
H2    H     H_    0.940509 0.483187 0.305306 0.185391
H3    H     H_    0.604314 0.069215 0.633587 0.155711
H4    H     H_    0.395278 0.069894 0.366075 0.154462
H5    H     H_    0.602424 0.248438 0.631837 0.155995
H6    H     H_    0.397437 0.249065 0.368327 0.146012
H7    H     H_    0.330531 0.745110 0.299168 0.371370
H8    H     H_    0.673308 0.624510 0.839056 0.372860
H9    H     H_    0.332250 0.255734 0.703187 0.365845
H10   H     H_    0.677954 0.369846 0.160565 0.369686
H11   H     H_    0.630216 0.070849 0.201560 0.386074
H12   H     H_    0.505106 0.350448 0.111730 0.154763
H13   H     H_    0.367304 0.071934 0.795414 0.380887
H14   H     H_    0.603405 0.749601 0.371873 0.196208
H15   H     H_    0.396243 0.749851 0.627594 0.189446
H16   H     H_    0.514867 0.572013 0.907415 0.103890
H17   H     H_    0.486738 0.572504 0.092654 0.132666
H18   H     H_    0.056816 0.600825 0.352110 0.187253
H19   H     H_    0.940875 0.515716 0.695419 0.187044
H20   H     H_    0.057814 0.398710 0.648959 0.184784
N1    N     N_R   0.500000 0.258690 0.500000 -0.243439
N2    N     N_R   0.500000 0.741330 0.500000 -0.302366
O1    O     O_R   0.371460 0.581430 0.500010 -0.466801
O2    O     O_2   0.172051 0.660736 0.205379 -0.213141
O3    O     O_3   0.288208 0.722028 0.361682 -0.480644
O4    O     O_2   0.699761 0.430041 0.771859 -0.299576
O5    O     O_2   0.822681 0.523439 0.857482 -0.204426
O6    O     O_3   0.694201 0.617649 0.753706 -0.499666
O7    O     O_2   0.307025 0.437615 0.765889 -0.297850
O8    O     O_2   0.173982 0.340382 0.796469 -0.223415
O9    O     O_3   0.289761 0.278506 0.640432 -0.478382
O10   O     O_2   0.698094 0.567769 0.228336 -0.276054
O11   O     O_2   0.821977 0.475806 0.143068 -0.209200
O12   O     O_R   0.628540 0.581430 0.499990 -0.468995
O13   O     O_3   0.694852 0.380195 0.247116 -0.508715
O14   O     O_2   0.702116 0.005305 0.408056 -0.250083
O15   O     O_2   0.684669 0.880037 0.251134 -0.221068
O16   O     O_3   0.583083 0.031481 0.239750 -0.518542
O17   O     O_2   0.296668 0.004953 0.588952 -0.235465
O18   O     O_2   0.314179 0.880651 0.747184 -0.223879
O19   O     O_3   0.414836 0.032637 0.757911 -0.524533
O20   O     O_R   0.371470 0.418560 0.500010 -0.470104
O21   O     O_R   0.628530 0.418560 0.499990 -0.469458
O22   O     O_R   0.500000 0.581410 0.321940 -0.483236
O23   O     O_R   0.500000 0.581410 0.678060 -0.495570
O24   O     O_R   0.500010 0.418540 0.321940 -0.505755
O25   O     O_R   0.499990 0.418540 0.678060 -0.494946
O26   O     O_2   0.305597 0.563679 0.234723 -0.301361
S1    S     S_3+6 0.238198 0.625659 0.298091 0.060525
S2    S     S_3+6 0.757301 0.517448 0.754079 0.042692
S3    S     S_3+6 0.239601 0.375115 0.703258 0.053174
S4    S     S_3+6 0.756770 0.481146 0.246430 0.047753
S5    S     S_3+6 0.636528 0.951939 0.329868 0.039130
S6    S     S_3+6 0.362241 0.952321 0.668143 0.045163

loop_
_geom_bond_atom_site_label_1
_geom_bond_atom_site_label_2
_ccdc_geom_bond_type
Cu1   O12   S    
O8    S3    D    
H8    O6    S    
C27   C29   A    
O5    S2    D    
C3    C6    A    
Cu2   O21   S    
O2    S1    D    
C4    H14   S    
C5    H15   S    
C1    C18   S    
C1    O20   A    
C19   C21   A    
O4    S2    D    
Cu2   O20   S    
C15   C25   A    
H10   O13   S    
H7    O3    S    
C2    S5    S    
H13   O19   S    
C17   S2    S    
O10   S4    D    
O6    S2    S    
C29   H6    S    
C8    O25   A    
C15   H19   S    
C9    C10   S    
C18   C20   A    
O13   S4    S    
C27   C30   A    
C9    H1    S    
O14   S5    D    
C11   H16   S    
C2    C6    A    
Cu1   O23   S    
C10   H12   S    
C5    N2    A    
C24   C25   A    
O7    S3    D    
O11   S4    D    
C12   O12   A    
C24   H2    S    
O9    S3    S    
C14   C23   A    
C2    C4    A    
O17   S6    D    
Cu1   Cu2   S    
C21   S4    S    
C9    C11   D    
C7    O24   A    
C13   H17   S    
C6    C30   S    
C20   C22   A    
C26   C30   A    
H11   O16   S    
C8    O23   A    
O3    S1    S    
C21   C24   A    
C12   O21   A    
H9    O9    S    
Cu2   N1    S    
O15   S5    D    
C22   H20   S    
C15   C17   A    
C4    N2    A    
O26   S1    D    
C3    C5    A    
C10   C13   D    
O18   S6    D    
C28   N1    A    
C7    O22   A    
C27   H4    S    
C26   C28   A    
C1    O1    A    
Cu2   O25   S    
Cu1   O22   S    
C14   H18   S    
C29   N1    A    
C28   H5    S    
C8    C11   S    
C12   C19   S    
C16   S1    S    
C17   C19   A    
C14   C16   A    
C23   C25   S    
Cu1   N2    S    
O19   S6    S    
Cu2   O24   S    
C26   H3    S    
C7    C13   S    
C16   C18   A    
C20   S3    S    
C22   C23   A    
Cu1   O1    S    
O16   S5    S    
C3    S6    S    
