data_mof_unit_30855.cif
_audit_creation_date              2012-12-11T15:47:12-0500
_audit_creation_method            fapswitch 2.2
_symmetry_space_group_name_H-M    P1
_symmetry_Int_Tables_number       1
_space_group_crystal_system       triclinic
_cell_length_a                    20.120154
_cell_length_b                    7.225308
_cell_length_c                    13.745638
_cell_angle_alpha                 90.022916
_cell_angle_beta                  102.908457
_cell_angle_gamma                 89.975224
_cell_volume                      1947.7627275

loop_
_atom_site_label
_atom_site_type_symbol
_atom_type_description
_atom_site_fract_x
_atom_site_fract_y
_atom_site_fract_z
_atom_type_partial_charge
O1    O     O_R   0.449560 0.506810 0.599700 -0.535847
O2    O     O_R   0.550440 0.006810 0.400300 -0.533079
O3    O     O_R   0.587960 0.180060 0.595760 -0.557727
O4    O     O_R   0.412040 0.680060 0.404240 -0.557940
C1    C     C_R   0.615549 0.344495 0.615616 0.744162
C2    C     C_R   0.384450 0.844515 0.384386 0.719327
O5    O     O_R   0.452380 0.177430 0.611700 -0.543294
O6    O     O_R   0.547620 0.677430 0.388300 -0.539301
O7    O     O_R   0.413900 0.001890 0.416350 -0.514012
O8    O     O_R   0.586100 0.501890 0.583650 -0.511656
C3    C     C_R   0.436817 0.346368 0.637659 0.747786
C4    C     C_R   0.563269 0.846229 0.362390 0.699899
O9    O     O_3   0.487530 0.337490 0.435890 -0.378184
O10   O     O_3   0.512470 0.837490 0.564110 -0.379499
V1    V     V_3+5 0.502310 0.064660 0.511890 1.461426
V2    V     V_3+5 0.497690 0.564660 0.488110 1.464728
C5    C     C_R   0.615418 0.017644 0.134776 -0.166464
C6    C     C_R   0.384381 0.518219 0.864510 -0.206017
H1    H     H_    0.707162 0.184128 0.058604 0.127847
H2    H     H_    0.292780 0.682890 0.941664 0.127238
H3    H     H_    0.594258 0.101713 0.069855 0.125948
H4    H     H_    0.405728 0.602951 0.929093 0.117123
C7    C     C_R   0.600899 0.861170 0.283465 -0.095976
C8    C     C_R   0.398492 0.361897 0.715577 -0.059249
C9    C     C_R   0.926582 0.737892 0.297745 0.160757
C10   C     C_R   0.073594 0.236769 0.702669 0.147459
C11   C     C_R   0.885614 0.653246 0.354115 -0.215210
C12   C     C_R   0.114230 0.152276 0.646029 -0.238213
C13   C     C_R   0.815041 0.678890 0.331798 0.258058
C14   C     C_R   0.184788 0.177604 0.668234 0.268143
C15   C     C_R   0.784801 0.818089 0.261770 -0.005386
C16   C     C_R   0.215069 0.316846 0.738337 -0.005003
C17   C     C_R   0.827308 0.910040 0.205487 -0.047490
C18   C     C_R   0.172597 0.409185 0.794639 -0.057044
C19   C     C_R   0.713764 0.866540 0.243327 0.080876
C20   C     C_R   0.286039 0.365402 0.756611 0.084718
C21   C     C_R   0.685627 0.982707 0.161573 0.052549
C22   C     C_R   0.314252 0.481721 0.838458 0.074810
C23   C     C_R   0.728146 0.078201 0.112751 -0.268137
C24   C     C_R   0.271789 0.576891 0.887543 -0.265470
C25   C     C_R   0.798380 0.053619 0.138703 0.183703
C26   C     C_R   0.201561 0.552628 0.861524 0.179495
C27   C     C_R   0.670510 0.817678 0.307275 -0.218970
C28   C     C_R   0.329140 0.316505 0.692376 -0.245512
C29   C     C_R   0.572205 0.953548 0.193567 0.205732
C30   C     C_R   0.426880 0.456853 0.803911 0.191105
C31   C     C_R   0.896824 0.853660 0.217519 -0.102046
C32   C     C_R   0.103068 0.353221 0.782518 -0.075252
H5    H     H_    0.690692 0.764245 0.381134 0.171117
H6    H     H_    0.309069 0.261788 0.618784 0.171131
H7    H     H_    0.908040 0.553200 0.410703 0.121714
H8    H     H_    0.091245 0.052386 0.589650 0.126982
C33   C     C_R   0.206813 0.006094 0.249413 -0.269598
C34   C     C_R   0.793128 0.506134 0.750692 -0.262592
H9    H     H_    0.174740 0.126966 0.247910 0.143885
H10   H     H_    0.825161 0.627023 0.752245 0.143072
C35   C     C_R   0.271282 0.005470 0.315134 0.208055
C36   C     C_R   0.728667 0.505483 0.684954 0.203100
C37   C     C_R   0.314798 0.851174 0.318207 -0.081407
C38   C     C_R   0.685202 0.351146 0.681797 -0.080756
C39   C     C_R   0.290322 0.695639 0.259945 -0.263170
C40   C     C_R   0.709714 0.195640 0.740035 -0.256842
H11   H     H_    0.322307 0.574143 0.265019 0.150453
H12   H     H_    0.677763 0.074141 0.734937 0.149269
C41   C     C_R   0.224883 0.692144 0.196595 0.287677
C42   C     C_R   0.775135 0.192208 0.803431 0.284649
C43   C     C_R   0.182815 0.852491 0.188647 -0.125452
C44   C     C_R   0.817167 0.352541 0.811409 -0.124570
O11   O     O_R   0.913920 0.203370 0.916260 -0.522645
O12   O     O_R   0.086080 0.703370 0.083740 -0.520842
O13   O     O_R   0.047620 0.535540 0.888290 -0.519742
O14   O     O_R   0.952380 0.035540 0.111710 -0.519849
C45   C     C_R   0.065883 0.368645 0.864098 0.791048
C46   C     C_R   0.933976 0.868763 0.135785 0.783778
O15   O     O_R   0.912040 0.532780 0.904220 -0.551477
O16   O     O_R   0.087960 0.032780 0.095780 -0.551516
O17   O     O_R   0.949550 0.708160 0.099720 -0.531241
O18   O     O_R   0.050450 0.208160 0.900280 -0.540442
C47   C     C_R   0.885666 0.363578 0.881872 0.710035
C48   C     C_R   0.114325 0.863557 0.118155 0.702687
O19   O     O_3   0.012480 0.375300 0.064060 -0.375348
O20   O     O_3   0.987520 0.875300 0.935940 -0.382390
V3    V     V_3+5 0.997690 0.648180 0.988110 1.463857
V4    V     V_3+5 0.002310 0.148180 0.011890 1.458233
N1    N     N_3   0.500693 0.997091 0.164009 -0.660272
H13   H     H_    0.482402 0.940742 0.092994 0.215268
H14   H     H_    0.473102 0.931472 0.210003 0.206366
N2    N     N_3   0.497985 0.502514 0.828105 -0.687001
H15   H     H_    0.519272 0.448087 0.898664 0.224225
H16   H     H_    0.502486 0.646603 0.832747 0.231032
N3    N     N_3   0.290760 0.158292 0.381974 -0.654764
H17   H     H_    0.254539 0.171610 0.425479 0.217866
H18   H     H_    0.289273 0.279217 0.340039 0.222392
N4    N     N_3   0.709137 0.658361 0.618210 -0.654616
H19   H     H_    0.745381 0.671889 0.574773 0.218265
H20   H     H_    0.710525 0.779202 0.660228 0.222260
N5    N     N_2   0.200185 0.525780 0.144633 -0.513849
H21   H     H_    0.164643 0.455972 0.174318 0.267786
C49   C     C_3   0.247555 0.406318 0.109120 -0.566534
H22   H     H_    0.219225 0.321998 0.045785 0.206293
H23   H     H_    0.273112 0.311145 0.168945 0.192675
H24   H     H_    0.286848 0.488791 0.083524 0.205243
N6    N     N_2   0.799847 0.025913 0.855426 -0.513197
H25   H     H_    0.835325 0.955837 0.825673 0.265905
C50   C     C_3   0.752498 0.906820 0.891113 -0.569787
H26   H     H_    0.780856 0.822636 0.954471 0.206760
H27   H     H_    0.726880 0.811512 0.831380 0.191950
H28   H     H_    0.713254 0.989588 0.916736 0.204668
N7    N     N_3   0.998197 0.695044 0.316132 -0.659548
H29   H     H_    0.012006 0.602170 0.375556 0.224771
H30   H     H_    0.024965 0.817476 0.338483 0.206333
N8    N     N_3   0.002306 0.193146 0.683786 -0.679718
H31   H     H_    0.980280 0.229119 0.609941 0.221977
H32   H     H_    0.997310 0.049988 0.690823 0.236934
N9    N     N_2   0.775556 0.552958 0.375178 -0.544597
H33   H     H_    0.798978 0.509343 0.446039 0.250709
C51   C     C_3   0.747399 0.400122 0.311186 -0.516478
H34   H     H_    0.712474 0.319111 0.346966 0.203643
H35   H     H_    0.789051 0.307702 0.299552 0.199387
H36   H     H_    0.717912 0.451187 0.237943 0.209014
N10   N     N_2   0.224178 0.051318 0.624818 -0.543308
H37   H     H_    0.200620 0.007298 0.554085 0.250090
C52   C     C_3   0.252518 0.898848 0.688932 -0.522409
H38   H     H_    0.287377 0.817604 0.653080 0.202383
H39   H     H_    0.210960 0.806528 0.700876 0.200010
H40   H     H_    0.282115 0.950309 0.762024 0.208792
N11   N     N_3   0.839582 0.190454 0.105601 -0.623127
H41   H     H_    0.823538 0.202624 0.028337 0.248332
H42   H     H_    0.830503 0.317820 0.136423 0.217962
N12   N     N_3   0.160409 0.689845 0.894545 -0.626869
H43   H     H_    0.176442 0.702209 0.971803 0.249164
H44   H     H_    0.169542 0.817047 0.863671 0.215846

loop_
_geom_bond_atom_site_label_1
_geom_bond_atom_site_label_2
_ccdc_geom_bond_type
C42   C44   A    
C7    C29   A    
C11   C13   A    
C25   N11   S    
N12   H44   S    
O1    C3    A    
O2    C4    A    
O16   V4    S    
C2    O7    A    
N8    H32   S    
N5    H21   S    
C52   H38   S    
C23   C25   A    
N1    H13   S    
O5    C3    A    
C50   H27   S    
C4    C7    S    
C16   C20   A    
C19   C21   A    
C5    C29   A    
C51   H35   S    
H2    C24   S    
C35   C37   A    
C34   C44   A    
O17   V3    S    
C36   C38   A    
N9    H33   S    
C3    C8    S    
C7    C27   A    
C38   C40   A    
C39   H11   S    
C40   H12   S    
N7    H30   S    
N6    C50   S    
C41   C43   A    
C46   O17   A    
C18   C26   A    
C45   O18   A    
C15   C17   A    
C14   C16   A    
C19   C27   A    
C9    C31   A    
O13   V3    S    
C10   C32   A    
C44   C47   S    
N1    H14   S    
C13   N9    S    
O6    V2    S    
C6    C30   A    
N8    H31   S    
N5    C49   S    
C11   H7    S    
C30   N2    S    
C33   H9    S    
C50   H28   S    
C34   H10   S    
C37   C39   A    
C40   C42   A    
O12   C48   A    
O14   C46   A    
C51   H36   S    
N3    H17   S    
O13   C45   A    
C33   C35   A    
C27   H5    S    
C52   H40   S    
O5    V1    S    
N9    C51   S    
C5    H3    S    
C16   C18   A    
O4    V2    S    
C29   N1    S    
N11   H42   S    
O2    V1    S    
C39   C41   A    
N3    H18   S    
C49   H22   S    
C14   N10   S    
O6    C4    A    
C26   N12   S    
O1    V2    S    
C5    C21   A    
N4    H20   S    
O12   V3    S    
N10   H37   S    
O14   V4    S    
H1    C23   S    
O4    C2    A    
C49   H23   S    
N2    H16   S    
C17   C31   A    
C15   C19   A    
C20   C28   A    
C18   C32   A    
N11   H41   S    
C10   N8    S    
O19   V4    S    
O3    V1    S    
O11   C47   A    
C34   C36   A    
C28   H6    S    
C35   N3    S    
C1    C38   S    
C6    H4    S    
C2    C37   S    
C43   C48   S    
O16   C48   A    
C31   C46   S    
C32   C45   S    
O3    C1    A    
C9    N7    S    
C9    C11   A    
C50   H26   S    
C10   C12   A    
C17   C25   A    
C12   C14   A    
N12   H43   S    
C36   N4    S    
C8    C30   A    
C1    O8    A    
C13   C15   A    
O11   V4    S    
O8    V2    S    
C51   H34   S    
C42   N6    S    
C20   C22   A    
C22   C24   A    
C12   H8    S    
O15   V3    S    
C8    C28   A    
C24   C26   A    
C6    C22   A    
N4    H19   S    
C33   C43   A    
N10   C52   S    
C52   H39   S    
C41   N5    S    
O18   V4    S    
C49   H24   S    
N2    H15   S    
C21   C23   A    
O20   V3    S    
O9    V2    S    
N6    H25   S    
O10   V1    S    
N7    H29   S    
O15   C47   A    
O7    V1    S    
