data_mof_unit_36779.cif
_audit_creation_date              2012-12-10T18:14:24-0500
_audit_creation_method            fapswitch 2.2
_symmetry_space_group_name_H-M    P1
_symmetry_Int_Tables_number       1
_space_group_crystal_system       triclinic
_cell_length_a                    12.722274
_cell_length_b                    13.068771
_cell_length_c                    19.268464
_cell_angle_alpha                 93.240425
_cell_angle_beta                  102.708029
_cell_angle_gamma                 81.957567
_cell_volume                      3093.34675432

loop_
_atom_site_label
_atom_site_type_symbol
_atom_type_description
_atom_site_fract_x
_atom_site_fract_y
_atom_site_fract_z
_atom_type_partial_charge
C1    C     C_R   0.439002 0.691389 0.493529 0.847155
C2    C     C_R   0.504414 0.498265 0.709857 -0.040488
C3    C     C_R   0.500006 0.495028 0.068421 0.316838
C4    C     C_R   0.505336 0.490984 0.929549 0.278345
C5    C     C_R   0.403381 0.493417 0.164786 -0.221048
C6    C     C_R   0.399211 0.497769 0.236294 -0.075918
C7    C     C_R   0.493954 0.511730 0.288703 -0.231503
C8    C     C_R   0.588410 0.532515 0.266530 0.478676
C9    C     C_R   0.592237 0.524048 0.194556 -0.103306
C10   C     C_R   0.499675 0.502924 0.143867 -0.046831
C11   C     C_R   0.696088 0.072803 0.612028 -0.290352
C12   C     C_R   0.501332 0.500112 0.634046 0.847319
C13   C     C_R   0.596669 0.201653 0.528165 -0.177599
C14   C     C_R   0.303177 0.836663 0.439227 0.539431
C15   C     C_R   0.274383 0.942330 0.428195 -0.251783
C16   C     C_R   0.346231 0.011052 0.458920 -0.294224
C17   C     C_R   0.446161 0.975782 0.504874 0.113704
C18   C     C_R   0.464603 0.873296 0.527413 0.025536
C19   C     C_R   0.528253 0.039226 0.529513 0.101679
C20   C     C_R   0.616924 0.007394 0.585948 0.101385
C21   C     C_R   0.623853 0.911582 0.616101 -0.214557
C22   C     C_R   0.548740 0.844874 0.586955 -0.178607
C23   C     C_R   0.560759 0.309153 0.510387 0.927218
C24   C     C_R   0.525209 0.132725 0.497998 -0.334341
C25   C     C_R   0.686320 0.171007 0.583510 0.519279
C26   C     C_R   0.399283 0.801675 0.489039 -0.231725
C27   C     C_R   0.107025 0.318115 0.423163 -0.408340
C28   C     C_R   0.795867 0.639054 0.579206 -0.035667
C29   C     C_R   0.898185 0.671054 0.595627 -0.025288
C30   C     C_R   0.982089 0.615431 0.568059 -0.224361
C31   C     C_R   0.964487 0.526683 0.523919 0.003441
C32   C     C_R   0.858091 0.495666 0.508083 0.187497
C33   C     C_R   0.048307 0.469243 0.493572 0.004455
C34   C     C_R   0.497136 0.504613 0.365497 0.882050
C35   C     C_R   0.030034 0.374789 0.456652 0.114792
C36   C     C_R   0.931998 0.339357 0.448319 -0.310222
C37   C     C_R   0.843838 0.402165 0.464991 -0.019737
C38   C     C_R   0.150231 0.501057 0.497382 -0.130392
C39   C     C_R   0.203023 0.357535 0.423773 0.710440
C40   C     C_R   0.409297 0.488656 0.732868 -0.188684
C41   C     C_R   0.411457 0.485717 0.804712 -0.172300
C42   C     C_R   0.508595 0.491932 0.854687 0.044740
C43   C     C_R   0.604872 0.501934 0.832017 0.011773
C44   C     C_R   0.601980 0.504959 0.759547 -0.214747
H1    H     H_    0.332851 0.483573 0.695491 0.164267
H2    H     H_    0.688684 0.887158 0.660997 0.156656
H3    H     H_    0.762489 0.049671 0.656343 0.167289
H4    H     H_    0.464167 0.156062 0.451165 0.203426
H5    H     H_    0.320628 0.091724 0.447748 0.183704
H6    H     H_    0.198276 0.970654 0.393034 0.159529
H7    H     H_    0.556301 0.771255 0.611815 0.151316
H8    H     H_    0.921101 0.265993 0.419427 0.149925
H9    H     H_    0.090991 0.245238 0.396015 0.150186
H10   H     H_    0.336951 0.477943 0.821288 0.157364
H11   H     H_    0.175300 0.569222 0.526785 0.154469
H12   H     H_    0.730391 0.681234 0.600662 0.135734
H13   H     H_    0.060654 0.642130 0.582965 0.145886
H14   H     H_    0.675806 0.512837 0.742073 0.169758
H15   H     H_    0.331185 0.480856 0.124902 0.168535
N1    N     N_R   0.589641 0.442468 0.976989 -0.154189
N2    N     N_R   0.587010 0.444508 0.045461 -0.155820
N3    N     N_R   0.414309 0.540960 0.020730 -0.169466
N4    N     N_R   0.416932 0.538862 0.952253 -0.171979
N5    N     N_R   0.222200 0.444680 0.463280 -0.138963
N6    N     N_R   0.776960 0.554780 0.536340 -0.133755
O1    O     O_R   0.366740 0.627160 0.482470 -0.563647
O2    O     O_R   0.544830 0.662520 0.505920 -0.635499
O3    O     O_R   0.410920 0.482320 0.590130 -0.633629
O4    O     O_R   0.589010 0.517690 0.613590 -0.619933
O5    O     O_R   0.455170 0.337480 0.494080 -0.569281
O6    O     O_R   0.633260 0.372840 0.517530 -0.592353
O7    O     O_R   0.410990 0.482310 0.386410 -0.571172
O8    O     O_R   0.589080 0.517680 0.409870 -0.572730
Zn1   Zn    Zn3+2 0.381090 0.476390 0.484340 1.013177
Zn2   Zn    Zn3+2 0.618910 0.523610 0.515660 0.968283
O9    O     O_3   0.235145 0.768252 0.403222 -0.589873
C45   C     C_3   0.252608 0.752740 0.333397 -0.271296
H16   H     H_    0.337835 0.718250 0.333617 0.132484
H17   H     H_    0.232103 0.825767 0.303444 0.146232
H18   H     H_    0.198153 0.697764 0.304692 0.208816
O10   O     O_3   0.284762 0.307118 0.391840 -0.587031
C46   C     C_3   0.244169 0.253308 0.328069 -0.369626
H19   H     H_    0.307989 0.240818 0.296313 0.206520
H20   H     H_    0.171004 0.297469 0.294805 0.182685
H21   H     H_    0.226502 0.175997 0.339594 0.153675
C47   C     C_1   0.916969 0.761420 0.640606 0.144826
N7    N     N_1   0.932024 0.834076 0.676686 -0.216363
C48   C     C_1   0.747805 0.365660 0.423228 0.355785
N8    N     N_1   0.676753 0.328813 0.386912 -0.238768
C49   C     C_1   0.706109 0.513639 0.881434 0.179833
N9    N     N_1   0.787252 0.523086 0.920933 -0.173360
C50   C     C_1   0.294945 0.491260 0.252735 0.227722
N10   N     N_1   0.210918 0.486871 0.265394 -0.202530
O11   O     O_3   0.679953 0.556619 0.315068 -0.591451
C51   C     C_3   0.670222 0.664883 0.326443 -0.253015
H22   H     H_    0.595665 0.694923 0.346380 0.145882
H23   H     H_    0.670797 0.705022 0.277160 0.147325
H24   H     H_    0.741157 0.683709 0.367685 0.197020
C52   C     C_1   0.690997 0.541397 0.173787 0.250391
N11   N     N_1   0.769928 0.555347 0.157351 -0.176538
O12   O     O_3   0.755662 0.241025 0.615119 -0.593033
C53   C     C_3   0.858322 0.210620 0.598594 -0.275083
H25   H     H_    0.852032 0.197474 0.540264 0.147900
H26   H     H_    0.900658 0.140380 0.627776 0.164198
H27   H     H_    0.909012 0.273793 0.615722 0.195848

loop_
_geom_bond_atom_site_label_1
_geom_bond_atom_site_label_2
_ccdc_geom_bond_type
C2    C44   A    
C12   O4    A    
O12   C53   S    
C41   C42   A    
C37   C48   S    
C11   H3    S    
C51   H22   S    
C18   C26   A    
C2    C12   S    
O10   C46   S    
C28   H12   S    
C51   H24   S    
C7    C8    A    
C45   H16   S    
C39   N5    A    
C12   O3    A    
C4    N4    A    
N3    N4    A    
C36   C37   A    
C5    C6    A    
C33   C35   A    
C3    N3    A    
C11   C25   A    
O3    Zn1   S    
C15   C16   A    
O1    Zn1   S    
C30   H13   S    
C13   C23   S    
C53   H27   S    
C15   H6    S    
C17   C19   A    
C38   H11   S    
C19   C20   A    
C44   H14   S    
C16   C17   A    
O5    Zn1   S    
C31   C33   A    
C9    C10   A    
C36   H8    S    
C3    N2    A    
C9    C52   S    
C21   C22   A    
O8    Zn2   S    
C23   O5    A    
C13   C25   A    
O11   C51   S    
C17   C18   A    
C38   N5    A    
C45   H17   S    
C40   H1    S    
C11   C20   A    
C43   C49   S    
C5    H15   S    
C24   H4    S    
C23   O6    A    
C8    O11   S    
O9    C45   S    
C39   O10   S    
O7    Zn1   S    
C27   C39   A    
C47   N7    T    
C8    C9    A    
C27   C35   A    
C28   N6    A    
C14   C26   A    
C13   C24   A    
N1    N2    A    
C35   C36   A    
C14   O9    S    
C43   C44   A    
C29   C30   A    
C52   N11   T    
C4    N1    A    
C27   H9    S    
C1    O1    A    
C32   C37   A    
C16   H5    S    
C53   H26   S    
C29   C47   S    
C40   C41   A    
C46   H20   S    
C1    C26   S    
C7    C34   S    
O2    Zn2   S    
C42   C43   A    
C34   O7    A    
C21   H2    S    
C45   H18   S    
C28   C29   A    
C20   C21   A    
C18   C22   A    
C31   C32   A    
C51   H23   S    
C6    C7    A    
C46   H21   S    
C33   C38   A    
N6    Zn2   S    
C19   C24   A    
C5    C10   A    
C3    C10   S    
O6    Zn2   S    
C25   O12   S    
C49   N9    T    
C30   C31   A    
C4    C42   S    
C6    C50   S    
C50   N10   T    
C1    O2    A    
O4    Zn2   S    
C53   H25   S    
C41   H10   S    
C34   O8    A    
C2    C40   A    
C48   N8    T    
C46   H19   S    
N5    Zn1   S    
C14   C15   A    
C32   N6    A    
C22   H7    S    
