data_mof_unit_54368.cif
_audit_creation_date              2012-12-11T14:15:19-0500
_audit_creation_method            fapswitch 2.2
_symmetry_space_group_name_H-M    P1
_symmetry_Int_Tables_number       1
_space_group_crystal_system       triclinic
_cell_length_a                    11.2079
_cell_length_b                    12.74818
_cell_length_c                    23.530301
_cell_angle_alpha                 90.830277
_cell_angle_beta                  96.90825
_cell_angle_gamma                 68.036038
_cell_volume                      3093.66434853

loop_
_atom_site_label
_atom_site_type_symbol
_atom_type_description
_atom_site_fract_x
_atom_site_fract_y
_atom_site_fract_z
_atom_type_partial_charge
C1    C     C_R   0.149504 0.616528 0.428833 0.553893
C2    C     C_R   0.669685 0.554007 0.309697 -0.128603
C3    C     C_R   0.714391 0.726804 0.317690 -0.124128
C4    C     C_R   0.706203 0.734774 0.258181 0.042410
C5    C     C_R   0.688225 0.647171 0.225343 0.041063
C6    C     C_R   0.683028 0.652119 0.166608 -0.116635
C7    C     C_R   0.693397 0.838670 0.170775 -0.131016
C8    C     C_R   0.715095 0.828062 0.230594 -0.138801
C9    C     C_1   0.236343 0.160868 0.123389 -0.000553
C10   C     C_2   0.181755 0.224424 0.228059 -0.099071
C11   C     C_2   0.149129 0.158955 0.263099 0.157177
C12   C     C_R   0.750610 0.603557 0.403744 0.546655
C13   C     C_1   0.130503 0.195273 0.321240 -0.027965
C14   C     C_1   0.211295 0.193183 0.170570 -0.045156
C15   C     C_1   0.116243 0.230274 0.368871 -0.026110
C16   C     C_1   0.168123 0.750114 0.123764 -0.000008
C17   C     C_2   0.143656 0.688186 0.227745 -0.135213
C18   C     C_2   0.236530 0.676204 0.271751 -0.129341
C19   C     C_1   0.217594 0.652238 0.329239 -0.049661
C20   C     C_1   0.156235 0.720736 0.170733 -0.044573
C21   C     C_1   0.193762 0.634482 0.376140 0.000631
C22   C     C_1   0.609092 0.755658 0.861059 0.125003
C23   C     C_R   0.101311 0.282227 0.423455 0.542175
C24   C     C_2   0.678668 0.695498 0.758467 -0.082010
C25   C     C_2   0.591340 0.713815 0.712029 -0.086441
C26   C     C_1   0.635724 0.677937 0.657542 0.009487
C27   C     C_1   0.639744 0.729133 0.814031 0.058115
C28   C     C_1   0.681823 0.644895 0.613963 0.030330
C29   C     C_R   0.189788 0.195051 0.857871 0.001160
C30   C     C_R   0.106169 0.239467 0.643834 0.040239
C31   C     C_R   0.010712 0.178364 0.717129 -0.097750
C32   C     C_R   0.018137 0.193344 0.659205 0.103169
C33   C     C_R   0.187987 0.266412 0.686236 -0.144577
C34   C     C_R   0.148004 0.615472 0.591646 0.583344
C35   C     C_R   0.180702 0.251590 0.743577 -0.004520
C36   C     C_R   0.089390 0.209611 0.759908 0.013033
C37   C     C_R   0.083725 0.195216 0.818542 0.167386
C38   C     C_R   0.271011 0.247650 0.841489 -0.133691
C39   C     C_R   0.264069 0.278583 0.784775 -0.120879
C40   C     C_R   0.125059 0.741641 0.854984 -0.019644
C41   C     C_R   0.180228 0.631359 0.652055 0.001427
C42   C     C_R   0.316470 0.582523 0.742877 -0.117948
C43   C     C_R   0.302848 0.572615 0.683550 0.240126
C44   C     C_R   0.074988 0.697712 0.680469 -0.169922
C45   C     C_R   0.748656 0.603184 0.565301 0.547765
C46   C     C_R   0.089123 0.707225 0.738958 -0.022998
C47   C     C_R   0.210678 0.649652 0.770266 -0.025501
C48   C     C_R   0.226714 0.664588 0.828320 -0.160073
C49   C     C_R   0.998952 0.790712 0.825089 0.231120
C50   C     C_R   0.982708 0.772913 0.766479 -0.106424
C51   C     C_R   0.265735 0.109979 0.069393 0.539941
C52   C     C_R   0.600802 0.774404 0.080989 0.549505
C53   C     C_R   0.189816 0.787914 0.069874 0.536426
C54   C     C_R   0.238844 0.118304 0.908754 0.538813
C55   C     C_R   0.566736 0.777656 0.916467 0.581402
C56   C     C_R   0.099770 0.280878 0.585849 0.561144
C57   C     C_R   0.162500 0.784970 0.908504 0.521416
C58   C     C_R   0.671127 0.752415 0.138788 0.007759
C59   C     C_R   0.701069 0.633806 0.343663 0.009732
C60   C     C_R   0.667000 0.558909 0.251020 -0.143424
Cr1   Cr    Cr6+3 0.189770 0.415650 0.511620 1.106597
Cr2   Cr    Cr6+3 0.930400 0.667320 0.496770 1.021407
Cr3   Cr    Cr6+3 0.879870 0.417010 0.491650 1.037357
Cr4   Cr    Cr6+3 0.149500 0.973980 0.985330 1.131633
Cr5   Cr    Cr6+3 0.457000 0.976510 0.994660 1.078818
Cr6   Cr    Cr6+3 0.411170 0.724270 0.995270 1.032314
H1    H     H_    0.670302 0.583062 0.142479 0.138193
H2    H     H_    0.054693 0.677520 0.234729 0.141832
H3    H     H_    0.488097 0.754342 0.714833 0.138647
H4    H     H_    0.781656 0.654320 0.755110 0.141466
H5    H     H_    0.347365 0.256443 0.871729 0.163682
H6    H     H_    0.944805 0.140014 0.727723 0.187072
H7    H     H_    0.331517 0.314447 0.772644 0.153829
H8    H     H_    0.254879 0.303537 0.674829 0.179994
H9    H     H_    0.322834 0.623587 0.851498 0.150382
H10   H     H_    0.685632 0.916605 0.150005 0.138506
H11   H     H_    0.409770 0.538861 0.767820 0.176470
H12   H     H_    0.887710 0.810841 0.742046 0.149609
H13   H     H_    0.979180 0.740349 0.657269 0.143998
H14   H     H_    0.648633 0.493497 0.225757 0.112770
H15   H     H_    0.729621 0.895838 0.255108 0.109510
H16   H     H_    0.657330 0.482299 0.328576 0.145102
H17   H     H_    0.736807 0.789625 0.343595 0.124910
H18   H     H_    0.189974 0.302615 0.243343 0.108213
H19   H     H_    0.324957 0.688171 0.265137 0.149646
O1    O     O_R   0.196340 0.303200 0.448500 -0.503412
O2    O     O_R   0.811960 0.658090 0.547150 -0.508919
O3    O     O_R   0.757930 0.506140 0.547110 -0.499783
O4    O     O_R   0.988670 0.321620 0.556040 -0.481260
O5    O     O_3   0.000020 0.499990 0.500010 -0.272742
O6    O     O_R   0.113660 0.883270 0.047820 -0.500670
O7    O     O_R   0.186930 0.068530 0.043990 -0.489765
O8    O     O_R   0.377770 0.089040 0.054220 -0.509416
O9    O     O_R   0.562800 0.872960 0.056970 -0.495800
O10   O     O_R   0.555390 0.700940 0.062700 -0.516517
O11   O     O_R   0.295020 0.731920 0.049950 -0.496848
O12   O     O_R   0.199310 0.519670 0.454880 -0.481785
O13   O     O_R   0.094290 0.884230 0.921550 -0.441517
O14   O     O_R   0.168980 0.069410 0.926940 -0.447530
O15   O     O_R   0.358400 0.089990 0.927950 -0.512294
O16   O     O_R   0.544850 0.873850 0.939920 -0.453694
O17   O     O_R   0.536020 0.701900 0.936430 -0.523262
O18   O     O_R   0.277070 0.732810 0.932890 -0.522674
O19   O     O_3   0.339220 0.891590 0.991750 -0.279722
O20   O     O_R   0.045660 0.691380 0.441680 -0.512522
O21   O     O_R   0.811930 0.659460 0.430950 -0.504585
O22   O     O_R   0.757900 0.507620 0.421760 -0.514165
O23   O     O_R   0.988630 0.322990 0.439840 -0.495861
O24   O     O_R   0.196380 0.301720 0.573850 -0.503382
O25   O     O_R   0.199350 0.518300 0.571080 -0.429251
O26   O     O_R   0.045700 0.689900 0.567030 -0.535425
S1    S     S_3+6 0.941697 0.185456 0.840318 0.055485
O27   O     O_2   0.932461 0.204821 0.903054 -0.224196
O28   O     O_2   0.824906 0.272988 0.806959 -0.239056
O29   O     O_3   0.941755 0.057102 0.823750 -0.451363
H20   H     H_    0.033878 0.008241 0.822487 0.313263
N1    N     N_2   0.940806 0.158107 0.616672 -0.518077
H21   H     H_    0.958671 0.072910 0.620591 0.250464
C61   C     C_3   0.803490 0.226007 0.611446 -0.247326
H22   H     H_    0.761921 0.215399 0.650532 0.170808
H23   H     H_    0.753015 0.198821 0.574055 0.154815
H24   H     H_    0.786298 0.316680 0.604608 0.195583
S2    S     S_3+6 0.858406 0.856601 0.860466 0.041444
O30   O     O_2   0.857175 0.956417 0.895344 -0.161055
O31   O     O_2   0.740123 0.897467 0.816884 -0.274189
O32   O     O_3   0.851639 0.757930 0.905155 -0.553734
H25   H     H_    0.923017 0.747131 0.936483 0.339262
S3    S     S_3+6 0.440826 0.488585 0.651261 -0.012273
O33   O     O_2   0.431715 0.376576 0.636426 -0.281604
O34   O     O_2   0.447149 0.547869 0.597595 -0.302493
O35   O     O_3   0.576202 0.465608 0.697017 -0.525241
H26   H     H_    0.648493 0.433804 0.673611 0.360549
N2    N     N_2   0.138795 0.054476 0.244673 -0.500164
H27   H     H_    0.124160 0.045467 0.201066 0.262536
C62   C     C_3   0.067436 0.007402 0.276999 -0.292654
H28   H     H_    0.066984 0.927567 0.257735 0.151400
H29   H     H_    0.965554 0.067852 0.276098 0.142853
H30   H     H_    0.114237 0.987551 0.321966 0.166597

loop_
_geom_bond_atom_site_label_1
_geom_bond_atom_site_label_2
_ccdc_geom_bond_type
C62   H30   S    
C12   O21   A    
C1    C21   S    
O32   H25   S    
Cr3   O3    S    
C6    C58   A    
C35   C36   A    
C9    C51   S    
C24   C27   S    
Cr5   O16   S    
C32   N1    S    
C4    C8    A    
Cr1   O24   S    
S3    O33   D    
S1    O28   D    
C24   H4    S    
C62   H28   S    
Cr2   O20   S    
C55   O17   A    
C36   C37   A    
C45   O2    A    
C11   N2    S    
Cr5   O9    S    
C5    C6    A    
C2    C60   A    
S2    O31   D    
C29   C54   S    
C23   O23   A    
C40   C49   A    
C49   S2    S    
C17   C20   S    
C52   O10   A    
Cr4   O19   S    
C18   C19   S    
Cr6   O17   S    
C16   C53   S    
C37   S1    S    
C38   H5    S    
C12   C59   S    
Cr4   O14   S    
Cr2   O26   S    
C47   C48   A    
C23   O1    A    
C29   C38   A    
C53   O6    A    
C52   O9    A    
C7    C58   A    
C5    C60   A    
C15   C23   S    
Cr4   O13   S    
C62   H29   S    
C53   O11   A    
C34   O26   A    
C41   C43   A    
C48   H9    S    
C54   O15   A    
C34   C41   S    
Cr1   O25   S    
C50   H12   S    
S1    O27   D    
C44   C46   A    
C61   H23   S    
C57   O18   A    
C28   C45   S    
C18   H19   S    
C31   H6    S    
C8    H15   S    
Cr6   O19   S    
S2    O30   D    
C45   O3    A    
C24   C25   D    
C10   C14   S    
C1    O12   A    
C2    C59   A    
S2    O32   S    
C25   C26   S    
C30   C56   S    
C35   C39   A    
C9    C14   T    
C51   O7    A    
C31   C32   A    
C16   C20   T    
Cr3   O4    S    
C17   C18   D    
C22   C55   S    
C52   C58   S    
C51   O8    A    
C56   O4    A    
C22   C27   T    
C13   C15   T    
C3    H17   S    
N2    H27   S    
C34   O25   A    
C41   C44   A    
C54   O14   A    
C2    H16   S    
C25   H3    S    
C42   C43   A    
Cr4   O7    S    
Cr3   O22   S    
C3    C4    A    
S3    O35   S    
C56   O24   A    
Cr1   O5    S    
Cr6   O11   S    
C61   H24   S    
C40   C48   A    
C55   O16   A    
C46   C47   A    
C60   H14   S    
C17   H2    S    
C40   C57   S    
C30   C33   A    
C19   C21   T    
Cr6   O18   S    
C44   H13   S    
Cr1   O12   S    
Cr5   O15   S    
C4    C5    A    
S3    O34   D    
C43   S3    S    
C12   O22   A    
C61   H22   S    
C7    H10   S    
Cr2   O21   S    
Cr1   O1    S    
Cr2   O2    S    
C46   C50   A    
C26   C28   T    
Cr5   O19   S    
N1    C61   S    
C6    H1    S    
N1    H21   S    
C30   C32   A    
C11   C13   S    
O29   H20   S    
C38   C39   A    
C57   O13   A    
Cr2   O5    S    
Cr3   O5    S    
C10   H18   S    
Cr5   O8    S    
C33   C35   A    
C42   C47   A    
C39   H7    S    
C7    C8    A    
C10   C11   D    
C33   H8    S    
C42   H11   S    
C49   C50   A    
C29   C37   A    
N2    C62   S    
C31   C36   A    
Cr4   O6    S    
Cr3   O23   S    
S1    O29   S    
O35   H26   S    
C1    O20   A    
Cr6   O10   S    
C3    C59   A    
