data_mof_unit_35287.cif
_audit_creation_date              2013-03-05T15:40:49-0500
_audit_creation_method            fapswitch 2.2
_symmetry_space_group_name_H-M    P1
_symmetry_Int_Tables_number       1
_space_group_crystal_system       triclinic
_cell_length_a                    7.776711
_cell_length_b                    8.557764
_cell_length_c                    14.869147
_cell_angle_alpha                 91.077415
_cell_angle_beta                  85.750116
_cell_angle_gamma                 93.624025
_cell_volume                      984.766989353

loop_
_atom_site_label
_atom_site_type_symbol
_atom_site_description
_atom_site_fract_x
_atom_site_fract_y
_atom_site_fract_z
_atom_type_partial_charge
O1    O     O_R   0.389250 0.738570 0.505970 -0.610621
O2    O     O_R   0.610750 0.261430 0.494030 -0.610621
O3    O     O_R   0.678390 0.711620 0.490370 -0.631635
O4    O     O_R   0.321610 0.288380 0.509630 -0.631635
C1    C     C_R   0.545730 0.794680 0.497664 0.961677
C2    C     C_R   0.454270 0.205320 0.502336 0.961678
O5    O     O_R   0.355420 0.513510 0.639950 -0.607887
O6    O     O_R   0.644580 0.486490 0.360050 -0.607890
O7    O     O_R   0.644560 0.486560 0.624350 -0.619914
O8    O     O_R   0.355440 0.513440 0.375650 -0.619915
C3    C     C_R   0.501900 0.499645 0.672756 0.880027
C4    C     C_R   0.498100 0.500355 0.327244 0.880031
Zn1   Zn    Zn3+2 0.306940 0.517990 0.510420 0.971109
Zn2   Zn    Zn3+2 0.693060 0.482010 0.489580 0.971107
C5    C     C_R   0.414380 0.374642 0.188905 -0.187860
C6    C     C_R   0.585632 0.625352 0.811095 -0.187870
C7    C     C_R   0.494662 0.501449 0.232162 -0.065993
C8    C     C_R   0.505341 0.498549 0.767838 -0.065984
C9    C     C_R   0.577849 0.626547 0.185281 -0.158801
C10   C     C_R   0.422164 0.373447 0.814718 -0.158808
C11   C     C_R   0.578321 0.627870 0.092333 0.081750
C12   C     C_R   0.421704 0.372118 0.907666 0.081743
C13   C     C_R   0.499660 0.499070 0.046807 0.024677
C14   C     C_R   0.500367 0.500917 0.953193 0.024687
C15   C     C_R   0.420603 0.368662 0.095159 0.007303
C16   C     C_R   0.579428 0.631325 0.904840 0.007305
C17   C     C_R   0.654340 0.756940 0.044931 -0.194248
C18   C     C_R   0.345704 0.243041 0.955067 -0.194257
C19   C     C_R   0.652755 0.761801 0.951363 0.304657
C20   C     C_R   0.347302 0.238173 0.048636 0.304641
H1    H     H_    0.639257 0.723481 0.221598 0.149812
H2    H     H_    0.360755 0.276513 0.778402 0.149809
H3    H     H_    0.710767 0.856395 0.081075 0.210143
H4    H     H_    0.289288 0.143582 0.918922 0.210170
C21   C     C_2   0.569840 0.958189 0.496310 -0.351756
C22   C     C_2   0.430160 0.041811 0.503689 -0.351754
N1    N     N_2   0.950330 0.457950 0.475660 -0.168017
N2    N     N_2   0.049670 0.542050 0.524340 -0.168016
H5    H     H_    0.349140 0.281703 0.229277 0.180935
H6    H     H_    0.650865 0.718296 0.770723 0.180929
N3    N     N_R   0.720524 0.901431 0.905571 0.203269
O9    O     O_R   0.859181 0.976783 0.931632 -0.345254
O10   O     O_R   0.627110 0.969336 0.850559 -0.415717
N4    N     N_R   0.279577 0.098518 0.094423 0.203294
O11   O     O_R   0.141011 0.023083 0.068326 -0.345258
O12   O     O_R   0.372991 0.030687 0.149462 -0.415746
H7    H     H_    0.701788 0.009188 0.489258 0.184000
H8    H     H_    0.298212 0.990812 0.510741 0.184000
H9    H     H_    0.013730 0.382434 0.431986 0.198348
H10   H     H_    0.986270 0.617566 0.568014 0.198351

loop_
_geom_bond_atom_site_label_1
_geom_bond_atom_site_label_2
_geom_bond_distance
_ccdc_geom_bond_type
C4    C7    1.416236 S    
O7    Zn2   2.011554 S    
C3    C8    1.416235 S    
N1    N2    1.277388 D    
N2    H10   1.029313 S    
C17   C19   1.393676 A    
N1    H9    1.029312 S    
N3    O9    1.301281 A    
N3    O10   1.301465 A    
C21   C22   1.334821 D    
O6    C4    1.285017 A    
C13   C14   1.391946 A    
C21   H7    1.087913 S    
C9    H1    1.085851 S    
C18   C20   1.393692 A    
C11   C17   1.396880 A    
C18   H4    1.084586 S    
C12   C18   1.396872 A    
C17   H3    1.084579 S    
Zn2   N1    2.019206 S    
O5    C3    1.285018 A    
O7    C3    1.286753 A    
C5    H5    1.082656 S    
C20   N4    1.437750 S    
Zn1   N2    2.019206 S    
O2    C2    1.277789 A    
O3    Zn2   1.975207 S    
O8    C4    1.286754 A    
C6    H6    1.082657 S    
O1    C1    1.277789 A    
C1    C21   1.400305 S    
O4    C2    1.286293 A    
C9    C11   1.382043 A    
C2    C22   1.400305 S    
C22   H8    1.087913 S    
C8    C10   1.387151 A    
C11   C13   1.412612 A    
C6    C16   1.391261 A    
O2    Zn2   1.955271 S    
C12   C14   1.412617 A    
C5    C15   1.391259 A    
O1    Zn1   1.955269 S    
C10   C12   1.382046 A    
O5    Zn1   1.991310 S    
C13   C15   1.420660 A    
N4    O11   1.301197 A    
C16   C19   1.413993 A    
C6    C8    1.388794 A    
C10   H2    1.085855 S    
O4    Zn1   1.975209 S    
C5    C7    1.388788 A    
C19   N3    1.437705 S    
C15   C20   1.414007 A    
O6    Zn2   1.991311 S    
C7    C9    1.387151 A    
C14   C16   1.420666 A    
N4    O12   1.301440 A    
O3    C1    1.286294 A    
O8    Zn1   2.011555 S    
