data_mof_unit_52427.cif
_audit_creation_date              2012-12-11T16:18:07-0500
_audit_creation_method            fapswitch 2.2
_symmetry_space_group_name_H-M    P1
_symmetry_Int_Tables_number       1
_space_group_crystal_system       triclinic
_cell_length_a                    8.344234
_cell_length_b                    15.101979
_cell_length_c                    17.390353
_cell_angle_alpha                 97.093675
_cell_angle_beta                  96.669555
_cell_angle_gamma                 98.331975
_cell_volume                      2131.56451647

loop_
_atom_site_label
_atom_site_type_symbol
_atom_type_description
_atom_site_fract_x
_atom_site_fract_y
_atom_site_fract_z
_atom_type_partial_charge
Ba1   Ba    Ba6+2 0.159600 0.544390 0.464800 1.687643
Ba2   Ba    Ba6+2 0.650570 0.455600 0.535140 1.713908
C1    C     C_3   0.409932 0.807658 0.178387 -0.043055
C2    C     C_R   0.108531 0.077571 0.534993 -0.070244
C3    C     C_R   0.962012 0.893337 0.534496 -0.018017
C4    C     C_3   0.905904 0.778688 0.270591 0.345024
C5    C     C_R   0.114498 0.932075 0.580835 0.072497
C6    C     C_R   0.192885 0.016892 0.570103 -0.097844
C7    C     C_R   0.892671 0.798595 0.524803 0.037749
C8    C     C_R   0.737049 0.770019 0.481254 -0.292010
C9    C     C_R   0.923366 0.203254 0.474202 -0.008013
C10   C     C_R   0.854751 0.109370 0.465401 -0.041217
C11   C     C_R   0.945682 0.047119 0.498780 0.037098
C12   C     C_3   0.456363 0.781375 0.261247 0.307557
C13   C     C_R   0.699302 0.075175 0.423548 -0.031116
C14   C     C_R   0.631328 0.984011 0.418073 -0.112082
C15   C     C_R   0.714802 0.922447 0.454192 -0.028532
C16   C     C_3   0.966499 0.868779 0.244799 -0.176391
C17   C     C_R   0.874778 0.953778 0.495128 0.015787
C18   C     C_R   0.644022 0.830248 0.449046 -0.037246
C19   C     C_R   0.085036 0.230593 0.510652 -0.171055
C20   C     C_R   0.599728 0.536355 0.282697 -0.288190
C21   C     C_R   0.442923 0.488550 0.256356 0.060250
C22   C     C_R   0.380480 0.478415 0.176809 -0.041313
C23   C     C_3   0.575298 0.732573 0.648935 0.289829
C24   C     C_R   0.477102 0.514116 0.123603 0.029468
C25   C     C_R   0.638580 0.556731 0.149750 -0.145418
C26   C     C_R   0.699706 0.567393 0.229325 -0.028827
C27   C     C_R   0.414252 0.536131 0.841399 -0.097651
C28   C     C_3   0.734229 0.344888 0.298789 0.247004
C29   C     C_R   0.364845 0.520517 0.759273 -0.045727
C30   C     C_R   0.105466 0.434976 0.777857 0.070874
C31   C     C_R   0.155730 0.446304 0.858469 -0.140607
C32   C     C_R   0.310417 0.494684 0.890344 -0.040015
C33   C     C_1   0.362821 0.499717 0.973267 0.054877
C34   C     C_3   0.635809 0.833217 0.673748 -0.374689
C35   C     C_1   0.412747 0.505307 0.041966 0.061352
C36   C     C_R   0.212134 0.469071 0.728658 -0.273687
C37   C     C_3   0.712970 0.325508 0.209279 -0.215059
C38   C     C_3   0.061570 0.650228 0.700838 0.294090
C39   C     C_3   0.095707 0.675358 0.789391 -0.342650
C40   C     C_3   0.142944 0.274848 0.315254 0.309157
C41   C     C_3   0.117866 0.171414 0.299941 -0.171031
C42   C     C_2   0.593265 0.241199 0.177837 0.956322
C43   C     C_2   0.248873 0.751575 0.139065 0.971786
C44   C     C_2   0.237936 0.132495 0.352809 0.819012
C45   C     C_3   0.835891 0.199742 0.731297 0.287595
C46   C     C_2   0.122336 0.139293 0.214538 0.905296
C47   C     C_3   0.538969 0.786246 0.125416 -0.456962
C48   C     C_3   0.404834 0.910247 0.183766 -0.341871
C49   C     C_3   0.884851 0.944983 0.279193 -0.459257
C50   C     C_2   0.004259 0.193673 0.709942 0.734480
C51   C     C_2   0.606260 0.078168 0.760598 0.906114
C52   C     C_3   0.853569 0.141170 0.865721 -0.403403
C53   C     C_3   0.329732 0.245202 0.864175 -0.394116
C54   C     C_3   0.176645 0.901331 0.656297 -0.310479
C55   C     C_2   0.565712 0.599644 0.877151 0.868812
C56   C     C_3   0.785228 0.119038 0.778128 -0.188317
C57   C     C_3   0.441861 0.290361 0.740998 0.346753
C58   C     C_3   0.477343 0.286034 0.828860 -0.211657
C59   C     C_R   0.179680 0.169627 0.540612 0.085405
H1    H     H_    0.458468 0.707357 0.256298 0.032790
H2    H     H_    0.126370 0.297184 0.376422 -0.027027
H3    H     H_    0.994006 0.147124 0.313874 -0.028520
H4    H     H_    0.579154 0.817194 0.285160 -0.061629
H5    H     H_    0.676499 0.701034 0.627045 0.020807
H6    H     H_    0.470901 0.723871 0.601385 0.056261
H7    H     H_    0.750936 0.843608 0.715148 0.124876
H8    H     H_    0.658994 0.866902 0.622065 0.078940
H9    H     H_    0.542531 0.864838 0.702949 0.156164
H10   H     H_    0.751456 0.192012 0.675849 0.062578
H11   H     H_    0.840006 0.059499 0.756583 0.112163
H12   H     H_    0.670976 0.383539 0.184636 -0.008413
H13   H     H_    0.330485 0.320381 0.730228 0.042765
H14   H     H_    0.544773 0.336727 0.726190 0.091007
H15   H     H_    0.519261 0.356030 0.859553 0.082272
H16   H     H_    0.925401 0.786067 0.335680 0.029341
H17   H     H_    0.577828 0.247720 0.840635 0.151370
H18   H     H_    0.315259 0.039628 0.599196 0.146669
H19   H     H_    0.513840 0.961584 0.383128 0.099839
H20   H     H_    0.629388 0.117850 0.392872 0.153811
H21   H     H_    0.683649 0.699434 0.475444 0.062592
H22   H     H_    0.137828 0.301291 0.516834 0.072241
H23   H     H_    0.832107 0.318336 0.188832 0.077299
H24   H     H_    0.716687 0.580729 0.108514 0.088545
H25   H     H_    0.073838 0.417919 0.896372 0.089489
H26   H     H_    0.775374 0.758043 0.247839 -0.075572
H27   H     H_    0.258652 0.441452 0.156325 0.083810
H28   H     H_    0.648736 0.542898 0.343904 0.061492
H29   H     H_    0.172005 0.459740 0.666311 0.074785
H30   H     H_    0.098714 0.886190 0.264836 0.188276
H31   H     H_    0.944804 0.862789 0.180080 0.161005
H32   H     H_    0.618057 0.358628 0.318248 0.027237
H33   H     H_    0.829948 0.405456 0.317482 0.035985
H34   H     H_    0.171242 0.629953 0.678358 -0.006805
H35   H     H_    0.548373 0.104931 0.162289 0.318307
H36   H     H_    0.119203 0.626734 0.103637 0.318243
H37   H     H_    0.289379 0.023182 0.400082 0.306445
H38   H     H_    0.229411 0.071602 0.132966 0.317033
H39   H     H_    0.658402 0.829461 0.146585 0.128798
H40   H     H_    0.555315 0.714611 0.122746 0.145310
H41   H     H_    0.501159 0.798972 0.064831 0.167937
H42   H     H_    0.325603 0.932577 0.226229 0.184280
H43   H     H_    0.527466 0.950712 0.203049 0.119087
H44   H     H_    0.360742 0.928107 0.125775 0.145894
H45   H     H_    0.957312 0.593695 0.686113 0.086154
H46   H     H_    0.926391 0.962199 0.342606 0.173868
H47   H     H_    0.915507 0.004290 0.249490 0.173924
H48   H     H_    0.751767 0.927439 0.269612 0.116930
H49   H     H_    0.185230 0.117823 0.704579 0.341222
H50   H     H_    0.553244 0.093497 0.873077 0.274642
H51   H     H_    0.799610 0.196386 0.895817 0.136963
H52   H     H_    0.830141 0.080121 0.895011 0.128131
H53   H     H_    0.987895 0.162732 0.873004 0.165695
H54   H     H_    0.300398 0.171444 0.845285 0.223983
H55   H     H_    0.357935 0.256893 0.928959 0.137075
H56   H     H_    0.210596 0.724770 0.805816 0.122810
H57   H     H_    0.221627 0.276661 0.847160 0.121704
H58   H     H_    0.072685 0.884146 0.688868 0.131597
H59   H     H_    0.250482 0.847033 0.646755 0.144793
H60   H     H_    0.258327 0.956659 0.696537 0.163160
H61   H     H_    0.673636 0.698655 0.964323 0.314665
H62   H     H_    0.107535 0.615077 0.818210 0.081193
H63   H     H_    0.993253 0.705968 0.811153 0.166485
H64   H     H_    0.050129 0.297785 0.274819 0.051580
O1    O     O_2   0.167800 0.722260 0.545390 -0.463570
O2    O     O_2   0.788721 0.449996 0.771865 -0.464125
O3    O     O_3   0.827237 0.283665 0.776700 -0.651629
O4    O     O_3   0.895640 0.608830 0.542800 -0.496246
O5    O     O_3   0.421020 0.453750 0.407550 -0.467751
O6    O     O_2   0.649650 0.543880 0.686730 -0.427851
O7    O     O_3   0.525421 0.694906 0.713738 -0.622882
O8    O     O_2   0.526819 0.179378 0.556164 -0.457729
O9    O     O_3   0.427011 0.205178 0.694578 -0.605511
O10   O     O_3   0.383370 0.666730 0.405950 -0.468572
O11   O     O_2   0.310796 0.824259 0.461070 -0.465423
O12   O     O_3   0.299737 0.310676 0.302101 -0.618170
O13   O     O_3   0.023707 0.726593 0.669918 -0.653214
O14   O     O_3   0.349122 0.805894 0.313877 -0.588618
O15   O     O_2   0.160640 0.456070 0.313250 -0.483316
O16   O     O_3   0.956200 0.620970 0.366040 -0.476951
O17   O     O_2   0.022930 0.545657 0.228527 -0.457059
O18   O     O_2   0.462298 0.246323 0.140453 -0.621933
O19   O     O_R   0.634690 0.156967 0.189476 -0.704443
O20   O     O_2   0.141449 0.787095 0.107204 -0.626084
O21   O     O_R   0.227767 0.657454 0.134523 -0.748367
O22   O     O_2   0.352509 0.181576 0.394371 -0.590411
O23   O     O_3   0.992700 0.714174 0.238277 -0.556829
O24   O     O_R   0.214604 0.039845 0.355959 -0.781728
O25   O     O_2   0.019278 0.156505 0.165035 -0.596995
O26   O     O_R   0.241445 0.089304 0.191760 -0.751080
O27   O     O_2   0.065916 0.247521 0.671261 -0.695531
O28   O     O_R   0.085256 0.123365 0.730393 -0.790907
O29   O     O_2   0.552767 0.046041 0.693163 -0.618685
O30   O     O_R   0.502766 0.067615 0.817825 -0.736769
O31   O     O_2   0.691752 0.600232 0.847785 -0.584465
O32   O     O_R   0.563666 0.659333 0.945120 -0.771389
O33   O     O_2   0.642490 0.277680 0.454580 -0.400348
O34   O     O_3   0.914650 0.391160 0.457140 -0.506774
O35   O     O_3   0.426920 0.333260 0.593990 -0.486982
O36   O     O_3   0.779663 0.269749 0.330007 -0.626216
O37   O     O_3   0.389280 0.546240 0.592390 -0.489741
O38   O     O_3   0.854100 0.379030 0.633890 -0.464486
P1    P     P_3+3 0.994840 0.708040 0.567640 0.972084
P2    P     P_3+3 0.329360 0.428650 0.323990 1.014208
P3    P     P_3+3 0.915863 0.610473 0.264441 0.987029
P4    P     P_3+3 0.815450 0.291950 0.432300 1.007432
P5    P     P_3+3 0.894344 0.383700 0.736934 0.978874
P6    P     P_3+3 0.425268 0.783942 0.407368 0.966723
P7    P     P_3+3 0.480206 0.577193 0.689755 0.983658
P8    P     P_3+3 0.388771 0.218011 0.594856 1.026434

loop_
_geom_bond_atom_site_label_1
_geom_bond_atom_site_label_2
_ccdc_geom_bond_type
O6    P7    D    
C48   H43   S    
C46   O25   D    
C40   H2    S    
O23   P3    S    
H36   O21   S    
C23   H6    S    
C2    C6    A    
Ba2   O37   S    
O12   P2    S    
C1    C47   S    
C45   O3    S    
C13   H20   S    
C58   H17   S    
O16   P3    S    
C43   O20   D    
C16   H30   S    
C39   H63   S    
C33   C35   T    
C22   C24   A    
C37   H23   S    
C32   C33   S    
C28   H32   S    
Ba1   O4    S    
C47   H40   S    
O17   P3    D    
C53   H55   S    
C13   C14   A    
C12   H1    S    
C52   H52   S    
C52   H53   S    
Ba2   O4    S    
Ba2   O33   S    
Ba1   Ba2   S    
C2    C11   A    
C25   H24   S    
C40   H64   S    
C15   C17   A    
C21   P2    S    
O35   P8    S    
C19   H22   S    
Ba1   P1    S    
C8    C18   A    
C49   H47   S    
C38   O13   S    
C41   H3    S    
C48   H44   S    
C21   C22   A    
C59   P8    S    
C30   C36   A    
C7    C8    A    
C19   C59   A    
C26   P3    S    
C28   H33   S    
O3    P5    S    
C37   H12   S    
C18   P6    S    
C48   H42   S    
C49   H48   S    
C20   C26   A    
C53   C58   S    
C40   O12   S    
C9    P4    S    
C54   H59   S    
O7    P7    S    
C5    C54   S    
O34   P4    S    
O1    P1    D    
C1    C48   S    
C34   H9    S    
C16   C49   S    
Ba2   O6    S    
C4    C16   S    
C55   O31   D    
C11   C17   A    
C43   O21   S    
C5    C6    A    
Ba1   O1    S    
Ba1   O5    S    
C47   H41   S    
C3    C5    A    
Ba2   O34   S    
C4    H16   S    
C50   O28   S    
H38   O26   S    
C2    C59   A    
C58   H15   S    
C4    H26   S    
O4    P1    S    
C14   H19   S    
C7    P1    S    
C31   H25   S    
C3    C7    A    
H35   O19   S    
C4    O23   S    
C44   O22   D    
O37   P7    S    
C10   C13   A    
Ba1   O34   S    
C42   O19   S    
C52   C56   S    
C31   C32   A    
C24   C25   A    
C52   H51   S    
C10   C11   A    
C20   H28   S    
C22   H27   S    
C57   H13   S    
C45   H10   S    
O36   P4    S    
Ba1   O15   S    
C49   H46   S    
C38   C39   S    
C27   C55   S    
Ba1   O37   S    
C51   O30   S    
O9    P8    S    
C30   P5    S    
C54   H58   S    
O33   P4    D    
C40   C41   S    
C38   H34   S    
C14   C15   A    
C57   H14   S    
C34   H8    S    
C38   H45   S    
C41   C46   S    
O15   P2    D    
C55   O32   S    
Ba1   P2    S    
C15   C18   A    
C23   H5    S    
Ba2   O38   S    
C8    H21   S    
C51   C56   S    
C34   H7    S    
C24   C35   S    
C37   C42   S    
C3    C17   A    
C29   P7    S    
C1    C12   S    
C36   H29   S    
C57   O9    S    
C29   C36   A    
C16   H31   S    
C54   H60   S    
C39   H62   S    
O38   P5    S    
O8    P8    D    
C1    C43   S    
C27   C29   A    
C6    H18   S    
C30   C31   A    
C47   H39   S    
C23   O7    S    
O5    P2    S    
C56   H11   S    
O2    P5    D    
C53   H54   S    
C51   O29   D    
C42   O18   D    
C27   C32   A    
Ba2   O5    S    
C12   H4    S    
C9    C19   A    
C28   C37   S    
O14   P6    S    
O10   P6    S    
C41   C44   S    
C12   O14   S    
Ba1   O16   S    
C23   C34   S    
C57   C58   S    
C44   O24   S    
O11   P6    D    
Ba2   O35   S    
C46   O26   S    
C45   C50   S    
C25   C26   A    
H49   O28   S    
C20   C21   A    
O13   P1    S    
C28   O36   S    
C39   H56   S    
Ba1   O10   S    
C50   O27   D    
H50   O30   S    
Ba2   P4    S    
H37   O24   S    
H61   O32   S    
C9    C10   A    
C45   C56   S    
C53   H57   S    
