data_mof_unit_56705.cif
_audit_creation_date              2012-12-10T20:30:09-0500
_audit_creation_method            fapswitch 2.2
_symmetry_space_group_name_H-M    P1
_symmetry_Int_Tables_number       1
_space_group_crystal_system       triclinic
_cell_length_a                    9.869185
_cell_length_b                    10.675357
_cell_length_c                    12.988552
_cell_angle_alpha                 88.82165
_cell_angle_beta                  72.006303
_cell_angle_gamma                 88.112647
_cell_volume                      1300.72254743

loop_
_atom_site_label
_atom_site_type_symbol
_atom_type_description
_atom_site_fract_x
_atom_site_fract_y
_atom_site_fract_z
_atom_type_partial_charge
C1    C     C_R   0.499265 0.739628 0.495858 0.999678
C2    C     C_R   0.452897 0.387449 0.973321 0.068673
C3    C     C_R   0.494259 0.387384 0.859517 0.062659
C4    C     C_R   0.557814 0.414283 0.023081 0.049471
C5    C     C_R   0.701419 0.430833 0.958353 0.125903
C6    C     C_R   0.742938 0.394646 0.850121 -0.279459
C7    C     C_R   0.640050 0.363981 0.802246 0.087850
C8    C     C_R   0.521775 0.436267 0.133581 -0.259474
C9    C     C_R   0.760749 0.501629 0.114993 -0.142531
C10   C     C_R   0.388638 0.414973 0.808445 -0.131509
C11   C     C_R   0.380381 0.940141 0.540094 0.091988
C12   C     C_R   0.426270 0.471940 0.699261 0.870657
C13   C     C_R   0.498225 0.871077 0.480134 -0.294965
C14   C     C_R   0.612788 0.930823 0.404765 0.344349
C15   C     C_R   0.630006 0.058986 0.419338 0.244172
C16   C     C_R   0.511301 0.126733 0.489425 -0.293152
C17   C     C_R   0.385146 0.067043 0.541704 0.118264
C18   C     C_3   0.299212 0.071828 0.658965 -0.443414
C19   C     C_3   0.294805 0.930098 0.656633 -0.460384
C20   C     C_R   0.892039 0.544763 0.586760 0.207714
C21   C     C_R   0.963522 0.448277 0.417622 -0.022528
C22   C     C_R   0.107145 0.447240 0.418059 -0.105044
C23   C     C_R   0.504022 0.259716 0.497102 0.921558
C24   C     C_R   0.034664 0.545129 0.586551 0.189704
C25   C     C_3   0.018605 0.675742 0.627752 -0.504471
C26   C     C_3   0.864204 0.674825 0.629324 -0.470576
C27   C     C_R   0.577382 0.495800 0.295998 0.985103
C28   C     C_R   0.800536 0.481414 0.003467 0.100282
C29   C     C_R   0.622067 0.478057 0.179576 -0.055885
C30   C     C_R   0.245727 0.394647 0.865936 -0.212219
C31   C     C_R   0.206636 0.365246 0.975957 -0.121375
C32   C     C_R   0.307557 0.367963 0.030839 -0.157196
H1    H     H_    0.836677 0.538031 0.150934 0.150908
H2    H     H_    0.360555 0.106467 0.711026 0.192789
H3    H     H_    0.193263 0.118906 0.671430 0.213394
H4    H     H_    0.354372 0.881780 0.706708 0.196824
H5    H     H_    0.186212 0.895469 0.667925 0.211551
H6    H     H_    0.938551 0.409084 0.349846 0.200775
H7    H     H_    0.189759 0.406023 0.351105 0.145192
H8    H     H_    0.031328 0.680519 0.709547 0.194370
H9    H     H_    0.083728 0.742752 0.567312 0.235154
H10   H     H_    0.787274 0.677327 0.712437 0.201777
H11   H     H_    0.854730 0.388982 0.803156 0.159248
H12   H     H_    0.839710 0.742519 0.570867 0.246574
H13   H     H_    0.414767 0.423175 0.185549 0.154705
H14   H     H_    0.164802 0.402539 0.825716 0.181373
H15   H     H_    0.269095 0.352795 0.117197 0.135212
H16   H     H_    0.096402 0.347712 0.020248 0.175354
N1    N     N_R   0.856940 0.500860 0.500710 -0.101402
N2    N     N_R   0.142580 0.500820 0.500710 -0.107948
O1    O     O_R   0.385310 0.683210 0.499990 -0.603506
O2    O     O_R   0.614650 0.683240 0.500000 -0.588601
O3    O     O_R   0.328390 0.499940 0.653610 -0.627945
O4    O     O_R   0.557730 0.499980 0.653620 -0.601184
O5    O     O_R   0.385350 0.316760 0.500000 -0.632143
O6    O     O_R   0.614690 0.316790 0.500010 -0.539683
O7    O     O_R   0.442270 0.500020 0.346380 -0.632857
O8    O     O_R   0.671610 0.500060 0.346390 -0.581675
Zn1   Zn    Zn3+2 0.346870 0.499980 0.499990 0.961459
Zn2   Zn    Zn3+2 0.653130 0.500020 0.500010 1.032002
S1    S     S_3+6 0.801312 0.127148 0.365342 0.064742
O9    O     O_2   0.844607 0.178974 0.456821 -0.300599
O10   O     O_2   0.916394 0.034647 0.307922 -0.195016
O11   O     O_3   0.791666 0.244086 0.279059 -0.577675
H17   H     H_    0.750832 0.206191 0.226660 0.357837
N3    N     N_3   0.937020 0.520206 0.934927 -0.492171
H18   H     H_    0.994388 0.560116 0.980879 0.192498
H19   H     H_    0.918489 0.592252 0.884860 0.189621
N4    N     N_3   0.681546 0.300992 0.699971 -0.382145
H20   H     H_    0.792200 0.287255 0.671035 0.199893
H21   H     H_    0.637997 0.211918 0.713230 0.178993
S2    S     S_3+6 0.712512 0.850396 0.285421 0.055409
O12   O     O_2   0.617702 0.760361 0.255444 -0.354241
O13   O     O_2   0.766149 0.940659 0.192359 -0.268349
O14   O     O_3   0.850501 0.770915 0.308434 -0.518443
H22   H     H_    0.900413 0.728703 0.239306 0.364087

loop_
_geom_bond_atom_site_label_1
_geom_bond_atom_site_label_2
_ccdc_geom_bond_type
N3    H19   S    
O5    Zn1   S    
C27   C29   S    
C28   N3    S    
C4    C8    A    
C21   N1    A    
O3    Zn1   S    
C26   H12   S    
C23   O6    A    
O4    Zn2   S    
C11   C19   S    
N1    Zn2   S    
C8    C29   A    
C3    C7    A    
C19   H4    S    
C25   H8    S    
C5    C6    A    
O7    Zn1   S    
O8    Zn2   S    
C15   C16   A    
C2    C32   A    
C18   C19   S    
N4    H21   S    
C8    H13   S    
O2    Zn2   S    
C21   H6    S    
C20   C24   A    
C16   C17   A    
C19   H5    S    
C18   H3    S    
C12   O3    A    
C9    C29   A    
C22   N2    A    
N3    H18   S    
C13   C14   A    
C9    H1    S    
N4    H20   S    
S2    O14   S    
C24   N2    A    
C24   C25   S    
S2    O13   D    
C27   O7    A    
C25   H9    S    
S2    O12   D    
C25   C26   S    
O6    Zn2   S    
S1    O11   S    
C2    C4    A    
O14   H22   S    
C20   N1    A    
C5    C28   A    
C18   H2    S    
C10   C30   A    
C31   C32   A    
S1    O10   D    
C17   C18   S    
C15   S1    S    
C1    O1    A    
C10   C12   S    
C16   C23   S    
C31   H16   S    
C32   H15   S    
C1    C13   S    
N2    Zn1   S    
C26   H10   S    
C11   C17   A    
C14   S2    S    
C30   H14   S    
C4    C5    A    
C27   O8    A    
C7    N4    S    
C23   O5    A    
C6    C7    A    
C6    H11   S    
O11   H17   S    
C2    C3    A    
C3    C10   A    
C11   C13   A    
C30   C31   A    
C20   C26   S    
C22   H7    S    
S1    O9    D    
C1    O2    A    
O1    Zn1   S    
C14   C15   A    
C21   C22   A    
C12   O4    A    
C9    C28   A    
