data_mof_unit_65610.cif
_audit_creation_date              2012-12-10T16:57:54-0500
_audit_creation_method            fapswitch 2.2
_symmetry_space_group_name_H-M    P1
_symmetry_Int_Tables_number       1
_space_group_crystal_system       triclinic
_cell_length_a                    13.130004
_cell_length_b                    13.149512
_cell_length_c                    15.119334
_cell_angle_alpha                 86.465927
_cell_angle_beta                  100.298024
_cell_angle_gamma                 90.988863
_cell_volume                      2563.41424391

loop_
_atom_site_label
_atom_site_type_symbol
_atom_type_description
_atom_site_fract_x
_atom_site_fract_y
_atom_site_fract_z
_atom_type_partial_charge
C1    C     C_R   0.464256 0.773002 0.465892 0.501598
C2    C     C_2   0.510040 0.057443 0.483114 0.361110
C3    C     C_2   0.454806 0.883450 0.448118 -0.078382
C4    C     C_R   0.536938 0.227908 0.534237 0.603699
C5    C     C_2   0.516064 0.946530 0.500265 -0.082043
C6    C     C_2   0.112185 0.450614 0.461986 -0.087666
C7    C     C_2   0.060182 0.492538 0.518336 -0.106716
C8    C     C_2   0.890088 0.546156 0.543062 0.400178
C9    C     C_2   0.946890 0.487145 0.501851 -0.103540
C10   C     C_R   0.777025 0.535942 0.526903 0.528679
C11   C     C_R   0.223654 0.463175 0.473159 0.521057
C12   C     C_R   0.464085 0.377777 0.126488 0.400344
C13   C     C_R   0.513218 0.518138 0.741186 0.514493
C14   C     C_R   0.485708 0.481785 0.259165 0.557365
C15   C     C_R   0.513603 0.528688 0.836995 -0.025981
C16   C     C_R   0.480313 0.473239 0.163196 0.020331
C17   C     C_R   0.465338 0.368479 0.035492 -0.070291
C18   C     C_R   0.498905 0.559379 0.109373 -0.144996
C19   C     C_R   0.503867 0.550195 0.018570 0.037596
C20   C     C_R   0.485856 0.453921 0.981316 -0.070672
C21   C     C_R   0.489618 0.444229 0.890638 -0.124842
C22   C     C_R   0.533898 0.623516 0.874466 -0.064662
C23   C     C_R   0.528161 0.634660 0.964569 0.406425
C24   C     C_2   0.550132 0.118416 0.548245 0.404088
F1    F     F_    0.592885 0.079387 0.631866 -0.642836
F2    F     F_    0.936298 0.614803 0.601591 -0.599874
F3    F     F_    0.546618 0.727631 0.998782 -0.599591
F4    F     F_    0.446761 0.293859 0.178822 -0.567160
F5    F     F_    0.459798 0.097835 0.402164 -0.605637
H1    H     H_    0.474804 0.370678 0.861956 0.160389
H2    H     H_    0.909156 0.434163 0.453655 0.119504
H3    H     H_    0.551938 0.689541 0.833450 0.175937
H4    H     H_    0.570858 0.915928 0.557942 0.189506
H5    H     H_    0.101348 0.533642 0.574320 0.196811
H6    H     H_    0.071662 0.415224 0.402476 0.120206
H7    H     H_    0.451975 0.294363 0.007775 0.164755
H8    H     H_    0.513047 0.632308 0.139277 0.188143
H9    H     H_    0.398398 0.913117 0.391248 0.188957
O1    O     O_3   0.500000 0.500000 0.500000 -0.474444
O2    O     O_R   0.563230 0.581310 0.697440 -0.533972
O3    O     O_R   0.421030 0.536630 0.288090 -0.535936
O4    O     O_R   0.459330 0.447650 0.700640 -0.536027
O5    O     O_R   0.556410 0.434400 0.313840 -0.491683
O6    O     O_R   0.733070 0.467190 0.476550 -0.586783
O7    O     O_R   0.261010 0.525210 0.419080 -0.520393
O8    O     O_R   0.532760 0.736590 0.530220 -0.534737
O9    O     O_R   0.473150 0.271000 0.574150 -0.523852
O10   O     O_R   0.407210 0.713280 0.414580 -0.526316
O11   O     O_R   0.586880 0.279120 0.481060 -0.514275
O12   O     O_R   0.723250 0.592730 0.566440 -0.484817
O13   O     O_R   0.282660 0.414860 0.537920 -0.522605
Zn1   Zn    Zn3+2 0.592480 0.421540 0.443840 1.014602
Zn2   Zn    Zn3+2 0.578450 0.600910 0.572270 0.994008
Zn3   Zn    Zn3+2 0.430000 0.409940 0.576840 0.998282
Zn4   Zn    Zn3+2 0.399070 0.567610 0.407050 0.992664

loop_
_geom_bond_atom_site_label_1
_geom_bond_atom_site_label_2
_ccdc_geom_bond_type
C12   C17   A    
O10   Zn4   S    
C19   C23   A    
C2    C5    S    
C3    H9    S    
C1    O10   A    
C6    C7    D    
C17   H7    S    
C23   F3    S    
C8    F2    S    
C21   H1    S    
C19   C20   A    
C4    O11   A    
O13   Zn3   S    
O1    Zn4   S    
O6    Zn1   S    
O1    Zn1   S    
C24   F1    S    
O4    Zn3   S    
C1    O8    A    
O1    Zn2   S    
C22   H3    S    
C12   F4    S    
O9    Zn3   S    
O8    Zn2   S    
C8    C10   S    
C13   O4    A    
C7    H5    S    
C18   H8    S    
C18   C19   A    
C13   C15   S    
C2    C24   D    
C4    C24   S    
C14   O3    A    
C14   C16   S    
O5    Zn1   S    
C11   O7    A    
O1    Zn3   S    
C11   O13   A    
C9    H2    S    
C10   O6    A    
C10   O12   A    
C15   C21   A    
C17   C20   A    
C2    F5    S    
C20   C21   A    
O7    Zn4   S    
C14   O5    A    
C16   C18   A    
O2    Zn2   S    
C6    C11   S    
C7    C9    S    
C22   C23   A    
O3    Zn4   S    
C13   O2    A    
C3    C5    D    
O12   Zn2   S    
C15   C22   A    
C6    H6    S    
C12   C16   A    
O11   Zn1   S    
C8    C9    D    
C1    C3    S    
C4    O9    A    
C5    H4    S    
