data_mof_unit_57126.cif
_audit_creation_date              2013-03-05T16:20:08-0500
_audit_creation_method            fapswitch 2.2
_symmetry_space_group_name_H-M    P1
_symmetry_Int_Tables_number       1
_space_group_crystal_system       triclinic
_cell_length_a                    8.340415
_cell_length_b                    18.99364
_cell_length_c                    26.933455
_cell_angle_alpha                 99.206122
_cell_angle_beta                  92.402766
_cell_angle_gamma                 87.958903
_cell_volume                      4206.18984615

loop_
_atom_site_label
_atom_site_type_symbol
_atom_site_description
_atom_site_fract_x
_atom_site_fract_y
_atom_site_fract_z
_atom_type_partial_charge
P1    P     P_3+3 0.929380 0.335110 0.452880 0.465928
O1    O     O_2   0.106080 0.324280 0.466820 -0.387439
O2    O     O_3   0.859130 0.413620 0.470620 -0.391311
O3    O     O_3   0.376230 0.370290 0.556910 -0.402313
O4    O     O_2   0.247072 0.246723 0.525832 -0.321342
O5    O     O_3   0.916901 0.311907 0.387428 -0.573302
O6    O     O_3   0.357317 0.269806 0.618660 -0.442219
H1    H     H_    0.385515 0.373912 0.651916 0.117154
C1    C     C_3   0.448907 0.302279 0.704198 -1.074021
H2    H     H_    0.324969 0.297719 0.716493 0.280477
H3    H     H_    0.514420 0.251007 0.705606 0.276895
P2    P     P_3+3 0.398530 0.559060 0.613740 0.456925
P3    P     P_3+3 0.950735 0.420166 0.648252 0.471185
O7    O     O_2   0.227190 0.537650 0.620070 -0.370393
O8    O     O_3   0.971110 0.406970 0.583250 -0.322358
O9    O     O_2   0.090431 0.468217 0.665716 -0.341524
O10   O     O_3   0.401574 0.653169 0.626934 -0.581957
O11   O     O_3   0.027656 0.347716 0.675584 -0.517088
C2    C     C_3   0.906737 0.302261 0.684380 0.298611
H4    H     H_    0.788225 0.330535 0.688563 0.013922
C3    C     C_3   0.952730 0.275992 0.734481 -0.681601
H5    H     H_    0.059831 0.239268 0.730213 0.163679
H6    H     H_    0.986849 0.322910 0.762729 0.228122
C4    C     C_3   0.815854 0.634294 0.634198 0.383392
H7    H     H_    0.705991 0.614742 0.612711 0.143407
H8    H     H_    0.903369 0.589355 0.635906 0.090837
C5    C     C_3   0.770557 0.667644 0.687154 -0.941729
H9    H     H_    0.698524 0.717753 0.685846 0.274979
H10   H     H_    0.697335 0.631154 0.704202 0.228034
H11   H     H_    0.880875 0.680048 0.711111 0.248930
Ba1   Ba    Ba6+2 0.160810 0.465630 0.521640 1.571751
C6    C     C_3   0.974814 0.365970 0.364443 0.430884
H12   H     H_    0.099555 0.377474 0.377954 0.099496
H13   H     H_    0.896572 0.414720 0.372187 0.106501
C7    C     C_3   0.972741 0.339343 0.307977 -0.961926
H14   H     H_    0.046754 0.289314 0.300032 0.270083
H15   H     H_    0.021950 0.379095 0.287448 0.220531
H16   H     H_    0.847622 0.328628 0.293759 0.270873
C8    C     C_3   0.259575 0.685898 0.648599 0.389922
H17   H     H_    0.171384 0.649615 0.659965 0.136722
H18   H     H_    0.198813 0.716225 0.620530 0.055009
C9    C     C_3   0.303982 0.738745 0.695626 -0.928604
H19   H     H_    0.326182 0.710058 0.728724 0.288292
H20   H     H_    0.201924 0.778252 0.704020 0.225235
H21   H     H_    0.414070 0.767873 0.689640 0.257655
P4    P     P_3+3 0.880940 0.664900 0.547160 0.479842
O12   O     O_2   0.704230 0.675760 0.533200 -0.356000
O13   O     O_3   0.951180 0.586390 0.529420 -0.362711
O14   O     O_3   0.434080 0.629720 0.443130 -0.354692
O15   O     O_3   0.888494 0.686442 0.612668 -0.598898
P5    P     P_3+3 0.841737 0.580137 0.350706 0.524629
O16   O     O_3   0.351080 0.462080 0.440130 -0.420193
O17   O     O_3   0.839200 0.593040 0.416790 -0.352593
O18   O     O_2   0.675678 0.551687 0.331095 -0.309463
O19   O     O_3   0.837367 0.661346 0.328043 -0.502626
Ba2   Ba    Ba6+2 0.649380 0.534380 0.478400 1.556241
P6    P     P_3+3 0.393788 0.279377 0.556789 0.535335
C10   C     C_3   0.445205 0.320661 0.651207 0.510837
H22   H     H_    0.570554 0.322213 0.639208 -0.012693
H23   H     H_    0.510612 0.344567 0.730480 0.243682
O20   O     O_3   0.459240 0.537930 0.559910 -0.430721
C11   C     C_3   0.478018 0.313894 0.405375 0.446538
H24   H     H_    0.598274 0.334681 0.417296 0.096177
H25   H     H_    0.395109 0.326940 0.436943 0.120958
C12   C     C_3   0.491855 0.233148 0.391409 -1.011911
H26   H     H_    0.580468 0.218429 0.361575 0.281468
H27   H     H_    0.531528 0.208595 0.424663 0.212231
H28   H     H_    0.373344 0.211758 0.377377 0.261685
P7    P     P_3+3 0.405883 0.435349 0.377883 0.447311
O21   O     O_2   0.583120 0.462390 0.379940 -0.348995
O22   O     O_3   0.419060 0.342271 0.363095 -0.568677
C13   C     C_3   0.885328 0.716874 0.365857 0.339996
H29   H     H_    0.798500 0.724487 0.396623 0.169870
H30   H     H_    0.007471 0.705405 0.381422 0.027405
C14   C     C_3   0.888470 0.783866 0.341056 -0.630918
H31   H     H_    0.000582 0.782549 0.320124 0.191407
H32   H     H_    0.786961 0.783599 0.313032 0.221345
P8    P     P_3+3 0.411689 0.724517 0.446603 0.472147
C15   C     C_3   0.391018 0.758599 0.355140 1.065654
H33   H     H_    0.262897 0.754497 0.364950 -0.543695
O23   O     O_2   0.529432 0.753689 0.489839 -0.383404
O24   O     O_3   0.499045 0.756560 0.396565 -0.517855
C16   C     C_3   0.403710 0.830998 0.337102 -0.631016
H34   H     H_    0.527765 0.837248 0.325347 0.188703
H35   H     H_    0.378541 0.875173 0.368125 0.163902
C17   C     C_R   0.996259 0.050748 0.483954 0.027439
C18   C     C_R   0.083224 0.098236 0.461126 0.135671
C19   C     C_R   0.234021 0.076303 0.441761 -0.128375
C20   C     C_R   0.296957 0.007596 0.444218 -0.168121
C21   C     C_R   0.208533 0.958534 0.464831 0.169969
C22   C     C_R   0.057992 0.980139 0.484970 0.044551
C23   C     C_R   0.265840 0.887711 0.463933 -0.193986
C24   C     C_R   0.170057 0.836034 0.479260 -0.062826
C25   C     C_R   0.022740 0.858377 0.502298 0.012302
C26   C     C_R   0.967756 0.930672 0.504957 0.000854
C27   C     C_R   0.214104 0.762434 0.471372 0.040613
C28   C     C_R   0.113904 0.714160 0.488595 0.204108
C29   C     C_R   0.979108 0.735436 0.516721 0.136188
C30   C     C_R   0.929983 0.808775 0.522713 -0.120969
C31   C     C_R   0.846059 0.072974 0.504332 -0.028432
C32   C     C_R   0.786246 0.144507 0.504682 -0.057480
C33   C     C_R   0.877149 0.193184 0.482044 -0.006823
C34   C     C_R   0.019507 0.166953 0.457981 -0.142650
H36   H     H_    0.304002 0.112497 0.424853 0.123340
H37   H     H_    0.413603 0.992368 0.428980 0.129699
H38   H     H_    0.384138 0.872995 0.450332 0.179833
H39   H     H_    0.085796 0.200033 0.437602 0.164148
C35   C     C_R   0.787530 0.833787 0.546388 -0.093433
C36   C     C_R   0.725365 0.902572 0.543717 0.139491
C37   C     C_R   0.817119 0.952278 0.524495 0.026831
C38   C     C_R   0.755860 0.023005 0.523898 -0.033381
C39   C     C_R   0.568091 0.920971 0.557360 -0.182945
C40   C     C_R   0.504953 0.988768 0.553871 -0.184880
C41   C     C_R   0.602025 0.042450 0.541634 -0.022255
C42   C     C_R   0.637344 0.166796 0.527822 -0.133566
C43   C     C_R   0.546959 0.114628 0.547364 0.541063
C44   C     C_R   0.587641 0.240303 0.530609 0.202873
C45   C     C_R   0.684668 0.288149 0.510870 -0.530499
C46   C     C_R   0.825356 0.266504 0.484990 0.301231
H40   H     H_    0.718609 0.799419 0.564963 0.175722
H41   H     H_    0.491801 0.882188 0.569225 0.137607
H42   H     H_    0.379326 0.999076 0.561697 0.161141
H43   H     H_    0.645026 0.343403 0.513396 0.165281
C47   C     C_R   0.401933 0.499290 0.186956 0.529564
O25   O     O_2   0.504652 0.492079 0.219538 -0.582971
N1    N     N_R   0.240091 0.508105 0.198651 -0.159053
C48   C     C_R   0.129897 0.522862 0.160870 0.536587
C49   C     C_2   0.051311 0.533262 0.269744 -0.188255
C50   C     C_3   0.002403 0.518628 0.320721 0.176160
C51   C     C_1   0.272983 0.474976 0.333875 0.256069
C52   C     C_2   0.293082 0.462051 0.284505 -0.180291
C53   C     C_2   0.188491 0.500919 0.249542 0.052394
C54   C     C_R   0.342348 0.520888 0.101376 -0.066742
C55   C     C_R   0.451570 0.499613 0.137538 -0.071221
C56   C     C_R   0.609410 0.479929 0.123824 -0.019417
C57   C     C_R   0.181753 0.535750 0.113889 -0.041398
C58   C     C_2   0.150583 0.514045 0.353843 -0.513140
H44   H     H_    0.372889 0.418334 0.269127 0.177054
H45   H     H_    0.696471 0.463148 0.150867 0.200139
C59   C     C_2   0.632027 0.472890 0.642376 -0.609629
C60   C     C_R   0.590684 0.497424 0.986738 0.041681
C61   C     C_R   0.345534 0.567757 0.971167 0.039067
C62   C     C_R   0.491672 0.533664 0.954259 0.095598
C63   C     C_R   0.725565 0.457456 0.966559 -0.222662
C64   C     C_R   0.759642 0.452689 0.915883 -0.063219
C65   C     C_R   0.666288 0.490992 0.884129 -0.061905
C66   C     C_R   0.537365 0.534528 0.904062 -0.076797
C67   C     C_R   0.452496 0.577911 0.873630 -0.089714
C68   C     C_R   0.501926 0.578649 0.824159 0.577687
N2    N     N_R   0.610828 0.527171 0.802105 -0.159625
C69   C     C_R   0.693997 0.483882 0.832265 0.532570
C70   C     C_2   0.772357 0.498113 0.727343 -0.247546
C71   C     C_3   0.788227 0.483786 0.671272 0.171357
C72   C     C_1   0.509043 0.512054 0.660672 0.225176
C73   C     C_2   0.482032 0.515280 0.710092 0.464586
C74   C     C_2   0.626412 0.513896 0.747193 -0.040797
O26   O     O_2   0.788680 0.437431 0.813837 -0.587776
C75   C     C_R   0.548891 0.500743 0.037732 0.028915
C76   C     C_R   0.393503 0.526478 0.052412 0.092566
C77   C     C_R   0.288311 0.556957 0.018374 0.042471
C78   C     C_R   0.656113 0.478644 0.074596 -0.216507
H46   H     H_    0.881093 0.501669 0.750993 0.190935
H47   H     H_    0.860405 0.418944 0.901656 0.170318
H48   H     H_    0.801506 0.425894 0.988484 0.135505
H49   H     H_    0.778900 0.462335 0.066734 0.141556
O27   O     O_2   0.985963 0.523094 0.167225 -0.618341
C79   C     C_R   0.075210 0.561341 0.078595 -0.103313
H50   H     H_    0.975923 0.569259 0.251066 0.218446
H51   H     H_    0.950499 0.573487 0.087081 0.167713
C80   C     C_R   0.262116 0.611193 0.940067 -0.203681
C81   C     C_R   0.317777 0.617919 0.892857 -0.081910
O28   O     O_2   0.445249 0.623854 0.800387 -0.574469
C82   C     C_R   0.128315 0.573618 0.032315 -0.204260
H52   H     H_    0.155962 0.642313 0.952212 0.131533
H53   H     H_    0.250374 0.652158 0.870469 0.163428
H54   H     H_    0.039784 0.593025 0.006971 0.133034
H55   H     H_    0.159889 0.545226 0.391321 0.209298
H56   H     H_    0.624700 0.439388 0.605783 0.188734
C83   C     C_2   0.818562 0.240025 0.755130 1.088055
O29   O     O_2   0.781511 0.179689 0.736032 -0.624371
O30   O     O_R   0.739516 0.275192 0.797173 -0.760898
H57   H     H_    0.651553 0.245820 0.807687 0.320116
C84   C     C_2   0.873339 0.851714 0.377556 1.054736
O31   O     O_2   0.976248 0.896381 0.380109 -0.601792
O32   O     O_R   0.736328 0.865762 0.405923 -0.787715
H58   H     H_    0.729416 0.916627 0.423934 0.311867
O33   O     O_3   0.442771 0.705712 0.315572 -0.580123
C85   C     C_3   0.344119 0.646575 0.310546 -0.029442
H59   H     H_    0.220566 0.660879 0.296994 0.105146
H60   H     H_    0.340736 0.624885 0.346605 0.133517
H61   H     H_    0.397109 0.604671 0.282004 0.207771
C86   C     C_2   0.290257 0.838186 0.293204 1.083349
O34   O     O_2   0.191159 0.887505 0.296268 -0.593754
O35   O     O_R   0.300806 0.789533 0.248587 -0.753511
H62   H     H_    0.218330 0.800145 0.221856 0.324094
C87   C     C_2   0.901420 0.240638 0.641463 0.959028
O36   O     O_2   0.791800 0.199000 0.637254 -0.696889
O37   O     O_R   0.023695 0.230672 0.606843 -0.693849
H63   H     H_    0.013623 0.184871 0.582184 0.331167
O38   O     O_3   0.151471 0.643376 0.478724 -0.651848
C88   C     C_3   0.255262 0.627375 0.517819 0.191973
H64   H     H_    0.195076 0.624721 0.552619 0.082224
H65   H     H_    0.354009 0.665133 0.529085 0.101166
H66   H     H_    0.305064 0.575184 0.502145 0.229241
O39   O     O_3   0.401611 0.132537 0.570150 -0.607388
C89   C     C_3   0.417134 0.128154 0.622359 -0.038114
H67   H     H_    0.519440 0.158789 0.640653 0.186701
H68   H     H_    0.430496 0.073267 0.630851 0.085873
H69   H     H_    0.305912 0.150569 0.640718 0.186555
O40   O     O_3   0.326432 0.525992 0.726713 -0.574350
C90   C     C_3   0.284432 0.470956 0.753243 -0.060983
H70   H     H_    0.374346 0.457424 0.781679 0.064542
H71   H     H_    0.260376 0.421435 0.727079 0.172464
H72   H     H_    0.172567 0.487713 0.773205 0.154005

loop_
_geom_bond_atom_site_label_1
_geom_bond_atom_site_label_2
_geom_bond_distance
_ccdc_geom_bond_type
O5    C6    1.390969 S    
C18   C19   1.405552 A    
C32   C33   1.438897 A    
C5    H10   1.104391 S    
C68   O28   1.221547 D    
C88   H65   1.111827 S    
C77   C82   1.412709 A    
C35   H40   1.078055 S    
C2    H4    1.109170 S    
P8    O23   1.537472 D    
C4    C5    1.522256 S    
Ba1   O16   2.753104 S    
C14   H31   1.109414 S    
C14   C84   1.495494 S    
C49   C50   1.518509 S    
C28   C29   1.393635 A    
P5    C50   1.868170 S    
C68   N2    1.389229 Am   
C79   H51   1.083206 S    
O30   H57   1.013303 S    
O14   P8    1.791419 S    
C56   H45   1.082952 S    
C30   C35   1.403661 A    
N1    C48   1.397575 Am   
C15   O33   1.412883 S    
P3    O11   1.751778 S    
C85   H61   1.107891 S    
C69   O26   1.221269 D    
P6    C44   1.872095 S    
C2    C3    1.541230 S    
C4    H8    1.108510 S    
P1    O1    1.520506 D    
C17   C22   1.423314 A    
C60   C62   1.418636 A    
O10   C8    1.420915 S    
C89   H68   1.103383 S    
C82   H54   1.079759 S    
C80   C81   1.397973 A    
C54   C76   1.423947 A    
C42   C43   1.442390 A    
P1    Ba1   3.445759 S    
C67   C81   1.403632 A    
O11   C2    1.402192 S    
C35   C36   1.399847 A    
C85   H60   1.115733 S    
C1    C10   1.521473 S    
C88   H64   1.090589 S    
P7    O22   1.749485 S    
Ba1   O20   2.952785 S    
C45   C46   1.405082 A    
C23   C24   1.408969 A    
C11   H25   1.110021 S    
O16   P7    1.747237 S    
C75   C78   1.412050 A    
H1    C10   1.109029 S    
C37   C38   1.422417 A    
C40   H42   1.082268 S    
C66   C67   1.406309 A    
P8    C27   1.879711 S    
O38   C88   1.399171 S    
C42   C44   1.433394 A    
O3    P6    1.727261 S    
C54   C57   1.402790 A    
C59   H56   1.084929 S    
O37   H63   1.010241 S    
Ba1   Ba2   4.574888 S    
C65   C69   1.409740 A    
C17   C31   1.412310 A    
C1    H2    1.109028 S    
O7    Ba1   2.824242 S    
O6    C10   1.401562 S    
C43   O39   1.388569 S    
C59   C71   1.492784 S    
C61   C80   1.413409 A    
C19   C20   1.399599 A    
C3    C83   1.502111 S    
O35   H62   1.013507 S    
P4    C29   1.903479 S    
C2    C87   1.508156 S    
N2    C74   1.470475 S    
C3    H5    1.111865 S    
C63   H48   1.078947 S    
C5    H11   1.111506 S    
C56   C78   1.393766 A    
C28   O38   1.356112 S    
C25   C26   1.423861 A    
C9    H20   1.120308 S    
C13   C14   1.530277 S    
C49   C53   1.370276 D    
C39   C40   1.389463 A    
C19   H36   1.082437 S    
C64   C65   1.403526 A    
C8    C9    1.526216 S    
C4    O15   1.392961 S    
P4    O13   1.590094 S    
C47   O25   1.220607 D    
C61   C62   1.417135 A    
C65   C66   1.404012 A    
P1    O5    1.746996 S    
O3    Ba1   2.754132 S    
C6    C7    1.523562 S    
C70   C74   1.354493 D    
C16   C86   1.503520 S    
C7    H16   1.110742 S    
C4    H7    1.106097 S    
C13   H29   1.111986 S    
C8    H18   1.116506 S    
C36   C39   1.394442 A    
C61   C77   1.423984 A    
C8    H17   1.110026 S    
C17   C18   1.406812 A    
P7    C51   1.820965 S    
C64   H47   1.083490 S    
C12   H27   1.107689 S    
C10   H22   1.109889 S    
O39   C89   1.422101 S    
C81   H53   1.083305 S    
C15   H33   1.119791 S    
O1    Ba1   2.891142 S    
P1    O2    1.590123 S    
C9    H21   1.119054 S    
C6    H13   1.110528 S    
P2    O10   1.766705 S    
C62   C66   1.422703 A    
C84   O31   1.220419 D    
C90   H70   1.102779 S    
P1    C46   1.924251 S    
C11   H24   1.107071 S    
C1    H3    1.104777 S    
O2    Ba2   2.820704 S    
P8    O24   1.758954 S    
C21   C23   1.408313 A    
C76   C77   1.418273 A    
P3    O8    1.743070 S    
N1    C53   1.481925 S    
C12   H28   1.110416 S    
C27   C28   1.406225 A    
C58   H55   1.086789 S    
C24   C25   1.420319 A    
C48   C57   1.414431 A    
O2    Ba1   2.940729 S    
C45   H43   1.081509 S    
C14   H32   1.109953 S    
P3    C71   1.842737 S    
C72   C73   1.350642 D    
C18   C34   1.405444 A    
C13   H30   1.112928 S    
C16   H35   1.106360 S    
P2    O7    1.523356 D    
C12   H26   1.110524 S    
C24   C27   1.417463 A    
Ba2   O21   2.824568 S    
Ba1   O13   2.820110 S    
C3    H6    1.112172 S    
P2    Ba1   3.415132 S    
C78   H49   1.078959 S    
C54   C55   1.402541 A    
C32   C42   1.432830 A    
C88   H66   1.088524 S    
C16   H34   1.110460 S    
C9    H19   1.122587 S    
C21   C22   1.410054 A    
C52   C53   1.516706 S    
C5    H9    1.111856 S    
C7    H15   1.104062 S    
C47   N1    1.397125 Am   
C40   C41   1.411546 A    
C80   H52   1.079529 S    
O17   Ba2   2.727424 S    
C23   H38   1.078750 S    
O13   Ba2   2.941576 S    
P4    O12   1.520791 D    
C11   C12   1.520981 S    
C90   H71   1.100457 S    
C79   C82   1.396762 A    
N2    C69   1.393881 Am   
C73   O40   1.388073 S    
O19   C13   1.400648 S    
P2    C72   1.857232 S    
C87   O36   1.219977 D    
C26   C37   1.404784 A    
P4    Ba2   3.446370 S    
C15   O24   1.408957 S    
C41   C43   1.416885 A    
O8    Ba1   2.726798 S    
C55   C56   1.403847 A    
C60   C63   1.412668 A    
C57   C79   1.405613 A    
C47   C55   1.411356 A    
O14   Ba2   2.753518 S    
P4    O15   1.745250 S    
O4    P6    1.542821 D    
C63   C64   1.393912 A    
C1    H23   1.108170 S    
C86   O34   1.222000 D    
P5    O18   1.545910 D    
C84   O32   1.395347 S    
C51   C52   1.329573 D    
C39   H41   1.084142 S    
C52   H44   1.085254 S    
C44   C45   1.416480 A    
C6    H12   1.105254 S    
C15   C16   1.538381 S    
P2    O20   1.542840 S    
C89   H69   1.108703 S    
O32   H58   1.010174 S    
C75   C76   1.418060 A    
C25   C30   1.428914 A    
C48   O27   1.219444 D    
C31   C32   1.429323 A    
C11   O22   1.399851 S    
C38   C41   1.404278 A    
P5    O19   1.745976 S    
C67   C68   1.413514 A    
O40   C90   1.418469 S    
C33   C34   1.413181 A    
P7    O21   1.578013 D    
C89   H67   1.103546 S    
C87   O37   1.398135 S    
C22   C26   1.408947 A    
C83   O29   1.223390 D    
C60   C75   1.422224 A    
O33   C85   1.401715 S    
C90   H72   1.107713 S    
C50   C58   1.501854 S    
C70   C71   1.501646 S    
C31   C38   1.410164 A    
C29   C30   1.423815 A    
P3    O9    1.517939 D    
C20   H37   1.083523 S    
C73   C74   1.534449 S    
C49   H50   1.081109 S    
Ba2   O20   2.752441 S    
C85   H59   1.117670 S    
C34   H39   1.078068 S    
C7    H14   1.110876 S    
P5    O17   1.758323 S    
C20   C21   1.403317 A    
C36   C37   1.409275 A    
C51   C58   1.321530 D    
O6    P6    1.745217 S    
C70   H46   1.083948 S    
C33   C46   1.434205 A    
O16   Ba2   2.951869 S    
C59   C72   1.311129 D    
O12   Ba2   2.891603 S    
C83   O30   1.397236 S    
C86   O35   1.397688 S    
