data_mof_unit_46793.cif
_audit_creation_date              2012-12-11T17:29:45-0500
_audit_creation_method            fapswitch 2.2
_symmetry_space_group_name_H-M    P1
_symmetry_Int_Tables_number       1
_space_group_crystal_system       triclinic
_cell_length_a                    8.595147
_cell_length_b                    16.749147
_cell_length_c                    19.066944
_cell_angle_alpha                 101.593544
_cell_angle_beta                  90.912804
_cell_angle_gamma                 95.124308
_cell_volume                      2676.53977175

loop_
_atom_site_label
_atom_site_type_symbol
_atom_type_description
_atom_site_fract_x
_atom_site_fract_y
_atom_site_fract_z
_atom_type_partial_charge
Ba1   Ba    Ba6+2 0.845660 0.536000 0.465120 1.754598
Ba2   Ba    Ba6+2 0.344160 0.464070 0.534880 1.758304
C1    C     C_3   0.707494 0.828308 0.304455 -0.089331
C2    C     C_R   0.961268 0.389611 0.076609 -0.067095
C3    C     C_R   0.801779 0.431281 0.954037 -0.042949
C4    C     C_3   0.124697 0.747506 0.265177 0.377100
C5    C     C_R   0.958788 0.457181 0.972233 0.026737
C6    C     C_R   0.731947 0.437754 0.889089 -0.073614
C7    C     C_R   0.822163 0.468397 0.836179 -0.071337
C8    C     C_R   0.979396 0.502653 0.856819 -0.022063
C9    C     C_R   0.043246 0.500425 0.926986 -0.003138
C10   C     C_R   0.765190 0.467018 0.764513 -0.004864
C11   C     C_R   0.865469 0.499405 0.717208 -0.253634
C12   C     C_3   0.671670 0.742757 0.321757 0.317719
C13   C     C_R   0.017646 0.535575 0.736069 0.040108
C14   C     C_R   0.071522 0.542052 0.809164 -0.060208
C15   C     C_R   0.163587 0.495217 0.067582 0.010304
C16   C     C_3   0.109145 0.811144 0.215498 -0.097459
C17   C     C_R   0.215145 0.495120 0.140148 -0.014974
C18   C     C_R   0.116252 0.455398 0.186648 -0.012611
C19   C     C_R   0.981287 0.405062 0.151795 -0.081525
C20   C     C_R   0.212820 0.587516 0.837922 0.201258
C21   C     C_R   0.279148 0.575612 0.902000 -0.035195
C22   C     C_R   0.192313 0.539959 0.951403 0.002490
C23   C     C_3   0.465263 0.287726 0.307861 0.427488
C24   C     C_R   0.248238 0.543071 0.024263 0.020751
C25   C     C_R   0.387572 0.589781 0.055391 -0.101747
C26   C     C_R   0.365791 0.533954 0.164840 -0.001859
C27   C     C_R   0.458031 0.570935 0.116452 0.083482
C28   C     C_3   0.261138 0.725389 0.650145 0.282313
C29   C     C_R   0.416361 0.535832 0.236900 0.018426
C30   C     C_R   0.313986 0.503084 0.282846 -0.273215
C31   C     C_R   0.163370 0.466681 0.262678 0.106281
C32   C     C_R   0.399804 0.731653 0.466708 -0.311476
C33   C     C_R   0.535237 0.760800 0.510107 -0.047298
C34   C     C_3   0.499022 0.244985 0.230548 -0.105422
C35   C     C_R   0.576040 0.847202 0.528159 -0.140937
C36   C     C_R   0.485083 0.900811 0.499174 0.173855
C37   C     C_R   0.344114 0.869210 0.461512 -0.117684
C38   C     C_R   0.299495 0.785206 0.445978 -0.036715
C39   C     C_R   0.615442 0.144244 0.484562 0.058687
C40   C     C_3   0.328277 0.804756 0.699326 -0.440819
C41   C     C_R   0.658145 0.229706 0.495463 -0.074287
C42   C     C_R   0.710771 0.093660 0.514542 0.315426
C43   C     C_R   0.799858 0.261889 0.532895 -0.311345
C44   C     C_R   0.904754 0.210822 0.554110 -0.045164
C45   C     C_3   0.007768 0.266293 0.721124 0.277812
C46   C     C_R   0.858103 0.127024 0.545790 -0.136669
C47   C     C_3   0.995843 0.254929 0.335195 0.233885
C48   C     C_3   0.986469 0.168433 0.283216 -0.153182
C49   C     C_3   0.717795 0.696888 0.698971 0.303575
C50   C     C_3   0.767654 0.763300 0.770417 0.406269
C51   C     C_2   0.085216 0.253342 0.403435 0.449742
C52   C     C_2   0.884435 0.160885 0.217015 0.462095
C53   C     C_2   0.142077 0.145933 0.257588 0.546639
C54   C     C_2   0.616445 0.624908 0.713541 0.489300
C55   C     C_2   0.781068 0.889103 0.368061 0.492586
C56   C     C_3   0.039597 0.266559 0.800487 -0.040570
C57   C     C_2   0.055865 0.180895 0.810575 0.600244
C58   C     C_2   0.046644 0.665812 0.227185 0.476012
C59   C     C_2   0.561008 0.419944 0.885349 0.542096
C60   C     C_2   0.849259 0.370502 0.187665 0.489228
C61   C     C_2   0.888590 0.307417 0.038304 0.515221
C62   C     C_2   0.453149 0.665719 0.033033 0.447877
C63   C     C_2   0.700763 0.883929 0.582614 0.550864
C64   C     C_2   0.361492 0.644934 0.439594 0.721084
C65   C     C_2   0.835635 0.349790 0.555735 0.580818
C66   C     C_2   0.126812 0.898575 0.256282 0.685122
C67   C     C_3   0.563113 0.260614 0.687697 0.415485
C68   C     C_2   0.175256 0.746696 0.589693 0.426748
C69   C     C_3   0.549797 0.178540 0.710651 -0.313177
C70   C     C_R   0.026953 0.447006 0.038330 0.034844
H1    H     H_    0.767251 0.730219 0.356492 0.078425
H2    H     H_    0.791450 0.823395 0.260936 0.112181
H3    H     H_    0.978648 0.328600 0.716558 -0.028693
H4    H     H_    0.905888 0.221145 0.701778 -0.054562
H5    H     H_    0.938372 0.290853 0.830860 0.100872
H6    H     H_    0.686054 0.274851 0.674229 -0.150295
H7    H     H_    0.486059 0.255344 0.639386 0.078929
H8    H     H_    0.585895 0.130407 0.666584 0.054037
H9    H     H_    0.427058 0.161993 0.723490 0.138446
H10   H     H_    0.626842 0.181869 0.758670 0.144289
H11   H     H_    0.820872 0.499503 0.664192 0.029990
H12   H     H_    0.360842 0.791412 0.751656 0.178164
H13   H     H_    0.357360 0.500129 0.335530 0.087776
H14   H     H_    0.727872 0.410281 0.993490 0.108778
H15   H     H_    0.400259 0.597492 0.912209 0.078261
H16   H     H_    0.268506 0.910515 0.444333 0.152765
H17   H     H_    0.935949 0.087606 0.564277 0.098654
H18   H     H_    0.988961 0.800953 0.191225 0.020484
H19   H     H_    0.355321 0.687004 0.630303 0.053389
H20   H     H_    0.795757 0.223317 0.375570 0.139577
H21   H     H_    0.841890 0.324930 0.391389 0.181218
H22   H     H_    0.105130 0.308821 0.443858 0.081690
H23   H     H_    0.430181 0.833164 0.675252 0.083902
H24   H     H_    0.901117 0.204937 0.182785 -0.030699
H25   H     H_    0.193803 0.174649 0.216411 -0.014640
H26   H     H_    0.914719 0.714986 0.647931 0.236478
H27   H     H_    0.831040 0.617469 0.625639 0.161208
H28   H     H_    0.582602 0.574803 0.669118 0.043614
H29   H     H_    0.782110 0.874347 0.420757 0.047792
H30   H     H_    0.983359 0.813452 0.743470 0.191931
H31   H     H_    0.828282 0.852072 0.710972 0.202757
H32   H     H_    0.775459 0.697243 0.853184 0.213825
H33   H     H_    0.925579 0.685523 0.797195 0.160934
H34   H     H_    0.239943 0.849884 0.709896 0.104667
H35   H     H_    0.601947 0.845882 0.780815 0.180252
H36   H     H_    0.655718 0.823472 0.857785 0.210349
H37   H     H_    0.596067 0.909853 0.259109 0.236297
H38   H     H_    0.496157 0.874737 0.323601 0.230724
H39   H     H_    0.500936 0.394492 0.271615 0.125867
H40   H     H_    0.639526 0.379916 0.326780 0.230442
H41   H     H_    0.497838 0.131535 0.166366 0.224622
H42   H     H_    0.543160 0.133514 0.253026 0.270100
H43   H     H_    0.329876 0.822097 0.173317 0.231885
H44   H     H_    0.209384 0.740768 0.129747 0.195330
H45   H     H_    0.937610 0.121334 0.312868 0.152640
H46   H     H_    0.185949 0.327426 0.883272 0.223750
H47   H     H_    0.174941 0.376558 0.815494 0.187686
H48   H     H_    0.151888 0.148198 0.786893 0.014851
H49   H     H_    0.017343 0.653081 0.170186 -0.035873
H50   H     H_    0.488078 0.464049 0.872246 0.002501
H51   H     H_    0.865084 0.333374 0.225928 0.026380
H52   H     H_    0.193738 0.699364 0.819546 0.175298
H53   H     H_    0.373839 0.686437 0.840632 0.224970
H54   H     H_    0.672736 0.549384 0.079088 0.160824
H55   H     H_    0.663699 0.644461 0.128825 0.188270
H56   H     H_    0.562016 0.741573 0.351181 -0.033565
H57   H     H_    0.816749 0.268101 0.066194 0.025428
H58   H     H_    0.347076 0.721719 0.233011 0.153377
H59   H     H_    0.298150 0.690524 0.305308 0.112284
H60   H     H_    0.578256 0.680629 0.031900 0.000948
H61   H     H_    0.385368 0.136009 0.455176 0.261940
H62   H     H_    0.507216 0.112612 0.386195 0.230000
H63   H     H_    0.678111 0.935496 0.624453 -0.022663
H64   H     H_    0.373912 0.623572 0.384086 -0.235289
H65   H     H_    0.819626 0.375741 0.610723 -0.104639
H66   H     H_    0.042613 0.940099 0.246698 0.046683
H67   H     H_    0.338799 0.280903 0.316682 0.057627
H68   H     H_    0.175634 0.809470 0.582651 -0.013574
H69   H     H_    0.425606 0.267918 0.191713 0.080457
H70   H     H_    0.623174 0.259716 0.220175 0.123072
N1    N     N_2   0.526551 0.987187 0.509075 -0.207544
N2    N     N_3   0.469745 0.156038 0.218985 -0.447469
N3    N     N_3   0.214684 0.802255 0.155349 -0.477255
N4    N     N_3   0.182191 0.318745 0.827353 -0.425640
N5    N     N_3   0.275869 0.656438 0.810084 -0.419924
N6    N     N_3   0.625170 0.582780 0.124705 -0.436876
N7    N     N_3   0.290313 0.740136 0.280752 -0.484583
N8    N     N_3   0.484214 0.106725 0.438570 -0.422759
N9    N     N_2   0.670010 0.007682 0.507812 -0.218774
N10   N     N_3   0.838981 0.271703 0.352228 -0.489134
N11   N     N_3   0.857772 0.667385 0.667758 -0.531715
N12   N     N_3   0.872007 0.831724 0.754918 -0.467435
N13   N     N_3   0.851850 0.727350 0.822827 -0.476612
N14   N     N_3   0.628735 0.797034 0.803941 -0.469444
N15   N     N_3   0.565437 0.857337 0.279562 -0.472571
N16   N     N_3   0.519310 0.374515 0.319130 -0.496052
O1    O     O_2   0.884010 0.444810 0.325060 -0.471137
O2    O     O_2   0.237192 0.215562 0.551693 -0.454493
O3    O     O_3   0.138856 0.244197 0.681141 -0.584272
O4    O     O_3   0.132090 0.451130 0.414310 -0.431403
O5    O     O_3   0.558660 0.599640 0.536520 -0.483909
O6    O     O_2   0.381010 0.300300 0.465220 -0.451594
O7    O     O_3   0.544032 0.248496 0.354056 -0.637936
O8    O     O_2   0.431099 0.466844 0.752548 -0.445387
O9    O     O_3   0.516267 0.320923 0.743561 -0.560182
O10   O     O_3   0.640770 0.594650 0.368950 -0.497446
O11   O     O_2   0.742174 0.534692 0.243481 -0.363081
O12   O     O_3   0.635373 0.732944 0.650381 -0.687220
O13   O     O_3   0.067239 0.314840 0.300673 -0.722422
O14   O     O_3   0.658713 0.683054 0.257907 -0.601809
O15   O     O_2   0.808690 0.699720 0.534830 -0.385814
O16   O     O_3   0.053760 0.638480 0.405010 -0.372775
O17   O     O_2   0.983895 0.786279 0.461495 -0.432574
O18   O     O_2   0.128092 0.189763 0.415573 -0.564371
O19   O     O_2   0.791635 0.100638 0.197640 -0.580448
O20   O     O_2   0.206944 0.093878 0.280300 -0.508318
O21   O     O_2   0.578151 0.619385 0.773654 -0.623489
O22   O     O_2   0.837404 0.956421 0.360959 -0.555057
O23   O     O_3   0.041094 0.775035 0.328251 -0.631847
O24   O     O_2   0.961571 0.147512 0.845170 -0.536260
O25   O     O_2   0.018325 0.611979 0.260551 -0.555923
O26   O     O_2   0.500388 0.357757 0.901647 -0.547418
O27   O     O_2   0.715749 0.379610 0.169978 -0.609467
O28   O     O_2   0.915602 0.280692 0.975730 -0.544414
O29   O     O_2   0.366845 0.713574 0.016557 -0.565778
O30   O     O_2   0.831460 0.860967 0.579102 -0.562558
O31   O     O_2   0.297570 0.600743 0.475913 -0.511455
O32   O     O_2   0.902036 0.390383 0.516974 -0.565118
O33   O     O_2   0.236460 0.924066 0.298615 -0.544146
O34   O     O_2   0.305690 0.555220 0.674980 -0.441695
O35   O     O_2   0.100987 0.692355 0.547623 -0.492831
O36   O     O_3   0.057610 0.548940 0.585700 -0.395251
O37   O     O_3   0.548930 0.405410 0.631060 -0.508307
O38   O     O_3   0.154992 0.685959 0.689405 -0.639801
O39   O     O_3   0.631040 0.400420 0.463490 -0.434669
O40   O     O_3   0.135930 0.361590 0.595000 -0.454114
P1    P     P_3+3 0.056550 0.421630 0.336220 1.004996
P2    P     P_3+3 0.635450 0.689180 0.556380 0.986360
P3    P     P_3+3 0.099232 0.744743 0.407727 1.063631
P4    P     P_3+3 0.133150 0.578440 0.663790 1.079026
P5    P     P_3+3 0.102638 0.256090 0.593531 1.006808
P6    P     P_3+3 0.611170 0.585497 0.277181 1.034838
P7    P     P_3+3 0.554845 0.295844 0.445250 0.979776
P8    P     P_3+3 0.568378 0.417394 0.723954 0.977833

loop_
_geom_bond_atom_site_label_1
_geom_bond_atom_site_label_2
_ccdc_geom_bond_type
C68   H68   S    
C57   H48   S    
C41   P7    S    
C48   H45   S    
C36   N1    S    
O39   P7    S    
C17   C18   A    
Ba2   P4    S    
C16   N3    S    
H37   N15   S    
C32   C64   S    
C27   N6    S    
O12   P2    S    
C65   O32   D    
C43   C44   A    
H47   N4    S    
C5    C9    A    
C10   C11   A    
C2    C61   S    
Ba1   O15   S    
C24   C25   A    
C48   C52   S    
H40   N16   S    
C32   C38   A    
C15   C24   A    
C26   C27   A    
C33   C35   A    
H39   N16   S    
Ba2   O34   S    
C45   H4    S    
Ba1   Ba2   S    
O6    P7    D    
C36   C37   A    
C45   C56   S    
C25   C27   A    
C31   P1    S    
C16   C66   S    
C13   C14   A    
H62   N8    S    
C64   O31   D    
O34   P4    D    
C9    C22   A    
C12   H56   S    
O14   P6    S    
C32   C33   A    
C67   C69   S    
C1    H2    S    
C34   H70   S    
C60   H51   S    
O13   P1    S    
C56   H5    S    
C15   C17   A    
O40   P5    S    
C4    N7    S    
C66   H66   S    
C28   O38   S    
C62   H60   S    
C6    C7    A    
C35   C63   S    
Ba1   O39   S    
C43   C65   S    
C21   C22   A    
C7    C8    A    
H30   N12   S    
C52   H24   S    
H35   N14   S    
H55   N6    S    
C69   H10   S    
C58   O25   D    
N1    N9    D    
C51   H22   S    
C63   O30   D    
C21   H15   S    
O15   P2    D    
C39   C41   A    
Ba2   O4    S    
C67   H6    S    
Ba1   P1    S    
C37   H16   S    
O2    P5    D    
C69   H8    S    
C28   C68   S    
C33   P2    S    
C26   C29   A    
C4    C16   S    
H52   N5    S    
C44   C46   A    
Ba1   O16   S    
C42   N9    S    
C51   O18   D    
C4    O23   S    
C40   H23   S    
C16   H18   S    
O9    P8    S    
C4    C58   S    
H46   N4    S    
C40   H12   S    
O17   P3    D    
C12   O14   S    
H53   N5    S    
Ba2   O6    S    
C5    C70   A    
C3    C5    A    
H54   N6    S    
C39   N8    S    
C66   O33   D    
C23   O7    S    
C56   C57   S    
O4    P1    S    
O16   P3    S    
O10   P6    S    
C59   H50   S    
C50   N13   S    
H42   N2    S    
C57   O24   D    
C34   H69   S    
C12   H1    S    
H20   N10   S    
C35   C36   A    
Ba2   O39   S    
C55   O22   D    
C40   H34   S    
H31   N12   S    
C29   C30   A    
H36   N14   S    
Ba1   O1    S    
C61   O28   D    
C53   H25   S    
H58   N7    S    
C19   C60   S    
C20   N5    S    
C17   C26   A    
C41   C43   A    
C29   P6    S    
C63   H63   S    
H38   N15   S    
C60   O27   D    
C64   H64   S    
C3    H14   S    
C1    C55   S    
C44   P5    S    
H33   N13   S    
Ba1   O4    S    
C67   O9    S    
C11   C13   A    
C53   O20   D    
H59   N7    S    
Ba1   P2    S    
C18   C31   A    
O38   P4    S    
C2    C70   A    
C13   P4    S    
C47   O13   S    
H41   N2    S    
H43   N3    S    
C37   C38   A    
C49   N11   S    
C59   O26   D    
C14   C20   A    
C47   N10   S    
C23   H67   S    
C18   C19   A    
Ba2   O40   S    
O3    P5    S    
C49   O12   S    
O23   P3    S    
H61   N8    S    
C49   C54   S    
C22   C24   A    
C28   H19   S    
Ba2   O5    S    
O5    P2    S    
C3    C6    A    
C56   N4    S    
Ba2   O37   S    
C1    C12   S    
C50   N14   S    
C55   H29   S    
C6    C59   S    
C48   C53   S    
Ba1   O10   S    
C52   O19   D    
C46   H17   S    
C8    C9    A    
C30   C31   A    
Ba1   O36   S    
C34   N2    S    
C45   H3    S    
C49   C50   S    
C8    C14   A    
O11   P6    D    
C2    C19   A    
H44   N3    S    
O37   P8    S    
O7    P7    S    
C68   O35   D    
C47   C51   S    
C30   H13   S    
H27   N11   S    
O1    P1    D    
C39   C42   A    
C61   H57   S    
H32   N13   S    
C58   H49   S    
C65   H65   S    
C7    C10   A    
H26   N11   S    
C62   O29   D    
C67   H7    S    
C25   C62   S    
C23   C34   S    
C45   O3    S    
C38   P3    S    
Ba1   O5    S    
C15   C70   A    
C47   C48   S    
C23   N16   S    
C1    N15   S    
C54   H28   S    
C20   C21   A    
C28   C40   S    
H21   N10   S    
O8    P8    D    
Ba2   O36   S    
C50   N12   S    
C42   C46   A    
C11   H11   S    
C10   P8    S    
C69   H9    S    
C54   O21   D    
O36   P4    S    
