data_mof_unit_30972.cif
_audit_creation_date              2012-12-10T20:37:30-0500
_audit_creation_method            fapswitch 2.2
_symmetry_space_group_name_H-M    P1
_symmetry_Int_Tables_number       1
_space_group_crystal_system       triclinic
_cell_length_a                    15.679914
_cell_length_b                    10.831998
_cell_length_c                    10.003527
_cell_angle_alpha                 88.646832
_cell_angle_beta                  88.717278
_cell_angle_gamma                 91.111309
_cell_volume                      1697.81011571

loop_
_atom_site_label
_atom_site_type_symbol
_atom_type_description
_atom_site_fract_x
_atom_site_fract_y
_atom_site_fract_z
_atom_type_partial_charge
C1    C     C_R   0.503655 0.260908 0.500859 0.912308
C2    C     C_3   0.084051 0.526335 0.505908 -0.101245
C3    C     C_3   0.971016 0.633961 0.523739 0.121117
C4    C     C_3   0.916922 0.518176 0.497895 -0.077759
C5    C     C_3   0.031252 0.602282 0.406198 0.218270
C6    C     C_3   0.976504 0.485239 0.380230 0.287339
C7    C     C_1   0.174869 0.521774 0.507127 0.080624
C8    C     C_1   0.826039 0.511948 0.495667 0.064791
C9    C     C_R   0.475587 0.058831 0.609281 -0.106813
C10   C     C_R   0.505817 0.128976 0.499555 -0.151187
C11   C     C_R   0.528697 0.067866 0.380458 0.127950
C12   C     C_R   0.338368 0.502148 0.501477 0.882660
C13   C     C_R   0.511235 0.940332 0.372823 0.150289
C14   C     C_R   0.496784 0.871148 0.492833 -0.172452
C15   C     C_R   0.481162 0.934445 0.608266 -0.084578
C16   C     C_3   0.491330 0.915230 0.755275 0.391225
C17   C     C_3   0.481131 0.059018 0.760031 0.390360
C18   C     C_R   0.424976 0.497998 0.072956 0.095247
C19   C     C_R   0.572740 0.525047 0.065393 0.273182
C20   C     C_R   0.572554 0.521186 0.923575 -0.184747
C21   C     C_R   0.425440 0.497375 0.931516 0.076577
C22   C     C_3   0.357140 0.401171 0.928783 -0.078302
C23   C     C_R   0.499542 0.739283 0.498073 0.879442
C24   C     C_3   0.353170 0.404845 0.082279 0.049313
C25   C     C_R   0.661723 0.500552 0.498731 0.889932
C26   C     C_3   0.969247 0.441746 0.598195 -0.287688
C27   C     C_3   0.029333 0.411270 0.480176 0.136629
C28   C     C_1   0.249884 0.512975 0.505271 -0.106627
C29   C     C_1   0.750691 0.506069 0.495968 -0.122057
C30   C     C_3   0.024178 0.559291 0.623594 0.261382
H1    H     H_    0.631242 0.538461 0.866858 0.202561
H2    H     H_    0.382667 0.315879 0.886739 0.173272
H3    H     H_    0.371845 0.317756 0.132728 0.108351
H4    H     H_    0.942556 0.375327 0.675106 0.195649
N1    N     N_R   0.499430 0.499140 0.142800 -0.152432
N2    N     N_R   0.499430 0.499180 0.857150 -0.139023
O1    O     O_R   0.500010 0.316790 0.614690 -0.622996
O2    O     O_R   0.500000 0.316760 0.385350 -0.599535
O3    O     O_R   0.376780 0.500010 0.614650 -0.605536
O4    O     O_R   0.376770 0.499970 0.385310 -0.579098
O5    O     O_R   0.500000 0.683240 0.614650 -0.638214
O6    O     O_R   0.499990 0.683210 0.385310 -0.570817
O7    O     O_R   0.623230 0.500030 0.614690 -0.640553
O8    O     O_R   0.623220 0.499990 0.385350 -0.551888
Zn1   Zn    Zn3+2 0.500010 0.500020 0.653130 0.936131
Zn2   Zn    Zn3+2 0.499990 0.499980 0.346870 1.007713
N3    N     N_2   0.064842 0.291035 0.456885 -0.257494
H5    H     H_    0.114461 0.270694 0.519098 0.225515
C31   C     C_3   0.003070 0.190723 0.450759 -0.699637
H6    H     H_    0.035690 0.106301 0.417922 0.241841
H7    H     H_    0.952973 0.212631 0.377836 0.274853
H8    H     H_    0.972928 0.172232 0.550971 0.213671
N4    N     N_2   0.577121 0.872631 0.785131 -0.324633
H9    H     H_    0.600269 0.802064 0.728659 0.248654
C32   C     C_3   0.602331 0.864368 0.922917 -0.761286
H10   H     H_    0.669855 0.835789 0.927224 0.270579
H11   H     H_    0.562490 0.795035 0.980120 0.242891
H12   H     H_    0.598296 0.955462 0.968755 0.248635
N5    N     N_2   0.400815 0.098677 0.820080 -0.328995
H13   H     H_    0.348987 0.108679 0.759369 0.217832
C33   C     C_3   0.381081 0.063163 0.957602 -0.835110
H14   H     H_    0.350156 0.139875 0.009516 0.235856
H15   H     H_    0.439763 0.037888 0.009828 0.258572
H16   H     H_    0.335134 0.984093 0.962424 0.283098
N6    N     N_2   0.554054 0.129503 0.810367 -0.305356
H17   H     H_    0.538816 0.211442 0.854790 0.247826
C34   C     C_3   0.636228 0.135049 0.739854 -0.734303
H18   H     H_    0.643299 0.222615 0.680584 0.238102
H19   H     H_    0.644986 0.057076 0.671498 0.248657
H20   H     H_    0.687729 0.132953 0.814097 0.248920
Br1   Br    Br    0.678833 0.581764 0.134202 -0.458287
N7    N     N_2   0.282304 0.444508 0.860255 -0.244975
H21   H     H_    0.259845 0.529947 0.885544 0.291675
C35   C     C_3   0.217527 0.351009 0.837288 -0.634034
H22   H     H_    0.167461 0.389967 0.773215 0.245154
H23   H     H_    0.187816 0.317709 0.933594 0.278405
H24   H     H_    0.245680 0.272118 0.784321 0.204470
Br2   Br    Br    0.249616 0.473893 0.159089 -0.433993
Br3   Br    Br    0.940134 0.434318 0.205420 -0.356705
Br4   Br    Br    0.078760 0.713566 0.267824 -0.391089
N8    N     N_2   0.933165 0.752713 0.547246 -0.271274
H25   H     H_    0.886493 0.774325 0.480092 0.243093
C36   C     C_3   0.992045 0.854456 0.567825 -0.677727
H26   H     H_    0.956033 0.934989 0.603447 0.227555
H27   H     H_    0.025880 0.881312 0.472801 0.247216
H28   H     H_    0.039372 0.830088 0.644165 0.275979
Br5   Br    Br    0.058676 0.608818 0.799809 -0.440192
N9    N     N_2   0.585201 0.127000 0.283998 -0.292845
H29   H     H_    0.640292 0.079317 0.264736 0.226397
C37   C     C_3   0.548243 0.180293 0.165401 -0.720472
H30   H     H_    0.568968 0.129456 0.076535 0.205247
H31   H     H_    0.572115 0.276584 0.151364 0.269907
H32   H     H_    0.477606 0.179389 0.173086 0.234912
N10   N     N_2   0.504770 0.884223 0.246314 -0.274669
H33   H     H_    0.540342 0.927255 0.171210 0.230647
C38   C     C_3   0.417388 0.859799 0.208357 -0.691044
H34   H     H_    0.381183 0.946836 0.205654 0.225640
H35   H     H_    0.384017 0.795479 0.280878 0.265882
H36   H     H_    0.416709 0.816966 0.108713 0.234941
N11   N     N_2   0.423435 0.837615 0.819644 -0.301767
H37   H     H_    0.444065 0.756676 0.862899 0.246752
C39   C     C_3   0.342055 0.819484 0.755180 -0.742127
H38   H     H_    0.294597 0.780528 0.829489 0.252967
H39   H     H_    0.348298 0.753445 0.672733 0.249297
H40   H     H_    0.317363 0.907457 0.714737 0.237611

loop_
_geom_bond_atom_site_label_1
_geom_bond_atom_site_label_2
_ccdc_geom_bond_type
C32   H10   S    
N7    C35   S    
C33   H16   S    
C18   C21   A    
C19   Br1   S    
C19   C20   A    
C4    C8    S    
C25   O7    A    
N8    H25   S    
C37   H30   S    
N3    C31   S    
C21   N2    A    
N4    H9    S    
O4    Zn2   S    
C26   C27   S    
C23   O6    A    
C22   H2    S    
C12   C28   S    
C36   H26   S    
C18   C24   S    
C8    C29   T    
C5    C6    S    
C27   N3    S    
C15   C16   S    
C38   H36   S    
C39   H40   S    
O6    Zn2   S    
C33   H15   S    
C16   N4    S    
C26   H4    S    
C2    C7    S    
C16   C17   S    
N6    C34   S    
C35   H24   S    
C38   H35   S    
C3    N8    S    
C2    C27   S    
C18   N1    A    
C33   H14   S    
C1    O1    A    
O3    Zn1   S    
N5    H13   S    
C21   C22   S    
C39   H38   S    
C25   O8    A    
C22   N7    S    
N8    C36   S    
O8    Zn2   S    
N4    C32   S    
C25   C29   S    
N5    C33   S    
C35   H22   S    
C34   H18   S    
N3    H5    S    
C4    C6    S    
C16   N11   S    
C31   H7    S    
C7    C28   T    
C34   H19   S    
C14   C23   S    
C12   O4    A    
C3    C30   S    
C39   H39   S    
C37   H31   S    
C6    C27   S    
C11   N9    S    
C31   H8    S    
C38   H34   S    
N11   C39   S    
N2    Zn1   S    
C5    Br4   S    
N10   C38   S    
O7    Zn1   S    
C35   H23   S    
C1    O2    A    
C17   N5    S    
C9    C17   S    
C36   H27   S    
N9    C37   S    
C26   C30   S    
C32   H11   S    
C31   H6    S    
C22   C24   S    
C2    C5    S    
O1    Zn1   S    
C3    C4    S    
C37   H32   S    
C9    C10   A    
C24   Br2   S    
C1    C10   S    
N7    H21   S    
C3    C5    S    
C4    C26   S    
C17   N6    S    
C24   H3    S    
C23   O5    A    
C13   N10   S    
C2    C30   S    
C34   H20   S    
C12   O3    A    
C9    C15   A    
C19   N1    A    
C11   C13   A    
C6    Br3   S    
N11   H37   S    
N10   H33   S    
O2    Zn2   S    
C10   C11   A    
C20   N2    A    
C36   H28   S    
N9    H29   S    
N6    H17   S    
C32   H12   S    
O5    Zn1   S    
C14   C15   A    
C30   Br5   S    
C13   C14   A    
N1    Zn2   S    
C20   H1    S    
