data_mof_unit_7597.cif
_audit_creation_date              2012-12-10T20:30:09-0500
_audit_creation_method            fapswitch 2.2
_symmetry_space_group_name_H-M    P1
_symmetry_Int_Tables_number       1
_space_group_crystal_system       triclinic
_cell_length_a                    9.874333
_cell_length_b                    10.633737
_cell_length_c                    13.133545
_cell_angle_alpha                 89.78628
_cell_angle_beta                  70.030495
_cell_angle_gamma                 90.461423
_cell_volume                      1296.04810201

loop_
_atom_site_label
_atom_site_type_symbol
_atom_type_description
_atom_site_fract_x
_atom_site_fract_y
_atom_site_fract_z
_atom_type_partial_charge
C1    C     C_R   0.499486 0.740515 0.502297 0.890075
C2    C     C_R   0.431113 0.482526 0.984950 0.088502
C3    C     C_R   0.456677 0.444311 0.877545 0.086234
C4    C     C_R   0.539323 0.460643 0.030598 0.080648
C5    C     C_R   0.658509 0.383161 0.976754 0.176644
C6    C     C_R   0.670700 0.331198 0.876899 -0.270797
C7    C     C_R   0.571174 0.361392 0.827628 -0.216969
C8    C     C_R   0.532968 0.515334 0.128077 -0.266717
C9    C     C_R   0.745384 0.403334 0.127609 -0.203523
C10   C     C_R   0.368267 0.492161 0.822216 -0.119514
C11   C     C_R   0.363575 0.934588 0.535804 0.064994
C12   C     C_R   0.420031 0.495754 0.704198 0.842059
C13   C     C_R   0.491422 0.872073 0.522277 -0.104660
C14   C     C_R   0.605640 0.936733 0.539700 -0.210138
C15   C     C_R   0.600679 0.066497 0.546743 -0.194663
C16   C     C_R   0.480474 0.129561 0.537860 -0.157229
C17   C     C_R   0.352680 0.061411 0.551775 0.036949
C18   C     C_3   0.238220 0.069833 0.498927 0.309069
C19   C     C_3   0.265464 0.931419 0.471374 -0.473233
C20   C     C_R   0.886010 0.511780 0.594554 0.224944
C21   C     C_R   0.969541 0.476799 0.407879 -0.137443
C22   C     C_R   0.113258 0.476628 0.407878 -0.136391
C23   C     C_R   0.494754 0.260180 0.509544 0.867556
C24   C     C_R   0.028253 0.511271 0.594698 0.164678
C25   C     C_3   0.999575 0.618007 0.672169 -0.503351
C26   C     C_3   0.846433 0.619531 0.670920 -0.473352
C27   C     C_R   0.579948 0.499134 0.295916 0.880343
C28   C     C_R   0.761927 0.356688 0.025074 -0.210036
C29   C     C_R   0.627796 0.479814 0.179987 -0.059701
C30   C     C_R   0.239539 0.552972 0.879459 -0.185207
C31   C     C_R   0.202303 0.572624 0.989947 -0.144117
C32   C     C_R   0.298329 0.540846 0.042273 -0.199594
H1    H     H_    0.818836 0.373967 0.168160 0.150319
H2    H     H_    0.696002 0.116661 0.548081 0.178043
H3    H     H_    0.264260 0.132652 0.426725 0.101785
H4    H     H_    0.170394 0.868880 0.508167 0.225682
H5    H     H_    0.324382 0.915097 0.383805 0.153228
H6    H     H_    0.949218 0.460088 0.333172 0.144362
H7    H     H_    0.200124 0.459299 0.332882 0.154679
H8    H     H_    0.004350 0.588522 0.751938 0.191922
H9    H     H_    0.063173 0.703866 0.636666 0.218069
H10   H     H_    0.764790 0.592569 0.750126 0.214919
H11   H     H_    0.758527 0.269014 0.835910 0.149703
H12   H     H_    0.821040 0.705755 0.633028 0.210247
H13   H     H_    0.851033 0.295094 0.986162 0.150550
H14   H     H_    0.450373 0.581985 0.168440 0.143026
H15   H     H_    0.170298 0.589247 0.838192 0.148239
H16   H     H_    0.264537 0.560272 0.127842 0.124403
H17   H     H_    0.101723 0.617969 0.034242 0.144475
H18   H     H_    0.702644 0.889253 0.538924 0.172264
N1    N     N_R   0.856940 0.500860 0.500710 -0.105477
N2    N     N_R   0.142580 0.500820 0.500710 -0.108687
O1    O     O_R   0.385310 0.683210 0.499990 -0.607786
O2    O     O_R   0.614650 0.683240 0.500000 -0.616641
O3    O     O_R   0.328390 0.499940 0.653610 -0.615674
O4    O     O_R   0.557730 0.499980 0.653620 -0.612434
O5    O     O_R   0.385350 0.316760 0.500000 -0.645631
O6    O     O_R   0.614690 0.316790 0.500010 -0.615435
O7    O     O_R   0.442270 0.500020 0.346380 -0.618274
O8    O     O_R   0.671610 0.500060 0.346390 -0.617264
Zn1   Zn    Zn3+2 0.346870 0.499980 0.499990 0.922886
Zn2   Zn    Zn3+2 0.653130 0.500020 0.500010 0.936184
O9    O     O_3   0.094121 0.080143 0.571849 -0.632347
C33   C     C_3   0.072409 0.187297 0.638382 0.117197
H19   H     H_    0.965769 0.227038 0.645832 0.124986
H20   H     H_    0.150660 0.263746 0.603018 0.178573
C34   C     C_3   0.069654 0.149789 0.752114 -0.368820
H21   H     H_    0.959329 0.117763 0.801701 0.202748
H22   H     H_    0.143435 0.070139 0.747749 0.244452
C35   C     C_3   0.115262 0.259031 0.808225 -0.945972
H23   H     H_    0.230306 0.282074 0.764561 0.270961
H24   H     H_    0.103102 0.231881 0.892605 0.261863
H25   H     H_    0.048511 0.343037 0.809554 0.260802
H26   H     H_    0.583988 0.318049 0.750519 0.167813

loop_
_geom_bond_atom_site_label_1
_geom_bond_atom_site_label_2
_ccdc_geom_bond_type
O6    Zn2   S    
C23   O6    A    
C24   N2    A    
C27   C29   S    
C19   H4    S    
C4    C8    A    
C26   H12   S    
C11   C19   S    
C5    C6    A    
C8    C29   A    
O8    Zn2   S    
C20   N1    A    
C3    C7    A    
N2    Zn1   S    
C25   H8    S    
C30   C31   A    
C18   O9    S    
C15   C16   A    
C2    C32   A    
C18   C19   S    
C1    O1    A    
C19   H5    S    
O1    Zn1   S    
C21   H6    S    
C20   C24   A    
C16   C17   A    
C35   H23   S    
C18   H3    S    
C15   H2    S    
C9    C29   A    
C13   C14   A    
C9    H1    S    
C32   H16   S    
N1    Zn2   S    
C31   H17   S    
C7    H26   S    
C28   H13   S    
O7    Zn1   S    
C34   H21   S    
C33   C34   S    
C30   H15   S    
C24   C25   S    
C25   H9    S    
O2    Zn2   S    
C25   C26   S    
C34   H22   S    
C33   H20   S    
C2    C4    A    
C1    O2    A    
C5    C28   A    
C10   C30   A    
C31   C32   A    
C35   H25   S    
C17   C18   S    
C12   O4    A    
C10   C12   S    
C16   C23   S    
C6    H11   S    
O4    Zn2   S    
C1    C13   S    
C21   N1    A    
C26   H10   S    
C22   N2    A    
C23   O5    A    
C11   C17   A    
C4    C5    A    
O5    Zn1   S    
C6    C7    A    
C27   O8    A    
C34   C35   S    
C33   H19   S    
C2    C3    A    
C3    C10   A    
C27   O7    A    
C11   C13   A    
C14   H18   S    
C20   C26   S    
C22   H7    S    
O3    Zn1   S    
C8    H14   S    
C12   O3    A    
O9    C33   S    
C14   C15   A    
C35   H24   S    
C21   C22   A    
C9    C28   A    
