data_mof_unit_40135.cif
_audit_creation_date              2012-12-10T17:33:45-0500
_audit_creation_method            fapswitch 2.2
_symmetry_space_group_name_H-M    P1
_symmetry_Int_Tables_number       1
_space_group_crystal_system       triclinic
_cell_length_a                    11.689503
_cell_length_b                    12.361979
_cell_length_c                    13.247142
_cell_angle_alpha                 116.526915
_cell_angle_beta                  77.080175
_cell_angle_gamma                 100.681195
_cell_volume                      1661.35619234

loop_
_atom_site_label
_atom_site_type_symbol
_atom_type_description
_atom_site_fract_x
_atom_site_fract_y
_atom_site_fract_z
_atom_type_partial_charge
C1    C     C_R   0.523024 0.854356 0.284485 0.769135
C2    C     C_R   0.474758 0.226827 0.834424 -0.149366
C3    C     C_R   0.573533 0.821967 0.073635 0.058059
C4    C     C_R   0.574359 0.742194 0.957794 -0.170377
C5    C     C_R   0.563001 0.615487 0.918031 0.080334
C6    C     C_R   0.533536 0.564231 0.999678 0.085798
C7    C     C_R   0.542204 0.644527 0.115679 0.044437
C8    C     C_R   0.507957 0.436577 0.971920 -0.001452
C9    C     C_R   0.515514 0.392001 0.052144 0.031456
C10   C     C_R   0.546851 0.472181 0.156936 -0.181740
C11   C     C_R   0.562783 0.595043 0.185552 -0.188511
C12   C     C_R   0.715603 0.999582 0.499924 0.806317
C13   C     C_R   0.472805 0.351257 0.868644 -0.235341
C14   C     C_R   0.482269 0.184426 0.914082 -0.266660
C15   C     C_R   0.546469 0.773094 0.156657 -0.166918
C16   C     C_R   0.708889 0.360909 0.358030 -0.296377
C17   C     C_R   0.333513 0.757536 0.636911 -0.024629
C18   C     C_R   0.295591 0.663454 0.670452 -0.300920
C19   C     C_R   0.359001 0.562514 0.624806 0.582371
C20   C     C_R   0.463053 0.554779 0.543562 -0.135248
C21   C     C_R   0.501619 0.657559 0.517341 0.228312
C22   C     C_R   0.531400 0.451470 0.487215 -0.006756
C23   C     C_R   0.480956 0.144900 0.713193 0.836311
C24   C     C_R   0.640541 0.459120 0.416221 0.172360
C25   C     C_R   0.680274 0.563854 0.400961 -0.312779
C26   C     C_R   0.610674 0.658451 0.447550 -0.176893
C27   C     C_R   0.496843 0.339280 0.494966 0.061074
C28   C     C_R   0.669944 0.254378 0.370253 0.072762
C29   C     C_R   0.284374 0.000517 0.500203 0.833459
C30   C     C_1   0.837242 0.999174 0.500173 -0.184444
C31   C     C_1   0.939903 0.999656 0.500208 0.000735
C32   C     C_1   0.059998 0.000567 0.500133 0.009543
C33   C     C_1   0.162683 0.001009 0.500088 -0.164888
C34   C     C_R   0.497009 0.266955 0.024474 0.592164
Cu1   Cu    Cu3+1 0.526510 0.098270 0.475420 0.939168
Cu2   Cu    Cu3+1 0.473490 0.901730 0.524580 0.937954
H1    H     H_    0.478678 0.088103 0.890683 0.174947
H2    H     H_    0.763211 0.570200 0.346397 0.156909
H3    H     H_    0.792130 0.366736 0.303828 0.142635
H4    H     H_    0.416050 0.322416 0.545188 0.209645
H5    H     H_    0.283036 0.835061 0.673336 0.159820
H6    H     H_    0.216617 0.669196 0.732930 0.175793
H7    H     H_    0.644371 0.727688 0.420546 0.190501
H8    H     H_    0.562252 0.439771 0.215798 0.206133
H9    H     H_    0.442128 0.379012 0.814285 0.191005
H10   H     H_    0.592078 0.778921 0.895023 0.133207
H11   H     H_    0.604261 0.651289 0.257187 0.155477
H12   H     H_    0.723704 0.179103 0.328573 0.126011
N1    N     N_R   0.566700 0.246290 0.438210 -0.204791
N2    N     N_R   0.434010 0.754320 0.561170 -0.195989
O1    O     O_R   0.533340 0.972510 0.318140 -0.587695
O2    O     O_R   0.488570 0.806530 0.359650 -0.571824
O3    O     O_R   0.685190 0.083000 0.479260 -0.586486
O4    O     O_R   0.640410 0.917020 0.520770 -0.597400
O5    O     O_R   0.511430 0.193470 0.640350 -0.586718
O6    O     O_R   0.466660 0.027490 0.681860 -0.587066
O7    O     O_R   0.359590 0.082980 0.479230 -0.565562
O8    O     O_R   0.314810 0.917000 0.520740 -0.578487
F1    F     F_    0.319471 0.478379 0.666906 -0.710661
F2    F     F_    0.497417 0.224639 0.102915 -0.701914
C35   C     C_3   0.617189 0.956344 0.106102 -0.339810
C36   C     C_3   0.684031 0.989894 0.007957 -0.367791
C37   C     C_3   0.750573 0.116563 0.053293 -0.799117
H13   H     H_    0.690669 0.185009 0.115845 0.303558
H14   H     H_    0.823029 0.117772 0.095712 0.230865
H15   H     H_    0.789327 0.141827 0.981293 0.242244
H16   H     H_    0.749970 0.924344 0.952585 0.215713
H17   H     H_    0.620505 0.987757 0.955774 0.234092
H18   H     H_    0.541328 0.011962 0.149914 0.252125
H19   H     H_    0.681054 0.981891 0.165743 0.202133
C38   C     C_3   0.612476 0.546380 0.791281 -0.392684
C39   C     C_3   0.723757 0.487202 0.775375 -0.353304
C40   C     C_3   0.774204 0.421151 0.649223 -0.796027
H20   H     H_    0.709971 0.345333 0.605326 0.284517
H21   H     H_    0.794823 0.484534 0.607518 0.251028
H22   H     H_    0.856485 0.383028 0.640802 0.245367
H23   H     H_    0.791730 0.558716 0.819089 0.221391
H24   H     H_    0.704601 0.420918 0.813535 0.233729
H25   H     H_    0.546696 0.481890 0.740061 0.217355
H26   H     H_    0.639505 0.609822 0.749531 0.188678

loop_
_geom_bond_atom_site_label_1
_geom_bond_atom_site_label_2
_ccdc_geom_bond_type
C35   H19   S    
C16   C28   A    
C21   C26   A    
C37   H14   S    
C8    C13   A    
Cu1   O3    S    
C40   H20   S    
C11   H11   S    
C19   C20   A    
C38   H25   S    
Cu2   N2    S    
C23   O6    A    
C4    H10   S    
C7    C11   A    
C39   H23   S    
C36   H16   S    
Cu2   O8    S    
C18   H6    S    
C5    C6    A    
C29   C33   S    
C18   C19   A    
C2    C13   A    
C38   H26   S    
C39   H24   S    
Cu1   Cu2   S    
C8    C9    A    
Cu1   N1    S    
C1    C15   S    
C9    C10   A    
C12   O3    A    
Cu2   O2    S    
C7    C15   A    
C37   H15   S    
C16   C24   A    
C34   F2    S    
C40   H21   S    
C21   N2    A    
C26   H7    S    
C3    C35   S    
C10   H8    S    
C24   C25   A    
C4    C5    A    
C6    C8    A    
C19   F1    S    
C25   C26   A    
Cu1   O5    S    
C36   C37   S    
Cu2   O6    S    
C25   H2    S    
C28   N1    A    
C31   C32   S    
C27   H4    S    
C17   C18   A    
C20   C21   A    
C1    O1    A    
C20   C22   A    
C22   C27   A    
Cu1   O1    S    
C9    C34   A    
C40   H22   S    
C22   C24   A    
C3    C4    A    
C3    C15   A    
C35   H18   S    
C28   H12   S    
C12   C30   S    
C29   O7    A    
C39   C40   S    
C17   N2    A    
C14   C34   A    
C23   O5    A    
C6    C7    A    
C36   H17   S    
Cu1   O7    S    
C32   C33   T    
C38   C39   S    
C5    C38   S    
C14   H1    S    
C13   H9    S    
C30   C31   T    
C35   C36   S    
C2    C14   A    
C1    O2    A    
C17   H5    S    
Cu2   O4    S    
C10   C11   A    
C16   H3    S    
C37   H13   S    
C29   O8    A    
C2    C23   S    
C12   O4    A    
C27   N1    A    
