data_mof_unit_21375.cif
_audit_creation_date              2012-10-26T18:40:12-0400
_audit_creation_method            fapswitch 2.2
_symmetry_space_group_name_H-M    P1
_symmetry_Int_Tables_number       1
_space_group_crystal_system       triclinic
_cell_length_a                    8.766708
_cell_length_b                    15.065825
_cell_length_c                    13.931019
_cell_angle_alpha                 89.441285
_cell_angle_beta                  96.69798
_cell_angle_gamma                 92.116614
_cell_volume                      1826.14424283

loop_
_atom_site_label
_atom_site_type_symbol
_atom_type_description
_atom_site_fract_x
_atom_site_fract_y
_atom_site_fract_z
_atom_type_partial_charge
C1    C     C_R   0.497335 0.329143 0.500000 0.578604
C2    C     C_R   0.625975 0.539076 0.900045 -0.121924
C3    C     C_R   0.503606 0.498840 0.055081 0.008355
C4    C     C_R   0.504168 0.500258 0.946063 0.005138
C5    C     C_R   0.204692 0.497830 0.476306 0.558920
C6    C     C_R   0.795481 0.503162 0.523858 0.585770
C7    C     C_2   0.041087 0.482735 0.467647 0.010936
C8    C     C_2   0.959503 0.519369 0.533234 0.008566
C9    C     C_R   0.465557 0.095336 0.598459 0.065118
C10   C     C_R   0.320613 0.891929 0.480437 0.063647
C11   C     C_R   0.486766 0.187561 0.591177 -0.110185
C12   C     C_R   0.499191 0.669826 0.499528 0.595615
C13   C     C_R   0.343627 0.800928 0.472659 -0.131151
C14   C     C_R   0.484049 0.230828 0.500915 -0.020003
C15   C     C_R   0.488617 0.765984 0.498349 -0.001115
C16   C     C_R   0.458284 0.179269 0.415344 0.057581
C17   C     C_R   0.616095 0.822380 0.530013 0.042513
C18   C     C_R   0.435857 0.087480 0.422692 -0.097056
C19   C     C_R   0.593683 0.913039 0.537686 -0.107381
C20   C     C_R   0.441704 0.045219 0.512594 0.012117
C21   C     C_R   0.448538 0.948143 0.513324 0.006414
C22   C     C_2   0.978280 0.410197 0.400599 0.598584
C23   C     C_R   0.591225 0.561615 0.113496 -0.112173
C24   C     C_2   0.023915 0.589310 0.604050 0.623366
C25   C     C_2   0.468081 0.054064 0.696295 0.606656
C26   C     C_2   0.162395 0.924863 0.456061 0.600706
C27   C     C_2   0.458852 0.216331 0.316802 0.585151
C28   C     C_2   0.774440 0.790176 0.551391 0.595403
C29   C     C_2   0.691813 0.627039 0.269269 0.628735
C30   C     C_2   0.249796 0.410484 0.731554 0.604155
C31   C     C_R   0.380143 0.462920 0.885799 -0.113580
C32   C     C_R   0.590669 0.560726 0.214373 0.208881
C33   C     C_R   0.380971 0.460057 0.785044 0.205107
C34   C     C_R   0.411560 0.439036 0.203610 0.059540
C35   C     C_R   0.620098 0.539725 0.798326 0.050556
C36   C     C_R   0.413775 0.436183 0.102684 -0.131329
Cu1   Cu    Cu3+1 0.500000 0.499990 0.596430 1.064962
Cu2   Cu    Cu3+1 0.500000 0.500010 0.403570 1.096626
H1    H     H_    0.859428 0.293221 0.383805 0.382240
H2    H     H_    0.691048 0.957788 0.559599 0.174868
H3    H     H_    0.659840 0.612520 0.081484 0.116245
H4    H     H_    0.281713 0.434282 0.916584 0.138006
H5    H     H_    0.902487 0.657688 0.337614 0.366450
H6    H     H_    0.019959 0.387930 0.711612 0.350053
H7    H     H_    0.340114 0.391326 0.238013 0.185638
H8    H     H_    0.713553 0.571542 0.765387 0.189866
H9    H     H_    0.346146 0.384091 0.063260 0.129164
H10   H     H_    0.726869 0.568305 0.941566 0.127574
H11   H     H_    0.172011 0.693837 0.634267 0.339722
H12   H     H_    0.526210 0.067067 0.840171 0.361421
H13   H     H_    0.945623 0.899367 0.393739 0.360416
H14   H     H_    0.504480 0.226130 0.656981 0.205632
H15   H     H_    0.247470 0.756130 0.448668 0.194218
H16   H     H_    0.580410 0.277717 0.219493 0.342232
H17   H     H_    0.988697 0.812354 0.619176 0.363102
H18   H     H_    0.421124 0.047640 0.357526 0.150843
N1    N     N_R   0.500000 0.500020 0.258690 -0.259048
N2    N     N_R   0.500000 0.499980 0.741310 -0.260483
O1    O     O_R   0.500010 0.371450 0.581430 -0.478468
O2    O     O_R   0.887187 0.341064 0.434038 -0.679656
O3    O     O_2   0.975237 0.594292 0.682492 -0.477879
O4    O     O_R   0.135173 0.651668 0.579470 -0.696869
O5    O     O_2   0.412233 0.979434 0.706335 -0.478037
O6    O     O_R   0.532051 0.101682 0.777844 -0.682731
O7    O     O_2   0.129606 0.998381 0.481970 -0.470729
O8    O     O_R   0.048855 0.870422 0.404839 -0.675120
O9    O     O_2   0.345795 0.204996 0.257404 -0.499694
O10   O     O_R   0.591698 0.259055 0.289986 -0.676785
O11   O     O_2   0.811232 0.722691 0.513473 -0.501992
O12   O     O_R   0.499990 0.628550 0.418570 -0.472637
O13   O     O_R   0.883831 0.839347 0.612217 -0.659329
O14   O     O_2   0.648682 0.702660 0.276607 -0.491884
O15   O     O_R   0.842171 0.605925 0.303826 -0.664608
O16   O     O_2   0.271075 0.350416 0.677175 -0.493905
O17   O     O_R   0.100453 0.427169 0.750590 -0.683343
O18   O     O_R   0.500010 0.371460 0.418560 -0.475990
O19   O     O_R   0.499990 0.628540 0.581440 -0.493608
O20   O     O_R   0.274840 0.499990 0.562640 -0.483440
O21   O     O_R   0.725160 0.500010 0.437360 -0.459529
O22   O     O_R   0.274840 0.500000 0.399770 -0.487320
O23   O     O_R   0.725160 0.500000 0.600230 -0.494323
O24   O     O_2   0.011498 0.409181 0.317763 -0.462106

loop_
_geom_bond_atom_site_label_1
_geom_bond_atom_site_label_2
_ccdc_geom_bond_type
C2    C35   A    
H5    O15   S    
Cu2   O12   S    
C24   O3    D    
C31   H4    S    
H12   O6    S    
C3    C23   A    
C28   O11   D    
C9    C25   S    
C7    C8    D    
Cu2   O18   S    
C33   N2    A    
C35   N2    A    
C22   O24   D    
C19   C21   A    
C29   C32   S    
C1    O1    A    
C22   O2    S    
C30   O16   D    
C11   C14   A    
H16   O10   S    
Cu2   O21   S    
C36   H9    S    
C25   O5    D    
C27   O10   S    
C8    C24   S    
C34   N1    A    
C31   C33   A    
C11   H14   S    
C34   C36   A    
Cu1   N2    S    
C18   H18   S    
C29   O14   D    
C10   C26   S    
C16   C27   S    
C6    O23   A    
C1    O18   A    
Cu1   O23   S    
C32   N1    A    
C13   H15   S    
C10   C21   A    
C26   O8    S    
C5    C7    S    
C6    C8    S    
C2    H10   S    
Cu1   O19   S    
H13   O8    S    
H6    O17   S    
C2    C4    A    
Cu1   Cu2   S    
Cu2   N1    S    
C9    C20   A    
C12   C15   S    
C12   O19   A    
C17   C28   S    
C34   H7    S    
C5    O22   A    
C9    C11   A    
Cu1   O1    S    
C13   C15   A    
C14   C16   A    
C28   O13   S    
C3    C4    S    
C15   C17   A    
C12   O12   A    
C24   O4    S    
H11   O4    S    
C30   C33   S    
C26   O7    D    
C10   C13   A    
C7    C22   S    
Cu1   O20   S    
C23   H3    S    
C23   C32   A    
C30   O17   S    
C6    O21   A    
Cu2   O22   S    
C3    C36   A    
H1    O2    S    
C17   C19   A    
C18   C20   A    
C4    C31   A    
C27   O9    D    
C19   H2    S    
C29   O15   S    
C20   C21   S    
C16   C18   A    
C1    C14   S    
C5    O20   A    
C35   H8    S    
C25   O6    S    
H17   O13   S    
