data_mof_unit_53842.cif
_audit_creation_date              2012-12-10T17:48:53-0500
_audit_creation_method            fapswitch 2.2
_symmetry_space_group_name_H-M    P1
_symmetry_Int_Tables_number       1
_space_group_crystal_system       triclinic
_cell_length_a                    10.743186
_cell_length_b                    14.72872
_cell_length_c                    14.76695
_cell_angle_alpha                 64.608582
_cell_angle_beta                  104.263819
_cell_angle_gamma                 103.495893
_cell_volume                      2023.94372709

loop_
_atom_site_label
_atom_site_type_symbol
_atom_type_description
_atom_site_fract_x
_atom_site_fract_y
_atom_site_fract_z
_atom_type_partial_charge
C1    C     C_R   0.480329 0.119925 0.312037 0.915933
C2    C     C_3   0.877370 0.005273 0.493424 -0.037183
C3    C     C_3   0.937548 0.927223 0.596141 -0.356132
C4    C     C_3   0.957700 0.113482 0.476673 0.726278
C5    C     C_R   0.486221 0.187632 0.204925 -0.373034
C6    C     C_R   0.544350 0.812557 0.796204 -0.096013
C7    C     C_R   0.523389 0.218530 0.038005 0.565028
C8    C     C_R   0.501799 0.151009 0.135402 0.456485
C9    C     C_R   0.490244 0.292217 0.175038 0.494470
C10   C     C_R   0.527781 0.362011 0.081623 -0.070661
C11   C     C_R   0.537157 0.323780 0.010669 -0.238955
C12   C     C_R   0.259484 0.002186 0.496237 0.817464
C13   C     C_R   0.553936 0.468570 0.055971 -0.011723
C14   C     C_R   0.561686 0.535803 0.953513 -0.078859
C15   C     C_R   0.572957 0.495313 0.884742 0.577517
C16   C     C_R   0.562273 0.391084 0.913953 -0.146246
C17   C     C_R   0.581470 0.509863 0.130521 -0.173455
C18   C     C_R   0.599821 0.614092 0.103902 0.550959
C19   C     C_R   0.586734 0.680389 0.001615 0.012158
C20   C     C_R   0.563696 0.641329 0.925328 0.010377
C21   C     C_R   0.595095 0.785210 0.974242 -0.106912
C22   C     C_R   0.575854 0.850987 0.872185 -0.204097
C23   C     C_R   0.523016 0.880094 0.687956 0.801586
C24   C     C_R   0.535792 0.708200 0.823426 -0.092660
C25   C     C_R   0.733360 0.293081 0.657261 0.053995
C26   C     C_R   0.687977 0.205264 0.636226 0.350212
C27   C     C_R   0.519014 0.285521 0.508587 0.023320
C28   C     C_R   0.557652 0.375845 0.527713 -0.077051
C29   C     C_R   0.670027 0.379207 0.600988 0.021478
C30   C     C_R   0.490195 0.462791 0.476598 0.018795
C31   C     C_R   0.536772 0.551271 0.500249 -0.029944
C32   C     C_R   0.660176 0.555692 0.561359 0.696675
C33   C     C_R   0.721421 0.470049 0.614127 -0.206804
C34   C     C_R   0.739529 0.002366 0.496638 0.827218
C35   C     C_R   0.379434 0.465191 0.401198 -0.129923
C36   C     C_R   0.316040 0.549961 0.351298 -0.096128
C37   C     C_R   0.354679 0.633143 0.378831 0.061192
C38   C     C_R   0.461553 0.633787 0.456898 -0.102932
C39   C     C_R   0.285011 0.715212 0.329501 -0.332924
C40   C     C_R   0.317983 0.797064 0.359129 0.321993
C41   C     C_R   0.483413 0.715340 0.489851 0.768671
C42   C     C_3   0.029833 0.968217 0.409654 0.717329
C43   C     C_3   0.886770 0.974258 0.407263 -0.511013
C44   C     C_3   0.082916 0.931372 0.598069 -0.397200
C45   C     C_3   0.099703 0.112923 0.471749 -0.539960
C46   C     C_3   0.120813 0.004038 0.492840 -0.008896
Cu1   Cu    Cu3+1 0.465900 0.918260 0.475680 1.077602
Cu2   Cu    Cu3+1 0.534100 0.081740 0.524320 1.007212
H1    H     H_    0.141983 0.958118 0.657736 0.185247
H2    H     H_    0.925985 0.942953 0.660695 0.205774
H3    H     H_    0.573891 0.363193 0.859919 0.215640
H4    H     H_    0.501158 0.679561 0.764330 0.240256
H5    H     H_    0.582844 0.931482 0.852947 0.176678
H6    H     H_    0.596634 0.462963 0.210804 0.231336
H7    H     H_    0.615298 0.816466 0.031604 0.208864
H8    H     H_    0.813758 0.477077 0.662632 0.215141
H9    H     H_    0.233122 0.549116 0.292224 0.141740
H10   H     H_    0.437347 0.277663 0.451979 0.164627
H11   H     H_    0.843231 0.027547 0.332149 0.145288
H12   H     H_    0.340139 0.403228 0.377287 0.146947
H13   H     H_    0.205071 0.716159 0.267833 0.166025
H14   H     H_    0.828007 0.898529 0.417405 0.270742
H15   H     H_    0.103605 0.853515 0.619333 0.222928
H16   H     H_    0.886093 0.849177 0.607277 0.241911
H17   H     H_    0.165207 0.139274 0.529754 0.238008
H18   H     H_    0.127811 0.168224 0.397701 0.144170
N1    N     N_R   0.585360 0.204570 0.560800 -0.192459
N2    N     N_R   0.414550 0.795430 0.439160 -0.237370
O1    O     O_R   0.455060 0.022100 0.338110 -0.524808
O2    O     O_R   0.512640 0.160150 0.379180 -0.545287
O3    O     O_R   0.288900 0.930980 0.479450 -0.513630
O4    O     O_R   0.346480 0.069030 0.520520 -0.615459
O5    O     O_R   0.487360 0.839850 0.620820 -0.536613
O6    O     O_R   0.544940 0.977900 0.661890 -0.571199
O7    O     O_R   0.653520 0.930970 0.479480 -0.556304
O8    O     O_R   0.711100 0.069020 0.520550 -0.513515
F1    F     F_    0.039151 0.867172 0.435705 -0.636512
F2    F     F_    0.959890 0.136041 0.559258 -0.671990
F3    F     F_    0.626431 0.649729 0.178634 -0.654798
F4    F     F_    0.535329 0.180999 0.971521 -0.631750
F5    F     F_    0.498361 0.050193 0.161740 -0.613656
F6    F     F_    0.447253 0.323990 0.234255 -0.678352
N3    N     N_3   0.068381 0.028167 0.309214 -0.586017
H19   H     H_    0.013913 0.994945 0.259055 0.242991
H20   H     H_    0.045341 0.101613 0.280137 0.171794
F7    F     F_    0.609047 0.555058 0.792898 -0.642316
F8    F     F_    0.564374 0.711954 0.576910 -0.581348
N4    N     N_3   0.248936 0.882105 0.305795 -0.465164
H21   H     H_    0.150037 0.855025 0.306282 0.249112
H22   H     H_    0.262986 0.913969 0.230089 0.238505
N5    N     N_3   0.843336 0.295457 0.735086 -0.594817
H23   H     H_    0.923809 0.282395 0.716908 0.237302
H24   H     H_    0.823181 0.237768 0.804332 0.238243
N6    N     N_3   0.748979 0.115997 0.693372 -0.509472
H25   H     H_    0.740071 0.090646 0.769605 0.185569
H26   H     H_    0.847575 0.134584 0.688292 0.260444
F9    F     F_    0.731475 0.644652 0.561558 -0.595288
N7    N     N_3   0.898788 0.192557 0.384869 -0.578497
H27   H     H_    0.913541 0.188466 0.319496 0.161690
H28   H     H_    0.945952 0.263595 0.383823 0.244404

loop_
_geom_bond_atom_site_label_1
_geom_bond_atom_site_label_2
_ccdc_geom_bond_type
C44   H1    S    
C26   N6    S    
C24   H4    S    
C4    N7    S    
Cu2   O8    S    
C19   C20   A    
C16   H3    S    
C7    C8    A    
C45   C46   S    
C7    C11   A    
C30   C35   A    
C1    C5    S    
C26   N1    A    
C36   C37   A    
C19   C21   A    
C23   O5    A    
C30   C31   A    
C15   C16   A    
C6    C22   A    
C29   C33   A    
C32   F9    S    
C18   C19   A    
C42   C46   S    
C20   C24   A    
Cu1   O1    S    
Cu1   Cu2   S    
C18   F3    S    
C22   H5    S    
C9    C10   A    
C43   H11   S    
C9    F6    S    
C2    C34   S    
C33   H8    S    
C12   O4    A    
C21   C22   A    
Cu2   O4    S    
C39   H13   S    
C3    H2    S    
C44   C46   S    
C41   N2    A    
C4    C45   S    
C44   H15   S    
C25   C29   A    
C41   F8    S    
C3    C44   S    
C25   N5    S    
C8    F5    S    
Cu2   O6    S    
Cu1   O5    S    
C38   C41   A    
C12   C46   S    
C36   H9    S    
N5    H23   S    
C21   H7    S    
C25   C26   A    
C3    H16   S    
C27   H10   S    
C1    O1    A    
C35   H12   S    
C35   C36   A    
C2    C4    S    
C5    C9    A    
C37   C38   A    
C14   C20   A    
N5    H24   S    
C11   C16   A    
N3    H19   S    
C2    C43   S    
C6    C24   A    
C17   C18   A    
N6    H26   S    
Cu1   O3    S    
C15   F7    S    
N3    H20   S    
C12   O3    A    
N4    H22   S    
N7    H28   S    
C45   H17   S    
C42   C43   S    
C23   O6    A    
Cu1   N2    S    
C39   C40   A    
C28   C29   A    
C31   C32   A    
C42   N3    S    
Cu2   O2    S    
C10   C13   A    
C5    C8    A    
C4    F2    S    
C34   O7    A    
C1    O2    A    
C31   C38   A    
C13   C17   A    
C32   C33   A    
C40   N4    S    
C28   C30   A    
C2    C3    S    
Cu1   O7    S    
C37   C39   A    
C6    C23   S    
Cu2   N1    S    
N6    H25   S    
C27   N1    A    
C10   C11   A    
N4    H21   S    
C42   F1    S    
N7    H27   S    
C40   N2    A    
C45   H18   S    
C14   C15   A    
C13   C14   A    
C17   H6    S    
C43   H14   S    
C34   O8    A    
C7    F4    S    
C27   C28   A    
