data_mof_unit_53724.cif
_audit_creation_date              2012-12-11T14:58:42-0500
_audit_creation_method            fapswitch 2.2
_symmetry_space_group_name_H-M    P1
_symmetry_Int_Tables_number       1
_space_group_crystal_system       triclinic
_cell_length_a                    10.945881
_cell_length_b                    10.961214
_cell_length_c                    18.817504
_cell_angle_alpha                 90.627013
_cell_angle_beta                  90.95195
_cell_angle_gamma                 59.835047
_cell_volume                      1951.71252582

loop_
_atom_site_label
_atom_site_type_symbol
_atom_type_description
_atom_site_fract_x
_atom_site_fract_y
_atom_site_fract_z
_atom_type_partial_charge
C1    C     C_R   0.360012 0.768600 0.396036 0.538755
C2    C     C_R   0.236551 0.432309 0.201545 -0.154659
C3    C     C_R   0.236606 0.436610 0.275555 -0.041640
C4    C     C_R   0.385571 0.354076 0.387761 0.535780
C5    C     C_R   0.879173 0.758287 0.388603 -0.114138
C6    C     C_R   0.943480 0.618057 0.410738 -0.095463
C7    C     C_R   0.053141 0.511523 0.371325 -0.053128
C8    C     C_R   0.106531 0.545856 0.311997 0.045925
C9    C     C_R   0.362035 0.340011 0.312246 -0.003105
C10   C     C_R   0.860221 0.228961 0.295792 -0.145880
C11   C     C_R   0.882592 0.216651 0.223305 -0.130345
C12   C     C_R   0.614286 0.133245 0.164652 0.054017
C13   C     C_R   0.861593 0.334271 0.183838 0.026930
C14   C     C_R   0.814454 0.464505 0.216710 -0.138986
C15   C     C_R   0.793449 0.476364 0.288727 -0.123407
C16   C     C_R   0.773460 0.381434 0.401858 0.544950
C17   C     C_R   0.817894 0.358362 0.328874 0.029390
C18   C     C_R   0.339502 0.712745 0.272505 -0.122555
C19   C     C_R   0.336884 0.735750 0.200237 -0.143828
C20   C     C_R   0.357284 0.843846 0.175975 0.032817
C21   C     C_R   0.388929 0.923189 0.224327 -0.132618
C22   C     C_R   0.390960 0.900055 0.297210 -0.152234
C23   C     C_R   0.354990 0.331081 0.163773 -0.003576
C24   C     C_R   0.358914 0.799272 0.321214 0.037676
C25   C     C_R   0.464439 0.227337 0.715918 0.018874
C26   C     C_R   0.456367 0.239280 0.789009 -0.092866
C27   C     C_R   0.331053 0.337149 0.821655 0.005470
C28   C     C_R   0.344582 0.768577 0.604926 0.546695
C29   C     C_R   0.229865 0.452029 0.783387 -0.146609
C30   C     C_R   0.242096 0.454265 0.709938 -0.145899
C31   C     C_R   0.355311 0.339820 0.674962 0.027211
C32   C     C_R   0.782918 0.464179 0.732586 0.028656
C33   C     C_R   0.756429 0.458624 0.804274 -0.102973
C34   C     C_R   0.482582 0.244905 0.273895 -0.149474
C35   C     C_R   0.809043 0.327718 0.836196 0.003399
C36   C     C_R   0.842400 0.209324 0.793359 -0.136133
C37   C     C_R   0.831553 0.222996 0.719330 -0.149766
C38   C     C_R   0.802430 0.350630 0.687824 0.026648
C39   C     C_R   0.205398 0.820154 0.714000 -0.132236
C40   C     C_R   0.376801 0.353577 0.599494 0.542899
C41   C     C_R   0.197920 0.831394 0.787149 -0.139479
C42   C     C_R   0.303042 0.841145 0.825577 0.033081
C43   C     C_R   0.417462 0.835804 0.789989 -0.127298
C44   C     C_R   0.422922 0.828076 0.716623 -0.134443
C45   C     C_R   0.482490 0.240630 0.200484 -0.029564
C46   C     C_R   0.319367 0.816328 0.678293 0.033857
C47   C     C_R   0.912528 0.314812 0.112140 0.544369
C48   C     C_R   0.328854 0.294787 0.092405 0.532951
C49   C     C_R   0.309451 0.897914 0.104890 0.542945
C50   C     C_R   0.877183 0.310454 0.906055 0.539124
C51   C     C_R   0.301076 0.294220 0.889114 0.543797
C52   C     C_R   0.762405 0.378105 0.611804 0.539835
C53   C     C_R   0.275871 0.893133 0.898109 0.546889
C54   C     C_R   0.844561 0.924436 0.088314 -0.106651
C55   C     C_R   0.777805 0.064964 0.066433 -0.086608
C56   C     C_R   0.039158 0.687455 0.289558 -0.100647
C57   C     C_R   0.665725 0.169716 0.105349 -0.064337
C58   C     C_3   0.586941 0.094356 0.682875 -0.255278
C59   C     C_3   0.680371 0.972922 0.732250 -0.495872
C60   C     C_3   0.819470 0.574095 0.708259 -0.257463
C61   C     C_3   0.872246 0.631861 0.768321 -0.473566
C62   C     C_R   0.926167 0.792745 0.327675 -0.110413
C63   C     C_R   0.682835 0.991187 0.186418 -0.103907
C64   C     C_R   0.797447 0.887680 0.148445 -0.125540
Cr1   Cr    Cr6+3 0.601770 0.606860 0.505860 0.988624
Cr2   Cr    Cr6+3 0.291380 0.601660 0.495070 1.019425
Cr3   Cr    Cr6+3 0.606880 0.291510 0.499120 0.995870
Cr4   Cr    Cr6+3 0.062440 0.063090 0.008210 0.986803
Cr5   Cr    Cr6+3 0.062880 0.375170 0.998920 1.002913
Cr6   Cr    Cr6+3 0.374700 0.061720 0.992470 1.018414
H1    H     H_    0.581509 0.175312 0.301041 0.140619
H2    H     H_    0.542324 0.161998 0.821369 0.144199
H3    H     H_    0.143613 0.538382 0.810673 0.114270
H4    H     H_    0.163233 0.544959 0.680579 0.125530
H5    H     H_    0.725890 0.550090 0.837812 0.129450
H6    H     H_    0.884068 0.105785 0.816640 0.125076
H7    H     H_    0.854619 0.132186 0.686777 0.111236
H8    H     H_    0.123548 0.810500 0.685808 0.124491
H9    H     H_    0.876834 0.901527 0.310727 0.104860
H10   H     H_    0.107269 0.837770 0.813119 0.119060
H11   H     H_    0.499294 0.844225 0.818766 0.120159
H12   H     H_    0.793476 0.840299 0.418874 0.102516
H13   H     H_    0.508370 0.829612 0.689788 0.113582
H14   H     H_    0.615057 0.278184 0.087550 0.093911
H15   H     H_    0.797555 0.556254 0.187251 0.130101
H16   H     H_    0.311977 0.674203 0.163532 0.112316
H17   H     H_    0.847989 0.778476 0.164849 0.108542
H18   H     H_    0.411519 0.963841 0.334484 0.111407
H19   H     H_    0.745106 0.000166 0.767772 0.139111
H20   H     H_    0.615489 0.942898 0.763962 0.153866
H21   H     H_    0.753178 0.882593 0.698661 0.137641
H22   H     H_    0.541991 0.051321 0.643105 0.161641
H23   H     H_    0.909279 0.592141 0.458976 0.131644
H24   H     H_    0.659550 0.121483 0.656385 0.189955
H25   H     H_    0.782540 0.712215 0.799734 0.136194
H26   H     H_    0.943154 0.545287 0.804616 0.188601
H27   H     H_    0.930963 0.680584 0.746226 0.121170
H28   H     H_    0.907040 0.523626 0.669533 0.160016
H29   H     H_    0.728241 0.662533 0.681220 0.164275
H30   H     H_    0.931995 0.843906 0.058322 0.105878
H31   H     H_    0.812326 0.092618 0.018919 0.139433
H32   H     H_    0.076246 0.717390 0.243628 0.101995
H33   H     H_    0.645441 0.959628 0.231645 0.098080
H34   H     H_    0.100900 0.403212 0.389037 0.100133
H35   H     H_    0.138827 0.502332 0.173570 0.137491
H36   H     H_    0.875444 0.138427 0.325756 0.119889
H37   H     H_    0.920848 0.114090 0.198828 0.153303
H38   H     H_    0.754329 0.579729 0.312403 0.154520
H39   H     H_    0.324931 0.627990 0.290809 0.141602
H40   H     H_    0.400969 0.009849 0.206049 0.136313
O1    O     O_R   0.748800 0.497470 0.428000 -0.541323
O2    O     O_R   0.417600 0.174890 0.067840 -0.507565
O3    O     O_R   0.375320 0.946260 0.070860 -0.500365
O4    O     O_R   0.476420 0.724060 0.429470 -0.504811
O5    O     O_R   0.160600 0.919630 0.926660 -0.532323
O6    O     O_R   0.933060 0.190520 0.936020 -0.519667
O7    O     O_R   0.908880 0.403460 0.925020 -0.523503
O8    O     O_R   0.179600 0.361450 0.918490 -0.500602
O9    O     O_R   0.391510 0.170860 0.907530 -0.532639
O10   O     O_R   0.351130 0.942530 0.922260 -0.505070
O11   O     O_3   0.166667 0.166667 0.999870 -0.236545
O12   O     O_R   0.300070 0.471040 0.567100 -0.506246
O13   O     O_R   0.264580 0.744340 0.416750 -0.509729
O14   O     O_R   0.309380 0.472470 0.418200 -0.493389
O15   O     O_R   0.501710 0.260430 0.414300 -0.531799
O16   O     O_R   0.728090 0.305600 0.428960 -0.502724
O17   O     O_R   0.738760 0.495930 0.588610 -0.537796
O18   O     O_R   0.467110 0.722640 0.578360 -0.509119
O19   O     O_R   0.254530 0.742800 0.577360 -0.528587
O20   O     O_R   0.491670 0.258900 0.574910 -0.543165
O21   O     O_R   0.718780 0.304180 0.577850 -0.508270
O22   O     O_3   0.500010 0.500010 0.500020 -0.242911
O23   O     O_R   0.186690 0.923650 0.086970 -0.522413
O24   O     O_R   0.957250 0.194250 0.084630 -0.516963
O25   O     O_R   0.934970 0.407490 0.085330 -0.526088
O26   O     O_R   0.203780 0.365190 0.067090 -0.512872

loop_
_geom_bond_atom_site_label_1
_geom_bond_atom_site_label_2
_ccdc_geom_bond_type
Cr1   O18   S    
C25   C31   A    
C49   O3    A    
C41   C42   A    
C23   C45   A    
C27   C29   A    
C50   O7    A    
C26   H2    S    
Cr1   O4    S    
C35   C36   A    
C18   H39   S    
C19   H16   S    
C8    C56   A    
C41   H10   S    
C58   H22   S    
C21   H40   S    
C53   O10   A    
C7    C8    A    
C39   C41   A    
C28   C46   S    
C26   C27   A    
C37   C38   A    
C4    O15   A    
C18   C24   A    
Cr1   O17   S    
C36   C37   A    
C28   O19   A    
C60   H28   S    
Cr3   O15   S    
C42   C53   S    
C30   C31   A    
C30   H4    S    
C38   C52   S    
C10   C17   A    
Cr5   O8    S    
C51   O8    A    
C31   C40   S    
C4    O14   A    
C18   C19   A    
C59   H19   S    
Cr1   O1    S    
C49   O23   A    
C36   H6    S    
C33   C35   A    
C33   H5    S    
Cr3   O22   S    
Cr6   O10   S    
C16   C17   S    
C51   O9    A    
Cr2   O12   S    
C22   H18   S    
C29   C30   A    
C64   H17   S    
Cr2   O19   S    
C44   H13   S    
Cr5   O25   S    
C13   C14   A    
C54   H30   S    
C52   O17   A    
C44   C46   A    
Cr2   O22   S    
Cr6   O3    S    
Cr3   O21   S    
C61   H26   S    
C39   H8    S    
C62   H9    S    
C63   H33   S    
C3    C8    S    
Cr3   O16   S    
C13   C47   S    
C12   C63   A    
C58   C59   S    
C37   H7    S    
C60   C61   S    
C59   H20   S    
C15   H38   S    
C43   C44   A    
C1    O13   A    
C20   C49   S    
C3    C9    A    
Cr5   O11   S    
Cr6   O9    S    
C6    H23   S    
C35   C50   S    
C57   H14   S    
C34   C45   A    
C59   H21   S    
C56   C62   A    
Cr6   O2    S    
Cr4   O6    S    
C39   C46   A    
C12   C57   A    
C48   O2    A    
Cr5   O26   S    
C32   C38   A    
C7    H34   S    
C55   C57   A    
C47   O24   A    
C11   H37   S    
C9    C34   A    
C43   H11   S    
Cr2   O14   S    
C22   C24   A    
C10   H36   S    
Cr3   O20   S    
C1    O4    A    
C32   C60   S    
Cr1   O22   S    
C25   C58   S    
C15   C17   A    
C40   O20   A    
C54   C55   A    
Cr4   O23   S    
C23   C48   S    
C47   O25   A    
C14   C15   A    
C52   O21   A    
C48   O26   A    
C61   H27   S    
C14   H15   S    
C12   C45   S    
Cr4   O11   S    
C60   H29   S    
C61   H25   S    
C6    C7    A    
C40   O12   A    
C55   H31   S    
C2    H35   S    
C32   C33   A    
C19   C20   A    
Cr4   O24   S    
C2    C3    A    
C25   C26   A    
C56   H32   S    
C5    H12   S    
C11   C13   A    
Cr6   O11   S    
C5    C6    A    
C54   C64   A    
Cr5   O7    S    
C27   C51   S    
C5    C62   A    
C50   O6    A    
C58   H24   S    
C10   C11   A    
Cr4   O5    S    
C63   C64   A    
C28   O18   A    
C29   H3    S    
C20   C21   A    
C1    C24   S    
C42   C43   A    
C2    C23   A    
Cr2   O13   S    
C4    C9    S    
C21   C22   A    
C16   O16   A    
C34   H1    S    
C53   O5    A    
C16   O1    A    
