data_mof_unit_21356.cif
_audit_creation_date              2012-12-10T18:30:28-0500
_audit_creation_method            fapswitch 2.2
_symmetry_space_group_name_H-M    P1
_symmetry_Int_Tables_number       1
_space_group_crystal_system       triclinic
_cell_length_a                    15.179526
_cell_length_b                    14.133607
_cell_length_c                    15.390993
_cell_angle_alpha                 91.410015
_cell_angle_beta                  81.838824
_cell_angle_gamma                 103.667063
_cell_volume                      3175.87934683

loop_
_atom_site_label
_atom_site_type_symbol
_atom_type_description
_atom_site_fract_x
_atom_site_fract_y
_atom_site_fract_z
_atom_type_partial_charge
C1    C     C_R   0.558079 0.517069 0.338613 0.897159
C2    C     C_R   0.416092 0.405373 0.071890 -0.334012
C3    C     C_R   0.646775 0.631771 0.983213 0.461482
C4    C     C_R   0.360195 0.354245 0.013120 0.488089
C5    C     C_R   0.167131 0.380547 0.344922 0.333311
C6    C     C_R   0.841808 0.643435 0.639079 0.378823
C7    C     C_R   0.248226 0.387665 0.379751 -0.096046
C8    C     C_R   0.756305 0.625651 0.609569 -0.080441
C9    C     C_R   0.206674 0.496061 0.490696 0.519958
C10   C     C_R   0.794681 0.502193 0.511244 0.503746
C11   C     C_R   0.116433 0.475329 0.468766 -0.191586
C12   C     C_R   0.441975 0.482192 0.661251 0.792154
C13   C     C_R   0.886040 0.530189 0.530796 -0.128466
C14   C     C_R   0.102832 0.428809 0.387528 -0.003048
C15   C     C_R   0.902938 0.587522 0.605380 -0.049217
C16   C     C_R   0.498662 0.329511 0.499611 0.882061
C17   C     C_R   0.501420 0.670498 0.500243 0.844643
C18   C     C_R   0.041658 0.504494 0.519672 0.107808
C19   C     C_R   0.960750 0.500300 0.481821 0.159611
C20   C     C_R   0.961379 0.477941 0.392805 -0.227930
C21   C     C_R   0.044586 0.538248 0.606325 -0.200212
C22   C     C_R   0.027632 0.435904 0.348039 -0.158831
C23   C     C_R   0.562052 0.516199 0.098264 -0.033457
C24   C     C_R   0.979647 0.586147 0.645681 -0.186640
C25   C     C_1   0.496429 0.227260 0.498620 -0.120878
C26   C     C_1   0.504314 0.772880 0.500101 -0.196868
C27   C     C_1   0.497012 0.141981 0.498360 0.025132
C28   C     C_1   0.504069 0.858225 0.499668 0.010787
C29   C     C_1   0.499380 0.042489 0.498595 0.021955
C30   C     C_1   0.501804 0.957723 0.499050 0.023476
C31   C     C_R   0.595163 0.540631 0.246863 -0.152661
C32   C     C_R   0.405770 0.454620 0.752411 -0.206298
C33   C     C_R   0.680325 0.655345 0.133025 -0.106032
C34   C     C_R   0.441670 0.474063 0.900263 0.063164
C35   C     C_R   0.324285 0.334971 0.863774 -0.116603
C36   C     C_R   0.657419 0.630865 0.222287 -0.093248
C37   C     C_R   0.344950 0.363022 0.775189 -0.048468
C38   C     C_R   0.560463 0.476899 0.181973 -0.034287
C39   C     C_R   0.441553 0.515804 0.818057 -0.043673
C40   C     C_3   0.696948 0.779596 0.909776 0.124084
C41   C     C_3   0.759419 0.877567 0.926317 -0.792477
C42   C     C_3   0.316824 0.206967 0.088361 0.094359
C43   C     C_3   0.257135 0.105870 0.077074 -0.781434
C44   C     C_2   0.462741 0.623425 0.803731 0.368984
C45   C     C_R   0.630592 0.601018 0.071093 0.011338
C46   C     C_2   0.540291 0.369000 0.195605 0.324899
C47   C     C_2   0.304807 0.294128 0.708635 0.415139
C48   C     C_2   0.696754 0.702043 0.287630 0.386412
C49   C     C_3   0.745523 0.404922 0.392237 0.193305
C50   C     C_3   0.777816 0.321045 0.343477 -0.855333
C51   C     C_3   0.241727 0.659241 0.519285 0.095648
C52   C     C_3   0.267087 0.733553 0.590188 -0.787067
C53   C     C_2   0.693128 0.687356 0.643463 0.509366
C54   C     C_2   0.313045 0.331257 0.340747 0.579654
C55   C     C_3   0.100867 0.236796 0.284012 0.106635
C56   C     C_R   0.374484 0.387732 0.926148 -0.018205
C57   C     C_3   0.045805 0.203939 0.208918 -0.795932
C58   C     C_3   0.926087 0.795900 0.662164 0.143547
C59   C     C_3   0.935342 0.879804 0.726454 -0.758176
C60   C     C_R   0.496362 0.476276 0.042175 -0.011790
C61   C     C_R   0.508499 0.512553 0.955494 0.056667
C62   C     C_R   0.589546 0.582126 0.924849 -0.244140
H1    H     H_    0.912941 0.495854 0.355917 0.150372
H2    H     H_    0.705429 0.764970 0.838165 0.201773
H3    H     H_    0.832179 0.874737 0.908481 0.270190
H4    H     H_    0.744874 0.935010 0.886397 0.218079
H5    H     H_    0.747628 0.896229 0.996869 0.252408
H6    H     H_    0.309189 0.225275 0.159263 0.172679
H7    H     H_    0.389269 0.203795 0.065612 0.127804
H8    H     H_    0.263250 0.085971 0.006577 0.258502
H9    H     H_    0.279566 0.051752 0.114499 0.216344
H10   H     H_    0.184443 0.103775 0.101813 0.254757
H11   H     H_    0.472827 0.653754 0.738042 0.055928
H12   H     H_    0.098202 0.532137 0.643365 0.211719
H13   H     H_    0.527958 0.320442 0.140678 0.079479
H14   H     H_    0.330459 0.304211 0.639544 0.098899
H15   H     H_    0.668656 0.695514 0.356380 0.099700
H16   H     H_    0.771878 0.474879 0.355344 0.099172
H17   H     H_    0.671476 0.384695 0.390854 0.224835
H18   H     H_    0.848891 0.320743 0.351571 0.262694
H19   H     H_    0.733417 0.250420 0.369424 0.264634
H20   H     H_    0.773155 0.326141 0.272453 0.226554
H21   H     H_    0.175795 0.667336 0.500543 0.130153
H22   H     H_    0.294473 0.676674 0.460359 0.161928
H23   H     H_    0.730645 0.722057 0.113021 0.223132
H24   H     H_    0.330913 0.725790 0.613612 0.261846
H25   H     H_    0.277735 0.808348 0.563576 0.211252
H26   H     H_    0.211116 0.722096 0.646574 0.246028
H27   H     H_    0.622406 0.656381 0.666495 0.080281
H28   H     H_    0.363465 0.360451 0.285562 0.055569
H29   H     H_    0.051435 0.229461 0.345986 0.142773
H30   H     H_    0.147340 0.187483 0.288243 0.178623
H31   H     H_    0.091455 0.215470 0.145142 0.289516
H32   H     H_    0.011345 0.125474 0.216945 0.216078
H33   H     H_    0.992951 0.246439 0.208681 0.243667
H34   H     H_    0.275038 0.267200 0.882649 0.223451
H35   H     H_    0.902633 0.819612 0.602572 0.168983
H36   H     H_    0.994923 0.780963 0.643198 0.125911
H37   H     H_    0.958967 0.858942 0.786704 0.252420
H38   H     H_    0.986019 0.944439 0.695952 0.214258
H39   H     H_    0.868278 0.899035 0.744081 0.271073
H40   H     H_    0.608193 0.600385 0.855851 0.143367
H41   H     H_    0.396913 0.387196 0.140416 0.142410
H42   H     H_    0.021522 0.412656 0.281138 0.192542
H43   H     H_    0.988526 0.620241 0.708682 0.190748
H44   H     H_    0.625037 0.785167 0.931875 0.169111
N1    N     N_R   0.268300 0.449640 0.447270 -0.175653
N2    N     N_R   0.731700 0.550360 0.552730 -0.195241
O1    O     O_R   0.616880 0.525390 0.394380 -0.664254
O2    O     O_3   0.287838 0.275419 0.040283 -0.609611
O3    O     O_2   0.462906 0.679190 0.865620 -0.573673
O4    O     O_2   0.541437 0.332911 0.266582 -0.596214
O5    O     O_2   0.242398 0.223286 0.730629 -0.567561
O6    O     O_2   0.761156 0.770754 0.264942 -0.566383
O7    O     O_3   0.764761 0.408009 0.480007 -0.591131
O8    O     O_3   0.236027 0.564907 0.552239 -0.594195
O9    O     O_2   0.720498 0.775625 0.646908 -0.592070
O10   O     O_2   0.308309 0.249951 0.368794 -0.587082
O11   O     O_3   0.153845 0.332747 0.266508 -0.612689
O12   O     O_R   0.383120 0.474610 0.605620 -0.568662
O13   O     O_3   0.863359 0.713090 0.702624 -0.587645
O14   O     O_R   0.468100 0.493070 0.360490 -0.610121
O15   O     O_R   0.531900 0.506930 0.639510 -0.632726
O16   O     O_R   0.574410 0.389880 0.516950 -0.575905
O17   O     O_R   0.425590 0.610120 0.483050 -0.571590
O18   O     O_R   0.425630 0.357560 0.483060 -0.567610
O19   O     O_R   0.574370 0.642440 0.516940 -0.620183
O20   O     O_3   0.722407 0.706327 0.954759 -0.617347
Zn1   Zn    Zn3+2 0.599340 0.521580 0.522630 0.935018
Zn2   Zn    Zn3+2 0.400660 0.478420 0.477370 0.990947

loop_
_geom_bond_atom_site_label_1
_geom_bond_atom_site_label_2
_ccdc_geom_bond_type
C11   C18   A    
C34   C56   A    
C43   H10   S    
C23   C45   A    
C46   O4    D    
C27   C29   S    
C18   C21   A    
C59   H37   S    
C10   N2    A    
C19   C20   A    
C58   H36   S    
C4    C56   A    
C22   H42   S    
C41   H5    S    
C55   O11   S    
C35   H34   S    
C29   C30   T    
C5    O11   S    
O12   Zn2   S    
C17   C26   S    
C40   H44   S    
C35   C37   A    
C47   H14   S    
C54   H28   S    
C11   C14   A    
C2    C60   A    
O18   Zn2   S    
C40   O20   S    
C1    C31   S    
C33   C36   A    
C33   C45   A    
C49   H16   S    
C18   C19   A    
C32   C39   A    
C33   H23   S    
C1    O14   A    
C55   H29   S    
C1    O1    A    
C6    C15   A    
C12   O12   A    
O17   Zn2   S    
C37   C47   S    
C57   H31   S    
O15   Zn1   S    
C42   H6    S    
C59   H38   S    
C61   C62   A    
C58   H35   S    
N1    Zn2   S    
C8    N2    A    
C46   H13   S    
C23   C60   A    
C13   C19   A    
C51   C52   S    
C59   H39   S    
C52   H26   S    
C5    C7    A    
C3    O20   S    
C17   O19   A    
C41   H3    S    
C58   C59   S    
C21   H12   S    
C3    C45   A    
C34   C61   A    
C34   C39   A    
C60   C61   A    
C48   H15   S    
C2    C4    A    
O19   Zn1   S    
C55   H30   S    
C6    O13   S    
N2    Zn1   S    
C32   C37   A    
C9    C11   A    
C5    C14   A    
C41   H4    S    
C40   C41   S    
C49   O7    S    
C20   C22   A    
C43   H8    S    
C57   H32   S    
C55   C57   S    
C53   H27   S    
C7    N1    A    
C9    N1    A    
C42   C43   S    
C54   O10   D    
C51   H21   S    
C50   H20   S    
C48   O6    D    
C3    C62   A    
C16   C25   S    
C47   O5    D    
C4    O2    S    
C15   C24   A    
C58   O13   S    
C43   H9    S    
C35   C56   A    
C9    O8    S    
C52   H25   S    
C10   C13   A    
C50   H18   S    
C8    C53   S    
C6    C8    A    
C39   C44   S    
C25   C27   T    
C23   C38   A    
C26   C28   T    
C51   O8    S    
C40   H2    S    
C31   C38   A    
C14   C22   A    
C20   H1    S    
C13   C15   A    
C16   O16   A    
C28   C30   S    
O1    Zn1   S    
C17   O17   A    
C12   O15   A    
C2    H41   S    
C52   H24   S    
O16   Zn1   S    
C36   C48   S    
C53   O9    D    
C42   H7    S    
C42   O2    S    
C44   H11   S    
C38   C46   S    
C44   O3    D    
C49   H17   S    
C49   C50   S    
C57   H33   S    
C21   C24   A    
C31   C36   A    
C24   H43   S    
C7    C54   S    
C16   O18   A    
C51   H22   S    
O14   Zn2   S    
C12   C32   S    
C10   O7    S    
C50   H19   S    
C62   H40   S    
