data_mof_unit_24067.cif
_audit_creation_date              2012-12-10T18:08:22-0500
_audit_creation_method            fapswitch 2.2
_symmetry_space_group_name_H-M    P1
_symmetry_Int_Tables_number       1
_space_group_crystal_system       triclinic
_cell_length_a                    12.692789
_cell_length_b                    13.078199
_cell_length_c                    14.125271
_cell_angle_alpha                 91.886103
_cell_angle_beta                  102.149287
_cell_angle_gamma                 82.155323
_cell_volume                      2270.78841895

loop_
_atom_site_label
_atom_site_type_symbol
_atom_type_description
_atom_site_fract_x
_atom_site_fract_y
_atom_site_fract_z
_atom_type_partial_charge
C1    C     C_R   0.439164 0.691235 0.492547 0.829723
C2    C     C_1   0.496262 0.498867 0.227387 -0.221322
C3    C     C_R   0.686946 0.077737 0.659903 0.497796
C4    C     C_R   0.596076 0.201658 0.535919 -0.127973
C5    C     C_R   0.304780 0.835360 0.418791 -0.207180
C6    C     C_R   0.278163 0.939430 0.396367 -0.141367
C7    C     C_R   0.349733 0.008595 0.436116 -0.187637
C8    C     C_R   0.447217 0.974761 0.503415 0.118380
C9    C     C_R   0.464846 0.872517 0.536792 0.106655
C10   C     C_R   0.527590 0.039127 0.538898 0.029679
C11   C     C_R   0.612306 0.008774 0.620078 0.045124
C12   C     C_R   0.501626 0.499950 0.670541 0.852614
C13   C     C_R   0.619523 0.911262 0.660341 -0.241452
C14   C     C_R   0.547317 0.843698 0.618772 -0.229036
C15   C     C_R   0.526374 0.132518 0.494322 -0.252742
C16   C     C_R   0.679274 0.173477 0.616092 -0.284866
C17   C     C_R   0.399999 0.801118 0.486342 -0.123343
C18   C     C_R   0.090363 0.353288 0.355936 -0.249364
C19   C     C_R   0.792926 0.641298 0.598897 0.044521
C20   C     C_R   0.883753 0.688813 0.598923 -0.262611
C21   C     C_R   0.960874 0.641733 0.549280 -0.113685
C22   C     C_R   0.953227 0.542866 0.508135 0.044614
C23   C     C_R   0.560711 0.309013 0.511346 0.877295
C24   C     C_R   0.853057 0.505421 0.498201 0.174152
C25   C     C_R   0.036939 0.485031 0.469363 -0.183449
C26   C     C_R   0.010274 0.404898 0.401504 0.027990
C27   C     C_R   0.905484 0.374907 0.382427 0.459849
C28   C     C_R   0.830367 0.421910 0.436260 -0.335994
C29   C     C_R   0.147792 0.498093 0.501228 0.619235
C30   C     C_R   0.195576 0.376910 0.381698 -0.107773
C31   C     C_R   0.498554 0.499759 0.329492 0.879062
C32   C     C_1   0.504692 0.499498 0.772730 -0.197176
C33   C     C_1   0.504735 0.498694 0.858119 -0.001979
C34   C     C_1   0.502721 0.497871 0.957764 0.004031
C35   C     C_1   0.500162 0.497657 0.042653 0.003701
C36   C     C_1   0.497271 0.498102 0.142155 -0.012925
H1    H     H_    0.732995 0.228340 0.648954 0.173232
H2    H     H_    0.072526 0.294688 0.301103 0.197651
H3    H     H_    0.730079 0.678362 0.634134 0.133044
H4    H     H_    0.018708 0.687907 0.534749 0.131012
H5    H     H_    0.891325 0.763892 0.632330 0.161658
H6    H     H_    0.753954 0.394072 0.427835 0.212676
H7    H     H_    0.682273 0.885884 0.722733 0.171901
H8    H     H_    0.468195 0.155904 0.428718 0.150151
H9    H     H_    0.253003 0.781253 0.380834 0.153800
H10   H     H_    0.325353 0.088359 0.415233 0.135454
H11   H     H_    0.204157 0.965977 0.344861 0.147942
H12   H     H_    0.555153 0.769187 0.652523 0.147570
H13   H     H_    0.257617 0.338801 0.345767 0.155565
N1    N     N_R   0.222200 0.444680 0.454480 -0.126169
N2    N     N_R   0.776970 0.554780 0.545050 -0.112793
O1    O     O_R   0.366740 0.627160 0.478260 -0.630836
O2    O     O_R   0.544830 0.662520 0.507340 -0.598217
O3    O     O_R   0.410930 0.482320 0.611740 -0.549115
O4    O     O_R   0.589030 0.517680 0.640820 -0.607169
O5    O     O_R   0.455170 0.337480 0.492660 -0.597778
O6    O     O_R   0.633260 0.372840 0.521740 -0.632232
O7    O     O_R   0.410970 0.482320 0.359180 -0.597173
O8    O     O_R   0.589070 0.517680 0.388260 -0.602116
Zn1   Zn    Zn3+2 0.381090 0.476390 0.480580 0.951010
Zn2   Zn    Zn3+2 0.618910 0.523610 0.519420 0.921431
O9    O     O_3   0.886406 0.289740 0.322019 -0.653687
C37   C     C_3   0.778225 0.293750 0.268391 0.069721
H14   H     H_    0.782393 0.274748 0.191909 0.167435
H15   H     H_    0.729136 0.371399 0.266097 0.132868
C38   C     C_3   0.722628 0.211255 0.305994 -0.330630
H16   H     H_    0.768612 0.134011 0.297572 0.233932
H17   H     H_    0.723492 0.223835 0.384216 0.223548
C39   C     C_3   0.605423 0.212102 0.251073 -0.966628
H18   H     H_    0.555884 0.285600 0.264520 0.257407
H19   H     H_    0.570169 0.147624 0.276646 0.265628
H20   H     H_    0.602084 0.202452 0.172103 0.272043
O10   O     O_3   0.183116 0.534884 0.594629 -0.596809
C40   C     C_3   0.212008 0.635744 0.595715 -0.211433
H21   H     H_    0.192595 0.673846 0.523578 0.123918
H22   H     H_    0.298432 0.636474 0.629798 0.190439
H23   H     H_    0.169086 0.684429 0.645357 0.148863
O11   O     O_3   0.767074 0.053167 0.741866 -0.652924
C41   C     C_3   0.723300 0.075021 0.825932 0.055501
H24   H     H_    0.770520 0.020968 0.883353 0.172153
H25   H     H_    0.636756 0.061154 0.815991 0.127591
C42   C     C_3   0.735052 0.185893 0.861351 -0.338012
H26   H     H_    0.821029 0.199495 0.869282 0.237553
H27   H     H_    0.683029 0.241450 0.807693 0.211990
C43   C     C_3   0.701008 0.205980 0.958460 -0.959380
H28   H     H_    0.614759 0.194060 0.951855 0.267824
H29   H     H_    0.709549 0.286946 0.981600 0.266012
H30   H     H_    0.753348 0.153479 0.014749 0.262038

loop_
_geom_bond_atom_site_label_1
_geom_bond_atom_site_label_2
_ccdc_geom_bond_type
C38   H17   S    
C37   H15   S    
O10   C40   S    
C35   C36   S    
N2    Zn2   S    
C20   H5    S    
C7    C8    A    
O3    Zn1   S    
C43   H28   S    
C26   C27   A    
C40   H22   S    
C31   O7    A    
C15   H8    S    
C10   C15   A    
C5    C6    A    
C38   C39   S    
C5    C17   A    
O7    Zn1   S    
C34   C35   T    
C31   O8    A    
C39   H19   S    
C1    O2    A    
O1    Zn1   S    
O2    Zn2   S    
C19   C20   A    
C8    C9    A    
C40   H23   S    
C18   C26   A    
C18   C30   A    
C16   H1    S    
C24   N2    A    
C38   H16   S    
C30   N1    A    
C37   C38   S    
C21   C22   A    
C12   C32   S    
C29   N1    A    
C43   H29   S    
C25   C29   A    
O8    Zn2   S    
C6    H11   S    
C7    H10   S    
C23   O5    A    
C41   H24   S    
C40   H21   S    
C41   H25   S    
C4    C23   S    
O11   C41   S    
C14   H12   S    
C25   C26   A    
C5    H9    S    
C22   C25   A    
O5    Zn1   S    
C2    C31   S    
C4    C16   A    
C39   H20   S    
C9    C14   A    
O9    C37   S    
C27   O9    S    
C33   C34   S    
C19   H3    S    
C9    C17   A    
C30   H13   S    
C42   H27   S    
C22   C24   A    
C13   H7    S    
C43   H30   S    
C2    C36   T    
C23   O6    A    
C24   C28   A    
C41   C42   S    
O6    Zn2   S    
C6    C7    A    
C42   C43   S    
C1    C17   S    
N1    Zn1   S    
C32   C33   T    
C4    C15   A    
C18   H2    S    
C11   C13   A    
C21   H4    S    
O4    Zn2   S    
C28   H6    S    
C39   H18   S    
C1    O1    A    
C12   O4    A    
C3    C11   A    
C10   C11   A    
C37   H14   S    
C19   N2    A    
C29   O10   S    
C20   C21   A    
C8    C10   A    
C42   H26   S    
C27   C28   A    
C13   C14   A    
C3    O11   S    
C12   O3    A    
C3    C16   A    
