data_mof_unit_29206.cif
_audit_creation_date              2012-12-10T20:53:01-0500
_audit_creation_method            fapswitch 2.2
_symmetry_space_group_name_H-M    P1
_symmetry_Int_Tables_number       1
_space_group_crystal_system       triclinic
_cell_length_a                    18.381241
_cell_length_b                    18.380383
_cell_length_c                    18.380329
_cell_angle_alpha                 59.749003
_cell_angle_beta                  59.747863
_cell_angle_gamma                 59.744952
_cell_volume                      4365.84257672

loop_
_atom_site_label
_atom_site_type_symbol
_atom_type_description
_atom_site_fract_x
_atom_site_fract_y
_atom_site_fract_z
_atom_type_partial_charge
C1    C     C_R   0.390138 0.108448 0.111747 0.803080
C2    C     C_R   0.411709 0.789233 0.746407 -0.122192
C3    C     C_R   0.030938 0.576265 0.916616 0.048292
C4    C     C_R   0.421058 0.055217 0.996820 0.039080
C5    C     C_R   0.576727 0.916907 0.030717 0.048396
C6    C     C_R   0.927627 0.965425 0.548350 -0.204301
C7    C     C_R   0.044303 0.064283 0.445353 -0.169077
C8    C     C_R   0.965359 0.548297 0.927695 -0.204118
C9    C     C_R   0.064276 0.445327 0.044312 -0.169080
C10   C     C_R   0.548409 0.927266 0.965746 -0.204679
C11   C     C_R   0.445289 0.044166 0.064379 -0.169492
C12   C     C_3   0.887642 0.964048 0.398975 -0.331793
C13   C     C_R   0.190272 0.176265 0.670588 -0.140010
C14   C     C_3   0.883586 0.035450 0.307959 -0.935170
C15   C     C_3   0.944162 0.260358 0.457273 -0.415363
C16   C     C_3   0.902444 0.285559 0.390434 -0.908467
C17   C     C_3   0.963451 0.398772 0.888316 -0.331526
C18   C     C_3   0.034621 0.307576 0.884575 -0.935362
C19   C     C_3   0.260525 0.456703 0.944185 -0.415717
C20   C     C_3   0.285491 0.389279 0.903272 -0.907674
C21   C     C_3   0.399799 0.884942 0.966176 -0.331984
C22   C     C_3   0.309478 0.879628 0.038450 -0.935968
C23   C     C_3   0.457575 0.944255 0.260245 -0.415121
C24   C     C_R   0.789136 0.746412 0.411626 -0.122289
C25   C     C_3   0.390872 0.902390 0.285397 -0.908341
C26   C     C_R   0.143852 0.622099 0.280692 -0.161339
C27   C     C_R   0.797521 0.454273 0.704545 -0.115196
C28   C     C_R   0.622297 0.280758 0.143791 -0.161535
C29   C     C_R   0.454224 0.704693 0.797589 -0.114911
C30   C     C_R   0.280726 0.144012 0.622089 -0.161024
C31   C     C_R   0.704633 0.797602 0.454186 -0.115054
C32   C     C_R   0.074857 0.590076 0.311476 0.139331
C33   C     C_R   0.609002 0.884401 0.895869 0.799097
C34   C     C_R   0.891266 0.420780 0.678875 0.154541
C35   C     C_R   0.590096 0.311470 0.074938 0.139321
C36   C     C_R   0.420721 0.678915 0.891343 0.154199
C37   C     C_R   0.311485 0.075010 0.590067 0.139184
C38   C     C_R   0.678895 0.891354 0.420732 0.154427
C39   C     C_R   0.037612 0.608351 0.250957 -0.102721
C40   C     C_R   0.932714 0.343627 0.738029 -0.162883
C41   C     C_R   0.608312 0.250893 0.037789 -0.102465
C42   C     C_R   0.343533 0.738008 0.932849 -0.163345
C43   C     C_R   0.250948 0.037763 0.608394 -0.102635
C44   C     C_R   0.108407 0.111814 0.390142 0.803218
C45   C     C_R   0.737999 0.932855 0.343574 -0.163023
C46   C     C_R   0.070368 0.656347 0.160559 -0.118728
C47   C     C_R   0.881399 0.301032 0.822156 -0.162482
C48   C     C_R   0.656395 0.160516 0.070515 -0.118754
C49   C     C_R   0.300986 0.822220 0.881589 -0.162731
C50   C     C_R   0.160564 0.070521 0.656430 -0.118666
C51   C     C_R   0.822154 0.881587 0.300955 -0.162640
C52   C     C_R   0.139411 0.687591 0.130243 -0.126726
C53   C     C_R   0.788332 0.335360 0.847751 -0.128201
C54   C     C_R   0.687813 0.130277 0.139412 -0.126872
C55   C     C_R   0.884543 0.895747 0.608979 0.799248
C56   C     C_R   0.335343 0.847929 0.788515 -0.127909
C57   C     C_R   0.130276 0.139562 0.687676 -0.126933
C58   C     C_R   0.847823 0.788513 0.335253 -0.128269
C59   C     C_R   0.985917 0.591491 0.464418 -0.273472
C60   C     C_R   0.004145 0.411100 0.533221 -0.266978
C61   C     C_R   0.591484 0.464419 0.985942 -0.273454
C62   C     C_R   0.411101 0.533218 0.004160 -0.267048
C63   C     C_R   0.464430 0.986009 0.591473 -0.273443
C64   C     C_R   0.533214 0.004180 0.411102 -0.266986
C65   C     C_R   0.940410 0.553395 0.554327 -0.056451
C66   C     C_R   0.111820 0.390139 0.108404 0.803496
C67   C     C_R   0.050557 0.448906 0.443645 -0.047814
C68   C     C_R   0.553387 0.554330 0.940421 -0.056403
C69   C     C_R   0.448909 0.443639 0.050578 -0.047886
C70   C     C_R   0.554331 0.940457 0.553386 -0.056526
C71   C     C_R   0.443641 0.050608 0.448905 -0.047754
C72   C     C_R   0.946439 0.462962 0.588341 -0.004259
C73   C     C_R   0.038040 0.541532 0.407662 -0.010024
C74   C     C_R   0.462946 0.588348 0.946461 -0.004152
C75   C     C_R   0.541533 0.407657 0.038084 -0.009992
C76   C     C_R   0.588341 0.946485 0.462950 -0.004205
C77   C     C_R   0.895718 0.608967 0.884574 0.799248
C78   C     C_R   0.407668 0.038147 0.541519 -0.010062
C79   C     C_R   0.109489 0.390702 0.389559 0.786883
C80   C     C_R   0.888103 0.609723 0.610153 0.790919
C81   C     C_R   0.390703 0.389559 0.109497 0.786895
C82   C     C_R   0.609721 0.610152 0.888106 0.790822
C83   C     C_R   0.389558 0.109504 0.390702 0.786858
C84   C     C_R   0.610153 0.888115 0.609721 0.790880
C85   C     C_R   0.134192 0.961100 0.357017 -0.135485
C86   C     C_R   0.851859 0.044400 0.657825 -0.164087
C87   C     C_R   0.960878 0.357232 0.134496 -0.135669
C88   C     C_R   0.176108 0.670544 0.190227 -0.139852
C89   C     C_R   0.044747 0.657459 0.851451 -0.164227
C90   C     C_R   0.355948 0.132834 0.962175 -0.135401
C91   C     C_R   0.658316 0.852402 0.044050 -0.164298
C92   C     C_R   0.134325 0.908736 0.322390 -0.187175
C93   C     C_R   0.836617 0.114283 0.679506 -0.196299
C94   C     C_R   0.908246 0.322739 0.134880 -0.187320
C95   C     C_R   0.114881 0.678942 0.835909 -0.196105
C96   C     C_R   0.320851 0.132021 0.910821 -0.187556
C97   C     C_R   0.680057 0.837465 0.113769 -0.196392
C98   C     C_R   0.054537 0.899090 0.344443 -0.161424
C99   C     C_R   0.746284 0.411744 0.789023 -0.122323
C100  C     C_R   0.876499 0.178758 0.616572 -0.185798
C101  C     C_R   0.898408 0.344749 0.055204 -0.161588
C102  C     C_R   0.179339 0.615960 0.875809 -0.185709
C103  C     C_R   0.343230 0.051839 0.901718 -0.161192
C104  C     C_R   0.617012 0.877209 0.178347 -0.186173
C105  C     C_R   0.976959 0.934352 0.408046 0.216156
C106  C     C_R   0.935804 0.172181 0.531935 0.219314
C107  C     C_R   0.933819 0.408144 0.977474 0.216008
C108  C     C_R   0.172503 0.531488 0.935450 0.218914
C109  C     C_R   0.407657 0.974884 0.936330 0.217019
C110  C     C_R   0.670849 0.190314 0.176004 -0.140134
C111  C     C_R   0.532223 0.936144 0.171981 0.219547
C112  C     C_R   0.984948 0.965079 0.460102 0.027211
C113  C     C_R   0.967030 0.090029 0.517011 0.059371
C114  C     C_R   0.964822 0.460143 0.985206 0.027220
C115  C     C_R   0.090183 0.516792 0.966865 0.059417
C116  C     C_R   0.459864 0.983897 0.966028 0.027611
C117  C     C_R   0.517201 0.967167 0.089946 0.059833
C118  C     C_R   0.056020 0.996155 0.421506 0.039468
C119  C     C_R   0.916781 0.030789 0.576469 0.048344
C120  C     C_R   0.995995 0.421589 0.056204 0.039477
H1    H     H_    0.855030 0.237807 0.631759 0.135377
H2    H     H_    0.341337 0.559738 0.010006 0.167974
H3    H     H_    0.437403 0.979839 0.661366 0.173061
H4    H     H_    0.559729 0.010007 0.341342 0.167871
H5    H     H_    0.194917 0.974291 0.332632 0.147344
H6    H     H_    0.809035 0.004621 0.704617 0.176038
H7    H     H_    0.974244 0.332836 0.195117 0.147338
H8    H     H_    0.004915 0.704249 0.808669 0.175807
H9    H     H_    0.331381 0.193824 0.974968 0.148025
H10   H     H_    0.705229 0.809628 0.004229 0.176321
H11   H     H_    0.194002 0.882896 0.272407 0.145610
H12   H     H_    0.051495 0.870677 0.307169 0.138399
H13   H     H_    0.787461 0.122868 0.742656 0.149923
H14   H     H_    0.882351 0.272863 0.194662 0.145626
H15   H     H_    0.123636 0.741964 0.786548 0.149887
H16   H     H_    0.270335 0.191249 0.885370 0.145666
H17   H     H_    0.743360 0.788603 0.122176 0.149971
H18   H     H_    0.163846 0.725505 0.060374 0.123613
H19   H     H_    0.749126 0.302507 0.913043 0.137731
H20   H     H_    0.725810 0.060428 0.163808 0.123549
H21   H     H_    0.302525 0.913284 0.749350 0.137664
H22   H     H_    0.060420 0.163987 0.725631 0.123530
H23   H     H_    0.238530 0.630986 0.854169 0.135267
H24   H     H_    0.913139 0.749345 0.302383 0.137741
H25   H     H_    0.229254 0.695146 0.166840 0.120696
H26   H     H_    0.674088 0.437797 0.808817 0.124726
H27   H     H_    0.695615 0.166978 0.229025 0.120743
H28   H     H_    0.437773 0.809106 0.674206 0.124708
H29   H     H_    0.166893 0.229404 0.695217 0.120774
H30   H     H_    0.808982 0.674211 0.437649 0.124757
H31   H     H_    0.172369 0.609672 0.326689 0.125638
H32   H     H_    0.764407 0.512922 0.659133 0.089177
H33   H     H_    0.609947 0.326801 0.172213 0.125659
H34   H     H_    0.869782 0.307541 0.052358 0.138368
H35   H     H_    0.512881 0.659325 0.764424 0.089134
H36   H     H_    0.326738 0.172524 0.609632 0.125706
H37   H     H_    0.659257 0.764447 0.512830 0.089165
H38   H     H_    0.983289 0.585355 0.274023 0.112622
H39   H     H_    0.004743 0.316949 0.718709 0.121458
H40   H     H_    0.585210 0.273900 0.983556 0.112658
H41   H     H_    0.316805 0.718596 0.004880 0.122215
H42   H     H_    0.273992 0.983429 0.585414 0.112659
H43   H     H_    0.718620 0.004891 0.316910 0.121702
H44   H     H_    0.041833 0.669823 0.114132 0.130554
H45   H     H_    0.632266 0.855918 0.237302 0.135440
H46   H     H_    0.913753 0.241600 0.867595 0.135065
H47   H     H_    0.669817 0.114046 0.042057 0.130662
H48   H     H_    0.241574 0.867636 0.913994 0.134472
H49   H     H_    0.114126 0.041981 0.669945 0.130623
H50   H     H_    0.867559 0.913982 0.241529 0.134937
H51   H     H_    0.901489 0.090974 0.295862 0.269170
H52   H     H_    0.929945 0.006512 0.253461 0.258944
H53   H     H_    0.814794 0.063474 0.306526 0.243577
H54   H     H_    0.876493 0.905637 0.407798 0.235516
H55   H     H_    0.831820 0.995198 0.449777 0.218769
H56   H     H_    0.305756 0.048023 0.874107 0.138351
H57   H     H_    0.939754 0.236415 0.354917 0.261182
H58   H     H_    0.831683 0.288056 0.425382 0.268954
H59   H     H_    0.904182 0.352606 0.340481 0.238717
H60   H     H_    0.907971 0.315725 0.485043 0.190468
H61   H     H_    0.012746 0.262093 0.421841 0.224095
H62   H     H_    0.005485 0.253245 0.931132 0.258970
H63   H     H_    0.062609 0.305880 0.815890 0.243666
H64   H     H_    0.090206 0.295427 0.902419 0.269030
H65   H     H_    0.904977 0.407686 0.877205 0.235369
H66   H     H_    0.994798 0.449366 0.832347 0.218949
H67   H     H_    0.979726 0.661391 0.437381 0.172914
H68   H     H_    0.236046 0.354103 0.940779 0.261223
H69   H     H_    0.288341 0.423675 0.832400 0.268756
H70   H     H_    0.352325 0.339070 0.905525 0.238474
H71   H     H_    0.316071 0.484267 0.907662 0.190419
H72   H     H_    0.262154 0.421813 0.012808 0.224209
H73   H     H_    0.254350 0.925191 0.010299 0.258904
H74   H     H_    0.309106 0.810413 0.066568 0.243609
H75   H     H_    0.297538 0.897777 0.093741 0.268919
H76   H     H_    0.408327 0.873654 0.907982 0.235958
H77   H     H_    0.451383 0.829689 0.996549 0.218187
H78   H     H_    0.009991 0.341335 0.559742 0.167919
H79   H     H_    0.425949 0.831654 0.287798 0.268946
H80   H     H_    0.340904 0.904033 0.352465 0.238704
H81   H     H_    0.355312 0.939671 0.236298 0.261191
H82   H     H_    0.485406 0.908045 0.315567 0.190434
H83   H     H_    0.421994 0.012801 0.262110 0.224245
H84   H     H_    0.661381 0.437386 0.979752 0.172848
O1    O     O_3   0.250000 0.250000 0.250000 -0.481191
O2    O     O_R   0.865800 0.694910 0.573470 -0.644942
O3    O     O_R   0.305090 0.426530 0.134200 -0.646324
O4    O     O_R   0.694910 0.573470 0.865800 -0.644950
O5    O     O_R   0.426530 0.134200 0.305090 -0.646362
O6    O     O_R   0.573470 0.865800 0.694910 -0.644711
O7    O     O_R   0.134190 0.426530 0.134200 -0.655847
O8    O     O_R   0.865810 0.573470 0.865800 -0.662657
O9    O     O_R   0.426530 0.134200 0.134190 -0.655814
O10   O     O_R   0.573470 0.865800 0.865810 -0.662334
O11   O     O_R   0.134200 0.134190 0.426530 -0.655916
O12   O     O_3   0.750000 0.750000 0.750000 -0.469086
O13   O     O_R   0.865800 0.865810 0.573470 -0.662549
O14   O     O_R   0.426530 0.305080 0.134210 -0.633463
O15   O     O_R   0.573470 0.694920 0.865790 -0.643107
O16   O     O_R   0.305080 0.134210 0.426530 -0.633431
O17   O     O_R   0.694920 0.865790 0.573470 -0.642804
O18   O     O_R   0.134210 0.426530 0.305080 -0.633410
O19   O     O_R   0.865790 0.573470 0.694920 -0.642731
O20   O     O_R   0.305080 0.134200 0.134200 -0.636826
O21   O     O_R   0.694920 0.865800 0.865800 -0.649961
O22   O     O_R   0.134200 0.134200 0.305080 -0.636578
O23   O     O_R   0.865800 0.865800 0.694920 -0.649809
O24   O     O_R   0.134200 0.305080 0.134200 -0.636783
O25   O     O_R   0.865800 0.694920 0.865800 -0.649831
O26   O     O_R   0.134200 0.305090 0.426530 -0.646307
Zn1   Zn    Zn3+2 0.206620 0.206630 0.380140 0.956612
Zn2   Zn    Zn3+2 0.793380 0.793370 0.619860 0.946493
Zn3   Zn    Zn3+2 0.206630 0.380140 0.206620 0.956669
Zn4   Zn    Zn3+2 0.793370 0.619860 0.793380 0.946385
Zn5   Zn    Zn3+2 0.380140 0.206620 0.206630 0.956601
Zn6   Zn    Zn3+2 0.619860 0.793380 0.793370 0.946442
Zn7   Zn    Zn3+2 0.206620 0.206620 0.206620 0.952000
Zn8   Zn    Zn3+2 0.793380 0.793380 0.793380 0.944845

loop_
_geom_bond_atom_site_label_1
_geom_bond_atom_site_label_2
_ccdc_geom_bond_type
C101  C107  A    
C40   C47   A    
C80   O2    A    
O18   Zn3   S    
C26   C32   A    
C27   H32   S    
C34   C72   S    
C89   C95   A    
C86   H6    S    
C44   O11   A    
O12   Zn4   S    
C40   H39   S    
C36   C42   A    
C19   C20   S    
C1    C11   S    
C6    C55   S    
C82   O4    A    
C42   H41   S    
C92   C98   A    
O9    Zn5   S    
C55   O13   A    
C91   H10   S    
C38   C76   S    
C53   C99   A    
C48   C54   A    
C29   C36   A    
C35   C75   S    
C98   C105  A    
C57   H22   S    
C1    O20   A    
O11   Zn1   S    
C101  H34   S    
C15   C106  S    
C26   H31   S    
C86   C93   A    
C98   H12   S    
O14   Zn5   S    
C14   H53   S    
C25   H81   S    
C84   O17   A    
C17   C107  S    
C61   H84   S    
C20   H70   S    
C12   C105  S    
C84   O6    A    
C64   C71   A    
C13   C57   A    
C45   C51   A    
C68   C74   A    
C15   C16   S    
C87   C94   A    
C46   C52   A    
C54   C110  A    
C100  H1    S    
C32   C39   A    
C55   O23   A    
C9    C66   S    
C38   C45   A    
C77   O8    A    
C94   H14   S    
C104  H45   S    
C113  C119  A    
C90   H9    S    
C85   H5    S    
C54   H20   S    
C82   O15   A    
C112  C118  A    
C28   C35   A    
C17   H65   S    
C52   H18   S    
C88   H25   S    
C94   C101  A    
C22   H73   S    
C102  C108  A    
C86   C119  A    
C67   C73   A    
O6    Zn6   S    
C50   H49   S    
C70   C84   S    
O20   Zn7   S    
C59   C73   A    
C4    C90   A    
C109  C116  A    
C95   C102  A    
C60   H78   S    
C19   H72   S    
C47   C53   A    
C19   C108  S    
C30   H36   S    
C103  C109  A    
C21   H76   S    
C65   C80   S    
C46   H44   S    
C21   C22   S    
O21   Zn8   S    
C7    C118  A    
C85   C118  A    
C6    C112  A    
C2    H28   S    
C29   H35   S    
C87   H7    S    
C85   C92   A    
C16   H58   S    
C71   C83   S    
C27   C34   A    
O22   Zn7   S    
C23   H82   S    
O2    Zn2   S    
C9    C115  A    
C13   C30   A    
O1    Zn5   S    
C92   H11   S    
C67   C79   S    
C26   C88   A    
C60   C67   A    
C49   H48   S    
C14   H52   S    
C3    C8    A    
C20   H69   S    
C47   H46   S    
C4    C116  A    
C106  C113  A    
C28   C110  A    
C64   H4    S    
O23   Zn8   S    
C61   C75   A    
O7    Zn3   S    
C30   C37   A    
C5    C117  A    
C37   C43   A    
O1    Zn7   S    
C89   H8    S    
O5    Zn5   S    
C79   O26   A    
C25   H79   S    
O19   Zn4   S    
C20   H68   S    
C41   H40   S    
O8    Zn4   S    
C63   C70   A    
C18   H64   S    
C17   H66   S    
C22   H74   S    
C27   C99   A    
C95   H15   S    
C17   C18   S    
C64   C76   A    
C51   C58   A    
C31   H37   S    
C7    C44   S    
C91   C97   A    
C4    C11   A    
C59   H67   S    
C93   C100  A    
C83   O5    A    
C24   H30   S    
C39   C46   A    
C56   H21   S    
C62   C69   A    
C87   C120  A    
C99   H26   S    
C12   C14   S    
C12   H55   S    
C39   H38   S    
C1    O9    A    
C8    C77   S    
O12   Zn6   S    
C34   C40   A    
C22   H75   S    
O1    Zn1   S    
C102  H23   S    
C66   O24   A    
C110  H27   S    
C11   C117  A    
O4    Zn4   S    
C6    C119  A    
C62   H2    S    
C10   C116  A    
C16   H57   S    
C108  C115  A    
C79   O18   A    
C12   H54   S    
C107  C114  A    
C36   C74   S    
O16   Zn1   S    
C53   H19   S    
C50   C57   A    
C77   O25   A    
O15   Zn6   S    
C105  C112  A    
C51   H50   S    
O10   Zn6   S    
C81   O3    A    
C21   H77   S    
C14   H51   S    
C96   H16   S    
C104  C111  A    
C63   H3    S    
C33   O10   A    
C16   H59   S    
C43   C50   A    
C90   C96   A    
C8    C114  A    
C100  C106  A    
C65   C72   A    
C23   C111  S    
C37   C78   S    
C33   O21   A    
C66   O7    A    
C31   C38   A    
C3    C89   A    
C111  C117  A    
O12   Zn8   S    
C7    C113  A    
O1    Zn3   S    
C45   H43   S    
C24   C31   A    
C68   C82   S    
C5    C10   A    
O13   Zn2   S    
C49   C56   A    
C3    C115  A    
C59   C65   A    
C80   O19   A    
C70   C76   A    
C83   O16   A    
C61   C68   A    
C28   H33   S    
C48   H47   S    
C18   H63   S    
C18   H62   S    
C81   O14   A    
C15   H61   S    
O17   Zn2   S    
C103  H56   S    
O12   Zn2   S    
C41   C48   A    
C93   H13   S    
C69   C75   A    
C10   C33   S    
C23   C25   S    
O3    Zn3   S    
O26   Zn1   S    
C35   C41   A    
C52   C88   A    
C97   H17   S    
C97   C104  A    
C69   C81   S    
C42   C49   A    
C13   H29   S    
C43   H42   S    
C58   H24   S    
O24   Zn7   S    
C2    C29   A    
C5    C91   A    
C24   C58   A    
C96   C103  A    
C23   H83   S    
C25   H80   S    
C9    C120  A    
C60   C72   A    
C62   C74   A    
C2    C56   A    
O25   Zn8   S    
C15   H60   S    
C44   O22   A    
C32   C73   S    
C71   C78   A    
C114  C120  A    
C19   H71   S    
C21   C109  S    
C63   C78   A    
