data_mof_unit_63928.cif
_audit_creation_date              2012-12-11T15:16:02-0500
_audit_creation_method            fapswitch 2.2
_symmetry_space_group_name_H-M    P1
_symmetry_Int_Tables_number       1
_space_group_crystal_system       triclinic
_cell_length_a                    14.08761
_cell_length_b                    14.087594
_cell_length_c                    28.090568
_cell_angle_alpha                 90.001227
_cell_angle_beta                  90.001194
_cell_angle_gamma                 120.001682
_cell_volume                      4827.89635542

loop_
_atom_site_label
_atom_site_type_symbol
_atom_type_description
_atom_site_fract_x
_atom_site_fract_y
_atom_site_fract_z
_atom_type_partial_charge
C1    C     C_R   0.566293 0.453411 0.566691 0.556086
C2    C     C_3   0.499426 0.986183 0.203973 -0.079082
C3    C     C_3   0.486743 0.500592 0.203977 -0.079158
C4    C     C_3   0.013910 0.513297 0.203986 -0.079018
C5    C     C_3   0.922954 0.409320 0.771007 -0.121431
C6    C     C_3   0.590354 0.512786 0.771055 -0.121297
C7    C     C_3   0.485744 0.076676 0.771005 -0.121289
C8    C     C_3   0.409326 0.922941 0.271008 -0.121431
C9    C     C_3   0.512792 0.590356 0.271055 -0.121295
C10   C     C_3   0.076673 0.485739 0.271005 -0.121292
C11   C     C_3   0.899183 0.486607 0.740476 0.399084
C12   C     C_R   0.546592 0.112887 0.566693 0.556118
C13   C     C_3   0.512586 0.412035 0.740469 0.398925
C14   C     C_3   0.587053 0.101117 0.740512 0.399170
C15   C     C_3   0.486623 0.899188 0.240476 0.399080
C16   C     C_3   0.412039 0.512592 0.240469 0.398924
C17   C     C_3   0.101118 0.587050 0.240512 0.399170
C18   C     C_1   0.033817 0.519830 0.848308 0.081385
C19   C     C_1   0.480127 0.513960 0.848308 0.081448
C20   C     C_1   0.486032 0.966205 0.848316 0.081340
C21   C     C_1   0.519830 0.033816 0.348309 0.081386
C22   C     C_1   0.513960 0.480127 0.348308 0.081448
C23   C     C_R   0.887121 0.433711 0.566691 0.556109
C24   C     C_1   0.966205 0.486032 0.348316 0.081339
C25   C     C_1   0.964478 0.485459 0.653156 0.084401
C26   C     C_1   0.514568 0.479011 0.653161 0.084456
C27   C     C_1   0.521021 0.035602 0.653168 0.084387
C28   C     C_1   0.485459 0.964478 0.153156 0.084402
C29   C     C_1   0.479011 0.514569 0.153161 0.084456
C30   C     C_1   0.035602 0.521021 0.153168 0.084386
C31   C     C_R   0.566450 0.453817 0.434511 0.555191
C32   C     C_R   0.546177 0.112631 0.434511 0.555213
C33   C     C_R   0.887368 0.433548 0.434512 0.555214
C34   C     C_R   0.453411 0.566293 0.066691 0.556087
C35   C     C_R   0.453817 0.566450 0.934511 0.555191
C36   C     C_R   0.112631 0.546177 0.934511 0.555213
C37   C     C_R   0.433548 0.887368 0.934512 0.555214
C38   C     C_3   0.075079 0.601508 0.730421 -0.122908
C39   C     C_3   0.398790 0.474364 0.730379 -0.122679
C40   C     C_3   0.527134 0.925432 0.730446 -0.122771
C41   C     C_3   0.601501 0.075089 0.230421 -0.122907
C42   C     C_3   0.474359 0.398788 0.230379 -0.122677
C43   C     C_3   0.925435 0.527139 0.230446 -0.122774
C44   C     C_3   0.987183 0.587357 0.767384 0.387882
C45   C     C_R   0.112887 0.546593 0.066693 0.556119
C46   C     C_3   0.412109 0.400079 0.767331 0.388177
C47   C     C_3   0.600442 0.013524 0.767432 0.387619
C48   C     C_3   0.587368 0.987199 0.267383 0.387890
C49   C     C_3   0.400078 0.412112 0.267331 0.388178
C50   C     C_3   0.013528 0.600444 0.267433 0.387619
C51   C     C_1   0.062816 0.529523 0.888966 0.071614
C52   C     C_1   0.470453 0.533279 0.888966 0.071672
C53   C     C_1   0.466717 0.937193 0.888971 0.071564
C54   C     C_1   0.529523 0.062815 0.388966 0.071616
C55   C     C_1   0.533280 0.470453 0.388966 0.071672
C56   C     C_R   0.433711 0.887120 0.066691 0.556108
C57   C     C_1   0.937193 0.466718 0.388971 0.071563
C58   C     C_1   0.936036 0.466251 0.612428 0.072914
C59   C     C_1   0.533769 0.469783 0.612432 0.072969
C60   C     C_1   0.530235 0.064011 0.612437 0.072905
C61   C     C_1   0.466251 0.936036 0.112428 0.072915
C62   C     C_1   0.469783 0.533769 0.112432 0.072969
C63   C     C_1   0.064011 0.530235 0.112437 0.072905
C64   C     C_3   0.098705 0.524137 0.760979 0.399035
C65   C     C_3   0.476640 0.575050 0.760991 0.399036
C66   C     C_3   0.425885 0.901137 0.760965 0.399241
C67   C     C_3   0.986184 0.499427 0.703973 -0.079081
C68   C     C_3   0.524120 0.098698 0.260979 0.399032
C69   C     C_3   0.575047 0.476635 0.260990 0.399037
C70   C     C_3   0.901135 0.425888 0.260965 0.399240
C71   C     C_3   0.011736 0.511322 0.797515 -0.080831
C72   C     C_3   0.488630 0.500372 0.797516 -0.080904
C73   C     C_3   0.499614 0.988308 0.797524 -0.080797
C74   C     C_3   0.511322 0.011735 0.297515 -0.080833
C75   C     C_3   0.500372 0.488630 0.297516 -0.080903
C76   C     C_3   0.988308 0.499614 0.297524 -0.080796
C77   C     C_3   0.010809 0.423554 0.734185 0.387689
C78   C     C_3   0.500591 0.486743 0.703977 -0.079159
C79   C     C_3   0.576949 0.586945 0.734243 0.388040
C80   C     C_3   0.412560 0.988626 0.734159 0.387512
C81   C     C_3   0.423543 0.010791 0.234186 0.387698
C82   C     C_3   0.586947 0.576946 0.234243 0.388041
C83   C     C_3   0.988621 0.412558 0.234159 0.387511
C84   C     C_3   0.513297 0.013911 0.703986 -0.079019
Cr1   Cr    Cr6+3 0.504830 0.254570 0.500510 1.109551
Cr2   Cr    Cr6+3 0.745430 0.250260 0.500510 1.109333
Cr3   Cr    Cr6+3 0.749740 0.495170 0.500510 1.109563
Cr4   Cr    Cr6+3 0.254570 0.504830 0.000510 1.109549
Cr5   Cr    Cr6+3 0.250260 0.745430 0.000510 1.109333
Cr6   Cr    Cr6+3 0.495170 0.749740 0.000510 1.109566
F1    F     F_    0.972569 0.670622 0.785225 -0.522307
F2    F     F_    0.468884 0.796063 0.229111 -0.521864
F3    F     F_    0.326154 0.529533 0.229092 -0.522041
F4    F     F_    0.204501 0.672007 0.229180 -0.521374
F5    F     F_    0.025436 0.340209 0.716440 -0.523855
F6    F     F_    0.660857 0.684641 0.716555 -0.523522
F7    F     F_    0.314364 0.973336 0.716379 -0.524374
F8    F     F_    0.340187 0.025401 0.216442 -0.523843
F9    F     F_    0.684645 0.660850 0.216554 -0.523525
F10   F     F_    0.973325 0.314360 0.216379 -0.524373
F11   F     F_    0.201790 0.541607 0.772239 -0.512467
F12   F     F_    0.328281 0.302477 0.785115 -0.522078
F13   F     F_    0.459985 0.661175 0.772261 -0.512473
F14   F     F_    0.340685 0.797801 0.772195 -0.511698
F15   F     F_    0.541572 0.201776 0.272240 -0.512480
F16   F     F_    0.661168 0.459974 0.272261 -0.512471
F17   F     F_    0.797797 0.340691 0.272194 -0.511704
F18   F     F_    0.698545 0.028802 0.785308 -0.522861
F19   F     F_    0.670644 0.972602 0.285223 -0.522297
F20   F     F_    0.302474 0.328288 0.285116 -0.522080
F21   F     F_    0.028812 0.698549 0.285308 -0.522858
F22   F     F_    0.796052 0.468850 0.729112 -0.521853
F23   F     F_    0.529522 0.326147 0.729092 -0.522043
F24   F     F_    0.672013 0.204498 0.729180 -0.521370
H1    H     H_    0.137443 0.679619 0.713863 0.217115
H2    H     H_    0.331212 0.860677 0.287598 0.217583
H3    H     H_    0.527996 0.668215 0.287687 0.217468
H4    H     H_    0.138575 0.469339 0.287586 0.217369
H5    H     H_    0.320936 0.459275 0.713781 0.217077
H6    H     H_    0.543415 0.863417 0.713897 0.216865
H7    H     H_    0.679607 0.137461 0.213862 0.217116
H8    H     H_    0.459266 0.320933 0.213781 0.217073
H9    H     H_    0.863422 0.543423 0.213898 0.216865
H10   H     H_    0.860698 0.331201 0.787597 0.217583
H11   H     H_    0.668212 0.527987 0.787686 0.217471
H12   H     H_    0.469347 0.138580 0.787587 0.217368
O1    O     O_R   0.479630 0.139450 0.552170 -0.487575
O2    O     O_R   0.360080 0.516200 0.048600 -0.493453
O3    O     O_R   0.156120 0.639920 0.048600 -0.493559
O4    O     O_R   0.483800 0.843880 0.048600 -0.493430
O5    O     O_R   0.478560 0.139320 0.448720 -0.491523
O6    O     O_R   0.860680 0.339240 0.448720 -0.491692
O7    O     O_R   0.660760 0.521440 0.448720 -0.491540
O8    O     O_R   0.139320 0.478560 0.948720 -0.491525
O9    O     O_R   0.339240 0.860680 0.948720 -0.491692
O10   O     O_R   0.521440 0.660760 0.948720 -0.491539
O11   O     O_R   0.515210 0.359960 0.452710 -0.489594
O12   O     O_R   0.860550 0.340180 0.552170 -0.487717
O13   O     O_R   0.640040 0.155250 0.452710 -0.489615
O14   O     O_R   0.844750 0.484790 0.452710 -0.489501
O15   O     O_R   0.359960 0.515210 0.952710 -0.489596
O16   O     O_R   0.155250 0.640040 0.952710 -0.489614
O17   O     O_R   0.484790 0.844750 0.952710 -0.489501
O18   O     O_3   0.666667 0.333333 0.499990 -0.278396
O19   O     O_3   0.333333 0.666667 0.999990 -0.278396
O20   O     O_R   0.659820 0.520370 0.552170 -0.487660
O21   O     O_R   0.139450 0.479630 0.052170 -0.487576
O22   O     O_R   0.340180 0.860550 0.052170 -0.487718
O23   O     O_R   0.520370 0.659820 0.052170 -0.487658
O24   O     O_R   0.516200 0.360080 0.548600 -0.493451
O25   O     O_R   0.639920 0.156120 0.548600 -0.493560
O26   O     O_R   0.843880 0.483800 0.548600 -0.493431

loop_
_geom_bond_atom_site_label_1
_geom_bond_atom_site_label_2
_ccdc_geom_bond_type
C23   C58   S    
C23   O26   A    
C3    C42   S    
C45   O3    A    
C65   C79   S    
Cr3   O20   S    
C43   H9    S    
C80   F7    S    
Cr5   O22   S    
C9    H3    S    
C64   C77   S    
C40   C84   S    
C23   O12   A    
C67   C77   S    
C14   C84   S    
Cr3   O14   S    
C31   O7    A    
C1    O20   A    
Cr2   O18   S    
C7    C73   S    
C12   O1    A    
C6    C72   S    
C46   F12   S    
C5    H10   S    
C16   F3    S    
C26   C78   S    
Cr5   O9    S    
C68   C81   S    
C22   C75   S    
C27   C84   S    
C9    C16   S    
C5    C11   S    
Cr6   O19   S    
C70   F17   S    
C1    C59   S    
C21   C54   T    
C81   F8    S    
C10   C17   S    
C68   C74   S    
Cr5   O16   S    
C10   C83   S    
C34   C62   S    
Cr5   O3    S    
C44   C71   S    
C82   F9    S    
C64   C71   S    
C41   H7    S    
C3    C29   S    
Cr3   O7    S    
Cr1   O24   S    
C36   O16   A    
C69   C82   S    
C15   F2    S    
C29   C62   T    
C10   C76   S    
C19   C52   T    
C41   C48   S    
C7    C14   S    
C24   C57   T    
C25   C67   S    
Cr4   O19   S    
C37   O9    A    
C2    C15   S    
Cr3   O18   S    
C31   O11   A    
C26   C59   T    
C46   C72   S    
Cr6   O17   S    
C80   C84   S    
C9    C82   S    
C37   C53   S    
C28   C61   T    
C48   F19   S    
C40   C66   S    
C30   C63   T    
C39   C65   S    
C12   O25   A    
C19   C72   S    
C15   C48   S    
C3    C82   S    
Cr6   O23   S    
Cr1   O18   S    
C32   C54   S    
C34   O23   A    
C11   C67   S    
C18   C51   T    
C41   C68   S    
C38   C64   S    
C64   F11   S    
C9    C75   S    
C8    C81   S    
C39   C78   S    
C48   C74   S    
C1    O24   A    
C16   C49   S    
C47   C73   S    
C32   O13   A    
Cr2   O12   S    
C78   C79   S    
C24   C76   S    
C14   F24   S    
C40   C47   S    
C21   C74   S    
C45   C63   S    
C42   C69   S    
C4    C30   S    
Cr6   O4    S    
C56   O22   A    
Cr5   O19   S    
C38   C44   S    
C10   H4    S    
C50   C76   S    
Cr6   O10   S    
C66   F14   S    
C8    C74   S    
C11   C44   S    
C70   C83   S    
C44   F1    S    
C49   C75   S    
C14   C47   S    
C36   C51   S    
Cr2   O13   S    
C35   O15   A    
C39   C46   S    
C4    C17   S    
C33   O6    A    
C34   O2    A    
C40   H6    S    
C43   C70   S    
Cr3   O26   S    
C70   C76   S    
Cr1   O1    S    
C68   F15   S    
C65   F13   S    
C5    C77   S    
Cr1   O11   S    
Cr4   O15   S    
C42   H8    S    
C18   C71   S    
C13   C78   S    
C33   C57   S    
C37   O17   A    
C11   F22   S    
C45   O21   A    
C6    H11   S    
C20   C53   T    
C36   O8    A    
C17   C50   S    
C69   F16   S    
C43   C50   S    
C22   C55   T    
C4    C43   S    
C8    C15   S    
C65   C72   S    
C66   C80   S    
C27   C60   T    
Cr4   O8    S    
C79   F6    S    
Cr4   O2    S    
Cr2   O25   S    
Cr1   O5    S    
C6    C13   S    
C38   H1    S    
C66   C73   S    
Cr2   O6    S    
C6    C79   S    
C13   C46   S    
C4    C83   S    
C39   H5    S    
C83   F10   S    
C50   F21   S    
Cr4   O21   S    
C77   F5    S    
C20   C73   S    
C69   C75   S    
C35   O10   A    
C7    H12   S    
C13   F23   S    
C8    H2    S    
C42   C49   S    
C12   C60   S    
C38   C67   S    
C5    C71   S    
C47   F18   S    
C25   C58   T    
C35   C52   S    
C2    C41   S    
C56   C61   S    
C7    C80   S    
C2    C81   S    
C2    C28   S    
C17   F4    S    
C33   O14   A    
C31   C55   S    
C32   O5    A    
C56   O4    A    
C3    C16   S    
C49   F20   S    
