data_mof_unit_7735.cif
_audit_creation_date              2012-12-10T16:54:57-0500
_audit_creation_method            fapswitch 2.2
_symmetry_space_group_name_H-M    P1
_symmetry_Int_Tables_number       1
_space_group_crystal_system       triclinic
_cell_length_a                    7.772046
_cell_length_b                    8.580913
_cell_length_c                    15.719309
_cell_angle_alpha                 90.887431
_cell_angle_beta                  85.808701
_cell_angle_gamma                 93.642598
_cell_volume                      1043.36251822

loop_
_atom_site_label
_atom_site_type_symbol
_atom_type_description
_atom_site_fract_x
_atom_site_fract_y
_atom_site_fract_z
_atom_type_partial_charge
C1    C     C_R   0.545774 0.794733 0.497785 0.961110
C2    C     C_3   0.353634 0.588293 0.054358 -0.438619
C3    C     C_3   0.498155 0.488117 0.082569 0.303068
C4    C     C_3   0.465879 0.317624 0.047616 0.025910
C5    C     C_3   0.469533 0.322325 0.948524 -0.399728
C6    C     C_1   0.493911 0.492315 0.174299 -0.135690
C7    C     C_1   0.505930 0.495556 0.825672 -0.116039
C8    C     C_1   0.505665 0.497929 0.750353 -0.182832
C9    C     C_2   0.569856 0.958203 0.496487 -0.381428
C10   C     C_2   0.430137 0.041793 0.503360 -0.381251
C11   C     C_R   0.501965 0.500103 0.661601 0.904886
C12   C     C_R   0.454223 0.205266 0.502156 0.960532
C13   C     C_R   0.498011 0.499629 0.338406 0.907377
C14   C     C_3   0.357953 0.592214 0.956271 -0.405892
C15   C     C_3   0.679135 0.559250 0.946579 -0.402468
C16   C     C_3   0.674795 0.560210 0.044792 -0.396883
C17   C     C_1   0.493696 0.496270 0.249665 -0.182656
C18   C     C_3   0.503270 0.492438 0.917165 0.327809
H1    H     H_    0.370670 0.709515 0.079852 0.190054
H2    H     H_    0.230509 0.546772 0.935007 0.167338
H3    H     H_    0.224720 0.539248 0.080387 0.163276
H4    H     H_    0.701823 0.009244 0.489923 0.180461
H5    H     H_    0.298170 0.990753 0.509913 0.180506
H6    H     H_    0.013428 0.381912 0.436558 0.191552
H7    H     H_    0.986572 0.618091 0.563439 0.191614
H8    H     H_    0.380258 0.715146 0.934421 0.176334
H9    H     H_    0.784937 0.487275 0.919887 0.164878
H10   H     H_    0.707830 0.680376 0.922813 0.172279
H11   H     H_    0.695659 0.682395 0.068279 0.173156
H12   H     H_    0.782966 0.494895 0.065827 0.159038
H13   H     H_    0.343596 0.272347 0.927559 0.148786
H14   H     H_    0.571331 0.249809 0.918126 0.176418
H15   H     H_    0.333551 0.274788 0.072477 0.145672
N1    N     N_2   0.950340 0.457950 0.477370 -0.173430
N2    N     N_2   0.049660 0.542050 0.522630 -0.173376
O1    O     O_R   0.389240 0.738570 0.505550 -0.612981
O2    O     O_R   0.678400 0.711630 0.491050 -0.630921
O3    O     O_R   0.355360 0.513470 0.630110 -0.613482
O4    O     O_R   0.644510 0.486530 0.615610 -0.621981
O5    O     O_R   0.321600 0.288370 0.508950 -0.631088
O6    O     O_R   0.610760 0.261430 0.494450 -0.613189
O7    O     O_R   0.355490 0.513470 0.384390 -0.621429
O8    O     O_R   0.644640 0.486530 0.369890 -0.614618
Zn1   Zn    Zn3+2 0.306930 0.517990 0.509680 0.942845
Zn2   Zn    Zn3+2 0.693070 0.482010 0.490320 0.942200
C19   C     C_3   0.594308 0.201792 0.077499 -0.392850
C20   C     C_3   0.532940 0.031752 0.061569 -0.929520
H16   H     H_    0.404233 0.005158 0.095459 0.257052
H17   H     H_    0.524656 0.007256 0.992409 0.259807
H18   H     H_    0.626036 0.953810 0.086178 0.251711
H19   H     H_    0.724432 0.224736 0.044281 0.209963
H20   H     H_    0.608398 0.215714 0.147019 0.216716

loop_
_geom_bond_atom_site_label_1
_geom_bond_atom_site_label_2
_ccdc_geom_bond_type
C12   O5    A    
C11   O3    A    
O3    Zn1   S    
C12   O6    A    
C7    C18   S    
C13   C17   S    
C10   H5    S    
C15   C18   S    
C9    C10   D    
C14   C18   S    
C15   H9    S    
C20   H16   S    
C1    O2    A    
C13   O8    A    
O4    Zn2   S    
C5    H14   S    
C3    C6    S    
C2    H3    S    
C2    C3    S    
C2    H1    S    
C7    C8    T    
C20   H17   S    
N1    Zn2   S    
C4    C19   S    
C14   H8    S    
C19   H20   S    
C11   O4    A    
N2    Zn1   S    
O8    Zn2   S    
C15   H10   S    
O7    Zn1   S    
H7    N2    S    
C8    C11   S    
C10   C12   S    
C13   O7    A    
C20   H18   S    
C2    C14   S    
C9    H4    S    
O1    Zn1   S    
C16   H12   S    
C3    C4    S    
C14   H2    S    
O5    Zn1   S    
C1    C9    S    
N1    N2    D    
C6    C17   T    
O6    Zn2   S    
C19   C20   S    
C5    C18   S    
C16   H11   S    
C4    H15   S    
O2    Zn2   S    
C19   H19   S    
H6    N1    S    
C3    C16   S    
C15   C16   S    
C1    O1    A    
C4    C5    S    
C5    H13   S    
