data_mof_unit_31117.cif
_audit_creation_date              2012-12-10T17:18:15-0500
_audit_creation_method            fapswitch 2.2
_symmetry_space_group_name_H-M    P1
_symmetry_Int_Tables_number       1
_space_group_crystal_system       triclinic
_cell_length_a                    10.111001
_cell_length_b                    10.833629
_cell_length_c                    14.910206
_cell_angle_alpha                 89.494215
_cell_angle_beta                  82.139139
_cell_angle_gamma                 95.65913
_cell_volume                      1609.60124271

loop_
_atom_site_label
_atom_site_type_symbol
_atom_type_description
_atom_site_fract_x
_atom_site_fract_y
_atom_site_fract_z
_atom_type_partial_charge
C1    C     C_R   0.556494 0.732663 0.496540 0.954764
C2    C     C_R   0.443688 0.267354 0.508924 0.949267
C3    C     C_R   0.558334 0.726552 0.950854 0.437491
C4    C     C_R   0.492089 0.266709 0.043959 0.500480
C5    C     C_2   0.588767 0.864764 0.502848 -0.348173
C6    C     C_2   0.411826 0.135089 0.521451 -0.377114
C7    C     C_2   0.488358 0.933643 0.528303 -0.142986
C8    C     C_2   0.512702 0.065914 0.526706 -0.141934
C9    C     C_2   0.926445 0.507673 0.509250 -0.126226
C10   C     C_2   0.070633 0.485135 0.497297 -0.132719
C11   C     C_R   0.502093 0.502707 0.672589 0.950068
C12   C     C_R   0.497562 0.496071 0.327313 0.956875
C13   C     C_R   0.474325 0.380338 0.188756 0.447723
C14   C     C_R   0.507855 0.616917 0.812873 0.412769
C15   C     C_R   0.495026 0.493690 0.231903 -0.168876
C16   C     C_R   0.506396 0.504487 0.767455 -0.157740
C17   C     C_R   0.523411 0.605699 0.184449 -0.309854
C18   C     C_R   0.511142 0.392113 0.811334 -0.309259
C19   C     C_R   0.531147 0.607874 0.091381 0.099480
C20   C     C_R   0.511465 0.388587 0.903928 0.101558
C21   C     C_R   0.515290 0.495408 0.045129 -0.045103
C22   C     C_R   0.518785 0.500083 0.951233 -0.032213
C23   C     C_R   0.493762 0.379076 0.092880 -0.092819
C24   C     C_R   0.528301 0.616237 0.904516 -0.105516
C25   C     C_R   0.557193 0.721374 0.044134 -0.306846
C26   C     C_R   0.505315 0.274594 0.948814 -0.338078
H1    H     H_    0.539255 0.691341 0.220581 0.154421
H2    H     H_    0.509001 0.306937 0.773420 0.151604
H3    H     H_    0.308604 0.094238 0.524565 0.148751
H4    H     H_    0.691900 0.905701 0.486029 0.147873
H5    H     H_    0.103979 0.411569 0.454248 0.169307
H6    H     H_    0.890478 0.574900 0.557891 0.166257
H7    H     H_    0.122500 0.621055 0.577427 0.163431
H8    H     H_    0.879796 0.386542 0.416624 0.171915
N1    N     N_2   0.842700 0.448880 0.462930 -0.198554
N2    N     N_2   0.157300 0.551120 0.537070 -0.200902
O1    O     O_R   0.431060 0.692470 0.507460 -0.625521
O2    O     O_R   0.568940 0.307530 0.492540 -0.604266
O3    O     O_R   0.651120 0.659650 0.483670 -0.614882
O4    O     O_R   0.348880 0.340350 0.516330 -0.627744
O5    O     O_R   0.389960 0.516440 0.644050 -0.628465
O6    O     O_R   0.610040 0.483560 0.355950 -0.595129
O7    O     O_R   0.610030 0.483620 0.620260 -0.620798
O8    O     O_R   0.389970 0.516380 0.379740 -0.629666
Zn1   Zn    Zn3+2 0.353060 0.521920 0.515880 0.927855
Zn2   Zn    Zn3+2 0.646940 0.478080 0.484120 0.960361
O9    O     O_3   0.443143 0.272791 0.241931 -0.614593
C27   C     C_3   0.308806 0.222991 0.238303 0.140002
H9    H     H_    0.307275 0.120359 0.240511 0.188272
H10   H     H_    0.268742 0.249152 0.175466 0.116982
C28   C     C_3   0.214774 0.260675 0.319747 -0.407242
H11   H     H_    0.254931 0.237659 0.382589 0.248049
H12   H     H_    0.208193 0.362090 0.315113 0.226946
C29   C     C_3   0.074638 0.192441 0.322566 -0.984982
H13   H     H_    0.028444 0.219766 0.262881 0.273943
H14   H     H_    0.010241 0.215936 0.385118 0.259294
H15   H     H_    0.079566 0.090449 0.323093 0.268704
O10   O     O_3   0.499087 0.725380 0.764502 -0.640143
C30   C     C_3   0.377579 0.776978 0.795153 0.144220
H16   H     H_    0.397001 0.878924 0.783211 0.176053
H17   H     H_    0.342965 0.761589 0.868915 0.143602
C31   C     C_3   0.264633 0.727714 0.742455 -0.372028
H18   H     H_    0.299466 0.738888 0.668769 0.254703
H19   H     H_    0.236249 0.627799 0.759601 0.234598
C32   C     C_3   0.140735 0.797152 0.765756 -1.030527
H20   H     H_    0.102368 0.786148 0.839127 0.278684
H21   H     H_    0.060640 0.759087 0.726671 0.265924
H22   H     H_    0.165432 0.897363 0.748062 0.275222
H23   H     H_    0.575652 0.806784 0.079713 0.156132
H24   H     H_    0.508130 0.192742 0.908154 0.144970
O11   O     O_3   0.582060 0.841015 0.907033 -0.662702
C33   C     C_3   0.720509 0.864740 0.876031 0.116055
H25   H     H_    0.753368 0.794691 0.825606 0.163388
H26   H     H_    0.780219 0.863043 0.933556 0.127691
C34   C     C_3   0.746461 0.993542 0.830691 -0.324530
H27   H     H_    0.682890 0.998487 0.775764 0.236270
H28   H     H_    0.718732 0.064387 0.881476 0.217500
C35   C     C_3   0.893421 0.022845 0.790642 -0.967512
H29   H     H_    0.959270 0.017012 0.844071 0.268705
H30   H     H_    0.909342 0.118299 0.760784 0.270632
H31   H     H_    0.921131 0.956768 0.736397 0.269828
O12   O     O_3   0.486891 0.153801 0.091218 -0.623546
C36   C     C_3   0.424238 0.049616 0.050538 0.078082
H32   H     H_    0.426978 0.968015 0.095503 0.166275
H33   H     H_    0.483238 0.027073 0.985742 0.184760
C37   C     C_3   0.275255 0.060100 0.042148 -0.416688
H34   H     H_    0.214796 0.050317 0.110229 0.210197
H35   H     H_    0.260864 0.151238 0.012396 0.223263
C38   C     C_3   0.220769 0.958776 0.982868 -0.934916
H36   H     H_    0.271998 0.972641 0.912322 0.261716
H37   H     H_    0.111606 0.963575 0.982649 0.261376
H38   H     H_    0.236352 0.865739 0.009043 0.264608
H39   H     H_    0.616159 0.106343 0.523636 0.189376
H40   H     H_    0.384893 0.893299 0.544737 0.182525

loop_
_geom_bond_atom_site_label_1
_geom_bond_atom_site_label_2
_ccdc_geom_bond_type
C7    C8    S    
C1    C5    S    
C22   C24   A    
C19   C21   A    
C35   H30   S    
H7    N2    S    
C13   C23   A    
H8    N1    S    
O6    Zn2   S    
C14   C24   A    
C31   H19   S    
C9    H6    S    
C10   H5    S    
C27   C28   S    
C36   H32   S    
C32   H21   S    
C12   O6    A    
C11   O7    A    
C38   H37   S    
C9    C10   S    
C1    O1    A    
C27   H10   S    
C30   H16   S    
C21   C22   A    
C3    C24   A    
C2    C6    S    
C33   C34   S    
O7    Zn2   S    
O4    Zn1   S    
C14   O10   S    
C29   H14   S    
C30   H17   S    
C37   H35   S    
C28   H11   S    
C17   H1    S    
C3    C25   A    
C18   H2    S    
C33   H26   S    
C5    C7    D    
C4    C23   A    
C35   H29   S    
C6    C8    D    
O10   C30   S    
C28   H12   S    
C3    O11   S    
C34   H27   S    
C31   H18   S    
C11   C16   S    
C2    O2    A    
O9    C27   S    
C12   C15   S    
C32   H22   S    
C6    H3    S    
N2    Zn1   S    
C38   H38   S    
C34   H28   S    
O3    Zn2   S    
C27   H9    S    
C36   H33   S    
C20   C22   A    
C32   H20   S    
C13   C15   A    
C26   H24   S    
C14   C16   A    
C25   H23   S    
O1    Zn1   S    
O8    Zn1   S    
C13   O9    S    
C5    H4    S    
C15   C17   A    
C7    H40   S    
C29   H13   S    
C30   C31   S    
C31   C32   S    
C37   H34   S    
C8    H39   S    
C33   H25   S    
C37   C38   S    
C4    C26   A    
C28   C29   S    
C21   C23   A    
O11   C33   S    
C12   O8    A    
C35   H31   S    
C20   C26   A    
C17   C19   A    
C11   O5    A    
C18   C20   A    
C19   C25   A    
C34   C35   S    
O2    Zn2   S    
C1    O3    A    
C2    O4    A    
C36   C37   S    
C4    O12   S    
C16   C18   A    
O12   C36   S    
C9    N1    D    
O5    Zn1   S    
C10   N2    D    
C38   H36   S    
N1    Zn2   S    
C29   H15   S    
