data_mof_unit_29407.cif
_audit_creation_date              2013-03-05T16:06:02-0500
_audit_creation_method            fapswitch 2.2
_symmetry_space_group_name_H-M    P1
_symmetry_Int_Tables_number       1
_space_group_crystal_system       triclinic
_cell_length_a                    10.520063
_cell_length_b                    15.020588
_cell_length_c                    15.638778
_cell_angle_alpha                 82.017149
_cell_angle_beta                  90.02039
_cell_angle_gamma                 104.477221
_cell_volume                      2368.02490398

loop_
_atom_site_label
_atom_site_type_symbol
_atom_site_description
_atom_site_fract_x
_atom_site_fract_y
_atom_site_fract_z
_atom_type_partial_charge
O1    O     O_R   0.462600 0.383110 0.605620 -0.617190
O2    O     O_R   0.537400 0.616890 0.394380 -0.617210
O3    O     O_R   0.510210 0.531900 0.639510 -0.578988
O4    O     O_R   0.489790 0.468100 0.360490 -0.578983
C1    C     C_R   0.482877 0.441760 0.661429 0.955834
C2    C     C_R   0.517120 0.558240 0.338571 0.955818
O5    O     O_R   0.662240 0.425610 0.483080 -0.609231
O6    O     O_R   0.337760 0.574390 0.516920 -0.609260
O7    O     O_R   0.709860 0.574400 0.516970 -0.627659
O8    O     O_R   0.290140 0.425600 0.483030 -0.627649
C3    C     C_R   0.742227 0.500779 0.500527 0.941944
C4    C     C_R   0.257773 0.499220 0.499475 0.941913
Zn1   Zn    Zn3+2 0.468210 0.400660 0.477370 1.007056
Zn2   Zn    Zn3+2 0.531790 0.599340 0.522630 1.007040
C5    C     C_3   0.946365 0.473294 0.425935 -0.239908
C6    C     C_3   0.053635 0.526700 0.574073 -0.239944
C7    C     C_3   0.008028 0.412166 0.493867 -0.242931
C8    C     C_3   0.991973 0.587829 0.506140 -0.242938
H1    H     H_    0.899879 0.453343 0.365300 0.196358
H2    H     H_    0.100119 0.546649 0.634709 0.196347
C9    C     C_3   0.122343 0.497762 0.499555 -0.147234
C10   C     C_3   0.877656 0.502233 0.500452 -0.147239
C11   C     C_3   0.061580 0.557384 0.433385 0.370378
C12   C     C_3   0.938419 0.442610 0.566622 0.370374
C13   C     C_R   0.459530 0.406252 0.752991 -0.183471
C14   C     C_R   0.540452 0.593751 0.247009 -0.183478
C15   C     C_R   0.289789 0.322906 0.859843 0.319184
C16   C     C_R   0.710172 0.677110 0.140147 0.319180
C17   C     C_R   0.348580 0.333630 0.777924 -0.298204
C18   C     C_R   0.651393 0.666380 0.222071 -0.298202
C19   C     C_R   0.528732 0.458187 0.814050 0.275512
C20   C     C_R   0.471241 0.541819 0.185952 0.275526
C21   C     C_R   0.475143 0.444422 0.899269 -0.065600
C22   C     C_R   0.524820 0.555586 0.100731 -0.065603
C23   C     C_R   0.346451 0.385521 0.917077 -0.013024
C24   C     C_R   0.653510 0.614490 0.082918 -0.013023
C25   C     C_R   0.537953 0.495332 0.964352 0.108061
C26   C     C_R   0.462008 0.504673 0.035649 0.108064
C27   C     C_R   0.325654 0.464296 0.038634 -0.118230
C28   C     C_R   0.674307 0.535705 0.961371 -0.118235
C29   C     C_R   0.271338 0.399469 0.985312 -0.105340
C30   C     C_R   0.728622 0.600536 0.014687 -0.105323
H3    H     H_    0.167405 0.366149 0.993671 0.199177
H4    H     H_    0.832556 0.633855 0.006329 0.199170
H5    H     H_    0.259244 0.481475 0.082510 0.195814
H6    H     H_    0.740716 0.518518 0.917500 0.195811
N1    N     N_R   0.574200 0.731700 0.552740 -0.121614
N2    N     N_R   0.425800 0.268300 0.447260 -0.121617
C31   C     C_R   0.711015 0.846314 0.625450 -0.265342
C32   C     C_R   0.288990 0.153687 0.374545 -0.265345
C33   C     C_R   0.673783 0.756149 0.606595 0.088154
C34   C     C_R   0.326220 0.243852 0.393403 0.088145
C35   C     C_R   0.508840 0.792479 0.514637 -0.048793
C36   C     C_R   0.491160 0.207521 0.485362 -0.048794
C37   C     C_R   0.542615 0.885629 0.530209 0.000078
C38   C     C_R   0.457390 0.114373 0.469787 0.000074
C39   C     C_R   0.646132 0.911555 0.587132 0.146547
C40   C     C_R   0.353874 0.088447 0.412863 0.146544
C41   C     C_R   0.479061 0.953387 0.490831 0.076764
C42   C     C_R   0.520946 0.046614 0.509164 0.076769
C43   C     C_R   0.624645 0.068924 0.566268 -0.202343
C44   C     C_R   0.375365 0.931079 0.433724 -0.202342
C45   C     C_R   0.685452 0.002474 0.604519 -0.158835
C46   C     C_R   0.314558 0.997529 0.395474 -0.158831
H7    H     H_    0.566463 0.233972 0.528302 0.174707
H8    H     H_    0.433534 0.766027 0.471699 0.174680
H9    H     H_    0.790930 0.865210 0.668538 0.174977
H10   H     H_    0.209078 0.134792 0.331457 0.174979
H11   H     H_    0.662206 0.137463 0.582950 0.191450
H12   H     H_    0.337808 0.862541 0.417040 0.191461
H13   H     H_    0.017161 0.340652 0.490502 0.187126
H14   H     H_    0.982840 0.659344 0.509505 0.187135
H15   H     H_    0.274574 0.294422 0.366281 0.192345
H16   H     H_    0.725429 0.705579 0.633717 0.192336
N3    N     N_R   0.132937 0.620330 0.359887 0.227362
O9    O     O_R   0.095359 0.610542 0.281760 -0.320504
O10   O     O_R   0.230917 0.689056 0.372315 -0.414840
N4    N     N_R   0.867055 0.379648 0.640108 0.227356
O11   O     O_R   0.904652 0.389354 0.718238 -0.320468
O12   O     O_R   0.768998 0.310984 0.627661 -0.414847
N5    N     N_R   0.362219 0.464222 0.215605 0.185872
O13   O     O_R   0.263405 0.476518 0.258421 -0.379419
O14   O     O_R   0.369347 0.380107 0.209146 -0.396770
N6    N     N_R   0.637760 0.535784 0.784403 0.185873
O15   O     O_R   0.630630 0.619900 0.790857 -0.396753
O16   O     O_R   0.736586 0.523485 0.741601 -0.379459
H17   H     H_    0.700330 0.708296 0.269326 0.212406
H18   H     H_    0.299646 0.291715 0.730667 0.212399
N7    N     N_R   0.169917 0.251963 0.882153 0.218626
O17   O     O_R   0.089306 0.224403 0.822431 -0.333014
O18   O     O_R   0.149396 0.206195 0.959969 -0.336316
N8    N     N_R   0.830031 0.748062 0.117827 0.218629
O19   O     O_R   0.910639 0.775644 0.177544 -0.333041
O20   O     O_R   0.850539 0.793819 0.040005 -0.336311
H19   H     H_    0.764761 0.022711 0.647779 0.179168
H20   H     H_    0.235251 0.977292 0.352212 0.179172

loop_
_geom_bond_atom_site_label_1
_geom_bond_atom_site_label_2
_geom_bond_distance
_ccdc_geom_bond_type
C13   C19   1.404574 A    
C14   C20   1.404562 A    
C6    C9    1.538798 S    
C37   C41   1.424068 A    
C15   C17   1.393984 A    
C24   C30   1.397307 A    
C33   H16   1.081097 S    
O7    Zn2   2.004411 S    
N5    O13   1.301507 A    
C27   C29   1.384567 A    
C36   H7    1.073652 S    
C5    H1    1.110622 S    
C20   N5    1.439052 S    
O1    C1    1.304924 A    
N6    O16   1.301517 A    
C25   C28   1.408833 A    
C26   C27   1.408846 A    
N4    O12   1.299779 A    
C45   H19   1.084494 S    
C31   C39   1.398700 A    
C44   H12   1.074794 S    
O4    Zn1   1.946737 S    
C43   C45   1.384346 A    
C17   H18   1.083741 S    
C44   C46   1.384345 A    
C5    C10   1.538784 S    
C31   C33   1.385722 A    
C32   C34   1.385723 A    
C19   C21   1.415070 A    
N7    O18   1.301460 A    
C6    H2    1.110625 S    
N1    C35   1.350477 A    
C5    C11   1.534072 S    
C41   C42   1.428349 A    
C6    C12   1.534074 S    
C8    C10   1.538119 S    
C13   C17   1.396381 A    
C29   H3    1.082312 S    
O2    C2    1.304918 A    
C30   H4    1.082306 S    
O2    Zn2   1.985232 S    
N5    O14   1.301901 A    
C39   C45   1.389485 A    
C35   C37   1.410393 A    
C8    H14   1.110498 S    
C36   C38   1.410392 A    
C7    C12   1.533772 S    
C8    C11   1.533775 S    
C32   C40   1.398700 A    
N6    O15   1.301913 A    
C46   H20   1.084492 S    
O4    C2    1.307621 A    
C34   H15   1.081096 S    
N4    O11   1.300361 A    
N1    C33   1.354483 A    
C40   C46   1.389485 A    
C15   C23   1.412143 A    
C4    C9    1.419415 S    
C21   C25   1.421414 A    
C19   N6    1.439064 S    
C38   C42   1.424067 A    
C42   C43   1.414062 A    
C20   C22   1.415072 A    
N2    C36   1.350474 A    
C28   H6    1.079423 S    
N3    O9    1.300468 A    
C25   C26   1.414690 A    
O7    C3    1.293146 A    
O5    C3    1.291398 A    
O5    Zn1   1.985357 S    
O6    C4    1.291402 A    
N8    O20   1.301469 A    
C16   N8    1.439676 S    
C35   H8    1.073659 S    
N3    O10   1.299784 A    
O3    Zn2   1.946737 S    
O8    C4    1.293140 A    
C1    C13   1.455268 S    
C12   N4    1.456884 S    
C7    H13   1.110500 S    
C37   C39   1.419023 A    
C10   C12   1.519818 S    
O1    Zn1   1.985235 S    
C43   H11   1.074798 S    
C5    C7    1.555271 S    
C41   C44   1.414061 A    
O6    Zn2   1.985356 S    
C31   H9    1.083886 S    
C22   C26   1.421421 A    
C11   N3    1.456887 S    
C28   C30   1.384559 A    
O3    C1    1.307618 A    
O8    Zn1   2.004409 S    
Zn1   N2    2.046900 S    
C14   C18   1.396385 A    
Zn2   N1    2.046900 S    
C3    C10   1.419427 S    
C27   H5    1.079435 S    
C9    C11   1.519806 S    
N7    O17   1.301599 A    
C2    C14   1.455265 S    
C16   C18   1.393986 A    
N8    O19   1.301598 A    
C21   C23   1.423433 A    
C38   C40   1.419021 A    
C15   N7    1.439673 S    
C22   C24   1.423435 A    
C23   C29   1.397319 A    
C7    C9    1.538110 S    
N2    C34   1.354480 A    
C16   C24   1.412135 A    
C6    C8    1.555293 S    
C18   H17   1.083735 S    
C32   H10   1.083882 S    
