data_mof_unit_35587.cif
_audit_creation_date              2012-12-10T18:02:12-0500
_audit_creation_method            fapswitch 2.2
_symmetry_space_group_name_H-M    P1
_symmetry_Int_Tables_number       1
_space_group_crystal_system       triclinic
_cell_length_a                    10.834389
_cell_length_b                    9.515911
_cell_length_c                    23.579531
_cell_angle_alpha                 89.589145
_cell_angle_beta                  90.344921
_cell_angle_gamma                 90.027641
_cell_volume                      2430.92120191

loop_
_atom_site_label
_atom_site_type_symbol
_atom_type_description
_atom_site_fract_x
_atom_site_fract_y
_atom_site_fract_z
_atom_type_partial_charge
C1    C     C_R   0.262047 0.499982 0.499945 0.796987
C2    C     C_R   0.737953 0.500018 0.500046 0.796643
C3    C     C_R   0.454342 0.621947 0.238366 -0.195236
C4    C     C_R   0.534566 0.370698 0.761607 -0.234143
C5    C     C_R   0.455583 0.620055 0.297980 0.470488
C6    C     C_R   0.533432 0.373468 0.701900 0.593081
C7    C     C_R   0.499388 0.501741 0.328272 -0.380326
C8    C     C_R   0.501830 0.497514 0.671951 -0.441406
C9    C     C_R   0.542642 0.384700 0.298272 0.482308
C10   C     C_R   0.471642 0.619209 0.702499 0.481079
C11   C     C_R   0.542571 0.386007 0.239269 0.587829
C12   C     C_R   0.472474 0.616905 0.761543 0.668948
C13   C     C_R   0.498878 0.503171 0.209058 0.057961
C14   C     C_R   0.503478 0.493912 0.791194 -0.021542
C15   C     C_R   0.063787 0.372282 0.499943 -0.129884
C16   C     C_R   0.936212 0.627717 0.500026 -0.129754
C17   C     C_R   0.936092 0.372303 0.500017 -0.116756
C18   C     C_R   0.063907 0.627697 0.499951 -0.117559
C19   C     C_R   0.871790 0.500022 0.500046 -0.035242
C20   C     C_R   0.128209 0.499978 0.499929 -0.035903
C21   C     C_R   0.420574 0.074948 0.465850 0.539743
C22   C     C_R   0.579409 0.925055 0.534162 0.549852
C23   C     C_R   0.579518 0.073802 0.534102 0.562340
C24   C     C_R   0.420442 0.926206 0.465923 0.552596
C25   C     C_R   0.499756 0.500488 0.390894 0.939071
C26   C     C_R   0.500539 0.499434 0.609183 0.932743
C27   C     C_R   0.605227 0.539988 0.880230 0.599776
C28   C     C_R   0.402770 0.441921 0.120219 0.687132
C29   C     C_R   0.400390 0.449050 0.879734 0.591070
C30   C     C_R   0.600566 0.550516 0.120314 0.641267
C31   C     C_R   0.398468 0.441585 0.939786 -0.091379
C32   C     C_R   0.608743 0.539213 0.060607 -0.107093
C33   C     C_R   0.504031 0.489726 0.970140 0.010245
C34   C     C_R   0.503121 0.491875 0.030244 0.000683
C35   C     C_R   0.610598 0.535575 0.940285 -0.109873
C36   C     C_R   0.396614 0.446776 0.060225 -0.072452
C37   C     C_R   0.293409 0.392542 0.970048 -0.072710
C38   C     C_R   0.718265 0.574457 0.030885 -0.076026
C39   C     C_R   0.289893 0.403152 0.029699 -0.058320
C40   C     C_R   0.718763 0.574408 0.970971 -0.074311
Cu1   Cu    Cu3+1 0.500000 0.640660 0.500000 1.126311
Cu2   Cu    Cu3+1 0.500000 0.359340 0.500000 1.126641
H1    H     H_    0.111764 0.272433 0.499910 0.193910
H2    H     H_    0.888235 0.727566 0.500060 0.193381
H3    H     H_    0.888022 0.272458 0.500043 0.194919
H4    H     H_    0.111977 0.727542 0.499924 0.195105
N1    N     N_R   0.502861 0.494803 0.852107 -0.417140
N2    N     N_R   0.500428 0.499363 0.148221 -0.395583
N3    N     N_R   0.500000 0.852070 0.500000 -0.351775
N4    N     N_R   0.500000 0.147930 0.500000 -0.349789
O1    O     O_R   0.319640 0.618740 0.500000 -0.550651
O2    O     O_R   0.680360 0.381260 0.500000 -0.551214
O3    O     O_R   0.680360 0.618740 0.500000 -0.564419
O4    O     O_R   0.319640 0.381260 0.500000 -0.562571
O5    O     O_R   0.499960 0.618810 0.417880 -0.503711
O6    O     O_R   0.500040 0.381190 0.582120 -0.503897
O7    O     O_R   0.500040 0.618810 0.582120 -0.492856
O8    O     O_R   0.499960 0.381190 0.417880 -0.499227
O9    O     O_2   0.700080 0.590853 0.849485 -0.498127
O10   O     O_2   0.313792 0.378474 0.150898 -0.479141
O11   O     O_2   0.300346 0.414603 0.848488 -0.509368
O12   O     O_2   0.690220 0.614117 0.150692 -0.505763
C41   C     C_2   0.187667 0.325261 0.940098 0.451552
H5    H     H_    0.204043 0.237545 0.911959 0.131021
O13   O     O_2   0.082546 0.368850 0.945809 -0.547420
C42   C     C_2   0.836652 0.594097 0.062215 0.542613
H6    H     H_    0.866627 0.514920 0.092646 0.118860
O14   O     O_2   0.898411 0.700323 0.056029 -0.420101
C43   C     C_2   0.171522 0.372125 0.058835 0.563407
H7    H     H_    0.125172 0.272416 0.052169 0.074007
O15   O     O_2   0.122388 0.460977 0.088202 -0.471166
C44   C     C_2   0.836698 0.601812 0.941058 0.569639
H8    H     H_    0.878247 0.519489 0.915966 0.121746
O16   O     O_2   0.884641 0.717847 0.942249 -0.423550
C45   C     C_2   0.405569 0.749001 0.208593 0.601632
H9    H     H_    0.376654 0.839519 0.232870 0.151897
O17   O     O_2   0.396087 0.755172 0.157042 -0.514344
C46   C     C_2   0.568719 0.240681 0.793520 0.612731
H10   H     H_    0.574993 0.241577 0.839440 0.021570
O18   O     O_2   0.590068 0.130496 0.769241 -0.378100
F1    F     F_    0.411108 0.732721 0.326449 -0.576904
F2    F     F_    0.565487 0.256104 0.673023 -0.520254
F3    F     F_    0.587442 0.269693 0.325904 -0.566856
F4    F     F_    0.439327 0.740286 0.675453 -0.546863
F5    F     F_    0.585562 0.272527 0.210972 -0.579012
F6    F     F_    0.442337 0.734880 0.790361 -0.550526
F7    F     F_    0.340976 0.145295 0.431383 -0.568459
F8    F     F_    0.658980 0.854708 0.568642 -0.557604
F9    F     F_    0.659757 0.142989 0.568236 -0.536771
F10   F     F_    0.340094 0.857036 0.431847 -0.539708

loop_
_geom_bond_atom_site_label_1
_geom_bond_atom_site_label_2
_ccdc_geom_bond_type
C42   O14   D    
C41   O13   D    
C6    F2    S    
C8    C26   S    
Cu1   Cu2   S    
C1    O4    A    
Cu2   O8    S    
C21   F7    S    
C29   N1    A    
C30   N2    A    
C17   H3    S    
C8    C10   A    
C46   O18   D    
C18   H4    S    
C45   O17   D    
C5    F1    S    
C15   C17   A    
C43   O15   D    
Cu1   O5    S    
Cu2   O6    S    
C38   C42   S    
C23   F9    S    
C32   C38   A    
C30   C32   A    
C3    C45   S    
C16   H2    S    
C34   C36   A    
C3    C13   A    
C42   H6    S    
C10   C12   A    
Cu1   N3    S    
C21   N4    A    
C37   C41   S    
C28   O10   S    
C15   C20   A    
C29   O11   S    
C44   O16   D    
C5    C7    A    
C46   H10   S    
C23   N4    A    
C6    C8    A    
C27   C35   A    
C31   C37   A    
C26   O6    A    
C32   C34   A    
C45   H9    S    
C4    C46   S    
C1    O1    A    
C31   C33   A    
C33   C34   A    
C39   C43   S    
C16   C18   A    
C9    C11   A    
Cu1   O3    S    
C2    O2    A    
Cu2   N4    S    
C22   N3    A    
C4    C6    A    
C12   C14   A    
C22   F8    S    
C30   O12   S    
C25   O8    A    
C27   N1    A    
C24   N3    A    
C7    C9    A    
C28   N2    A    
C1    C20   S    
C40   C44   S    
C2    C19   S    
C36   C39   A    
C25   O5    A    
C44   H8    S    
C3    C5    A    
C2    O3    A    
C24   F10   S    
C13   N2    S    
C9    F3    S    
C14   N1    S    
C7    C25   S    
C12   F6    S    
C35   C40   A    
Cu1   O7    S    
C29   C31   A    
C27   O9    S    
Cu2   O4    S    
C38   C40   A    
C11   C13   A    
C33   C35   A    
C11   F5    S    
C16   C19   A    
C10   F4    S    
C17   C19   A    
C18   C20   A    
C4    C14   A    
C43   H7    S    
C26   O7    A    
C15   H1    S    
C41   H5    S    
C28   C36   A    
C37   C39   A    
C21   C24   A    
C22   C23   A    
Cu1   O1    S    
Cu2   O2    S    
