data_mof_unit_8819.cif
_audit_creation_date              2012-10-26T20:19:12-0400
_audit_creation_method            fapswitch 2.2
_symmetry_space_group_name_H-M    P1
_symmetry_Int_Tables_number       1
_space_group_crystal_system       triclinic
_cell_length_a                    14.934299
_cell_length_b                    12.989533
_cell_length_c                    11.671867
_cell_angle_alpha                 100.045565
_cell_angle_beta                  93.475454
_cell_angle_gamma                 90.212623
_cell_volume                      2225.17303382

loop_
_atom_site_label
_atom_site_type_symbol
_atom_type_description
_atom_site_fract_x
_atom_site_fract_y
_atom_site_fract_z
_atom_type_partial_charge
C1    C     C_R   0.498928 0.299028 0.478525 0.546134
C2    C     C_R   0.503269 0.877268 0.644944 -0.145280
C3    C     C_R   0.500214 0.139581 0.566181 -0.137628
C4    C     C_R   0.501492 0.860473 0.434125 -0.133507
C5    C     C_R   0.500967 0.031512 0.556033 0.041066
C6    C     C_R   0.500648 0.968528 0.444304 0.045303
C7    C     C_R   0.419005 0.398226 0.021415 -0.178873
C8    C     C_R   0.581457 0.601324 0.978485 -0.177614
C9    C     C_R   0.426271 0.408477 0.143693 0.046542
C10   C     C_R   0.574009 0.591223 0.856225 0.042707
C11   C     C_R   0.534703 0.544337 0.157223 0.049373
C12   C     C_R   0.501548 0.700977 0.521512 0.541769
C13   C     C_R   0.465345 0.455606 0.842761 0.045569
C14   C     C_R   0.529496 0.536916 0.034324 0.007474
C15   C     C_R   0.470713 0.462885 0.965627 0.007463
C16   C     C_R   0.328771 0.500453 0.500804 0.542925
C17   C     C_R   0.671220 0.499500 0.499420 0.540545
C18   C     C_R   0.812824 0.589013 0.481674 -0.122466
C19   C     C_R   0.187996 0.417046 0.533738 -0.115893
C20   C     C_R   0.767881 0.500085 0.500255 -0.016732
C21   C     C_R   0.232326 0.502071 0.504220 -0.020620
C22   C     C_R   0.814497 0.416186 0.532851 -0.121837
C23   C     C_R   0.050489 0.333036 0.574951 0.302711
C24   C     C_R   0.186163 0.591825 0.488170 -0.126765
C25   C     C_R   0.908098 0.420322 0.550281 -0.023175
C26   C     C_R   0.094090 0.598916 0.504783 -0.024721
C27   C     C_R   0.954230 0.509832 0.528092 -0.054390
C28   C     C_R   0.047946 0.510233 0.528584 -0.056893
C29   C     C_R   0.906315 0.596275 0.497724 -0.016655
C30   C     C_R   0.095391 0.419603 0.545788 -0.005576
C31   C     C_R   0.956774 0.335610 0.584904 0.279734
C32   C     C_R   0.046794 0.691788 0.495149 0.292791
C33   C     C_3   0.862157 0.279416 0.714377 -0.011797
C34   C     C_R   0.952568 0.688081 0.483880 0.285108
C35   C     C_3   0.892000 0.221089 0.812991 -0.277376
C36   C     C_3   0.822768 0.229605 0.905093 -0.472548
C37   C     C_3   0.145170 0.823725 0.586730 0.002194
C38   C     C_3   0.096400 0.907666 0.667422 -0.270012
C39   C     C_3   0.157619 0.956689 0.772460 -0.491760
C40   C     C_3   0.112027 0.217076 0.689361 0.011180
C41   C     C_3   0.152891 0.306982 0.782012 -0.298816
C42   C     C_3   0.176502 0.269694 0.896947 -0.486766
C43   C     C_3   0.870429 0.836745 0.535391 0.007100
C44   C     C_3   0.790134 0.892287 0.487134 -0.250737
C45   C     C_R   0.502355 0.814463 0.534053 -0.003837
C46   C     C_3   0.750621 0.971861 0.582077 -0.476552
C47   C     C_R   0.499030 0.185558 0.466163 0.000648
C48   C     C_R   0.499455 0.014541 0.344478 -0.137179
C49   C     C_R   0.502516 0.985478 0.655872 -0.148777
C50   C     C_R   0.498541 0.122734 0.355336 -0.133106
Cu1   Cu    Cu3+1 0.506660 0.507730 0.615930 0.921797
Cu2   Cu    Cu3+1 0.493340 0.492270 0.384070 0.938075
H1    H     H_    0.773946 0.652856 0.457372 0.134579
H2    H     H_    0.497758 0.157091 0.277141 0.129653
H3    H     H_    0.614236 0.641323 0.814135 0.123280
H4    H     H_    0.386182 0.358184 0.185707 0.127544
H5    H     H_    0.791285 0.256540 0.686924 0.149104
H6    H     H_    0.864165 0.364921 0.750560 0.119293
H7    H     H_    0.902020 0.137128 0.777398 0.163653
H8    H     H_    0.956264 0.255600 0.855748 0.147193
H9    H     H_    0.811465 0.312954 0.942114 0.156737
H10   H     H_    0.847499 0.188852 0.976672 0.153105
H11   H     H_    0.758186 0.192510 0.866357 0.145929
H12   H     H_    0.226550 0.349022 0.546741 0.148342
H13   H     H_    0.206120 0.859575 0.559037 0.160273
H14   H     H_    0.169021 0.763412 0.638135 0.112352
H15   H     H_    0.072956 0.969698 0.618570 0.187403
H16   H     H_    0.037766 0.871439 0.700015 0.139113
H17   H     H_    0.178488 0.896609 0.825360 0.157461
H18   H     H_    0.121043 0.018841 0.827940 0.139010
H19   H     H_    0.218372 0.991927 0.743615 0.143251
H20   H     H_    0.160245 0.151885 0.682029 0.153261
H21   H     H_    0.049999 0.185410 0.717352 0.169870
H22   H     H_    0.214880 0.337433 0.750939 0.160904
H23   H     H_    0.373553 0.339989 0.970964 0.083655
H24   H     H_    0.104296 0.371670 0.798499 0.151802
H25   H     H_    0.116106 0.237014 0.929502 0.146202
H26   H     H_    0.202743 0.336604 0.963162 0.155758
H27   H     H_    0.228776 0.208779 0.885091 0.141774
H28   H     H_    0.921390 0.897019 0.573712 0.157864
H29   H     H_    0.847841 0.795914 0.605424 0.099939
H30   H     H_    0.811847 0.933393 0.417358 0.193899
H31   H     H_    0.737255 0.833923 0.448486 0.156029
H32   H     H_    0.724877 0.932137 0.650622 0.146226
H33   H     H_    0.694342 0.012518 0.543284 0.167523
H34   H     H_    0.627434 0.659106 0.028818 0.088369
H35   H     H_    0.802213 0.031212 0.622005 0.163844
H36   H     H_    0.499243 0.967003 0.258360 0.103770
H37   H     H_    0.503058 0.033003 0.742022 0.100925
H38   H     H_    0.420013 0.399156 0.789148 0.112062
H39   H     H_    0.579936 0.600867 0.210863 0.115019
H40   H     H_    0.776564 0.347292 0.541434 0.128639
H41   H     H_    0.222930 0.656266 0.464483 0.138465
H42   H     H_    0.501277 0.812422 0.348214 0.120377
H43   H     H_    0.500543 0.187648 0.652098 0.117537
H44   H     H_    0.504118 0.842886 0.723120 0.128793
N1    N     N_R   0.516670 0.519360 0.790130 -0.228474
N2    N     N_R   0.483330 0.480640 0.209870 -0.228407
O1    O     O_R   0.504720 0.354460 0.582000 -0.514481
O2    O     O_3   0.090472 0.783991 0.484289 -0.538904
O3    O     O_3   0.097938 0.241402 0.576065 -0.557251
O4    O     O_3   0.907100 0.768462 0.442587 -0.539788
O5    O     O_R   0.495280 0.645540 0.418000 -0.511868
O6    O     O_R   0.493480 0.341410 0.386200 -0.507687
O7    O     O_R   0.506520 0.658590 0.613800 -0.509194
O8    O     O_R   0.375880 0.506510 0.597910 -0.503161
O9    O     O_R   0.624120 0.493490 0.402090 -0.496622
O10   O     O_R   0.364640 0.493450 0.402110 -0.492820
O11   O     O_R   0.635360 0.506550 0.597890 -0.504370
O12   O     O_3   0.914463 0.249719 0.616150 -0.567074

loop_
_geom_bond_atom_site_label_1
_geom_bond_atom_site_label_2
_ccdc_geom_bond_type
C25   C31   A    
Cu2   O5    S    
Cu1   N1    S    
C9    N2    A    
C13   H38   S    
C27   C29   A    
C41   C42   S    
C35   C36   S    
C33   H6    S    
C44   H31   S    
C1    O1    A    
C23   O3    S    
C26   C32   A    
C34   O4    S    
C6    C48   A    
C11   N2    A    
C19   C21   A    
C24   C26   A    
C44   H30   S    
C17   O9    A    
C5    C6    A    
C11   C14   A    
C38   H16   S    
C17   C20   S    
C40   H21   S    
C35   H7    S    
Cu2   N2    S    
C18   H1    S    
C40   O3    S    
C39   H18   S    
Cu2   O9    S    
C22   C25   A    
C37   H13   S    
C8    C14   A    
C48   H36   S    
C36   H11   S    
C18   C20   A    
C16   O8    A    
C46   H33   S    
C48   C50   A    
C41   H22   S    
C42   H27   S    
Cu1   O11   S    
C39   H19   S    
C5    C49   A    
C36   H10   S    
C44   C46   S    
C47   C50   A    
C4    C45   A    
C2    C45   A    
Cu1   O1    S    
C38   C39   S    
Cu1   Cu2   S    
C23   C30   A    
C12   O5    A    
C4    C6    A    
C18   C29   A    
C1    C47   S    
C7    H23   S    
C7    C15   A    
C43   H28   S    
C29   C34   A    
C32   O2    S    
C35   H8    S    
C32   C34   A    
C10   N1    A    
C43   C44   S    
C37   C38   S    
C2    C49   A    
C19   H12   S    
Cu1   O7    S    
C37   H14   S    
C39   H17   S    
C9    H4    S    
C50   H2    S    
C10   H3    S    
C1    O6    A    
C4    H42   S    
C40   C41   S    
C20   C22   A    
C42   H26   S    
C13   C15   A    
C43   H29   S    
C46   H32   S    
C36   H9    S    
C46   H35   S    
C7    C9    A    
Cu2   O6    S    
C33   H5    S    
C40   H20   S    
C49   H37   S    
C12   C45   S    
C3    C5    A    
C17   O11   A    
C16   C21   S    
C25   C27   A    
C26   C28   A    
C2    H44   S    
C43   O4    S    
C28   C30   A    
C24   H41   S    
C41   H24   S    
C12   O7    A    
Cu1   O8    S    
C3    C47   A    
C33   C35   S    
C31   O12   S    
C8    H34   S    
C13   N1    A    
C16   O10   A    
C11   H39   S    
C38   H15   S    
Cu2   O10   S    
C42   H25   S    
C8    C10   A    
C21   C24   A    
C27   C28   A    
C22   H40   S    
C14   C15   A    
C3    H43   S    
C33   O12   S    
C19   C30   A    
C37   O2    S    
C23   C31   A    
