data_mof_unit_32902.cif
_audit_creation_date              2012-12-10T16:57:05-0500
_audit_creation_method            fapswitch 2.2
_symmetry_space_group_name_H-M    P1
_symmetry_Int_Tables_number       1
_space_group_crystal_system       triclinic
_cell_length_a                    7.758277
_cell_length_b                    8.579792
_cell_length_c                    16.715579
_cell_angle_alpha                 91.686022
_cell_angle_beta                  81.321116
_cell_angle_gamma                 93.708188
_cell_volume                      1097.40118481

loop_
_atom_site_label
_atom_site_type_symbol
_atom_type_description
_atom_site_fract_x
_atom_site_fract_y
_atom_site_fract_z
_atom_type_partial_charge
C1    C     C_R   0.546199 0.794812 0.497933 0.969119
C2    C     C_R   0.453797 0.205192 0.502120 0.975857
C3    C     C_2   0.570561 0.958238 0.496802 -0.377204
C4    C     C_2   0.429427 0.041756 0.503339 -0.382109
C5    C     C_R   0.481005 0.513409 0.653895 0.872938
C6    C     C_R   0.521687 0.498271 0.345704 0.871283
C7    C     C_R   0.486223 0.572141 0.736277 -0.047723
C8    C     C_R   0.536144 0.512836 0.258623 -0.053128
C9    C     C_R   0.649564 0.605696 0.761215 -0.208171
C10   C     C_R   0.400016 0.572527 0.225220 -0.208809
C11   C     C_R   0.660262 0.673213 0.836310 -0.178740
C12   C     C_R   0.421855 0.603515 0.143441 -0.154634
C13   C     C_R   0.507722 0.702890 0.889229 0.141421
C14   C     C_R   0.580364 0.575372 0.094003 0.141577
C15   C     C_R   0.344175 0.683742 0.862221 0.048503
C16   C     C_R   0.714256 0.507554 0.126797 0.031506
C17   C     C_R   0.334004 0.617035 0.785733 -0.239411
C18   C     C_R   0.691767 0.478073 0.209094 -0.236877
C19   C     C_2   0.517594 0.714287 0.975761 -0.217821
C20   C     C_2   0.599938 0.603581 0.007308 -0.195225
H1    H     H_    0.770138 0.579196 0.722999 0.160262
H2    H     H_    0.278133 0.598668 0.262470 0.163947
H3    H     H_    0.796648 0.429516 0.234621 0.161090
H4    H     H_    0.207973 0.599373 0.765197 0.155598
H5    H     H_    0.675438 0.522053 0.967553 0.167602
H6    H     H_    0.437496 0.794724 0.013850 0.160232
H7    H     H_    0.313214 0.647247 0.119031 0.152072
H8    H     H_    0.787304 0.691246 0.855695 0.161386
H9    H     H_    0.703821 0.009304 0.490586 0.180032
H10   H     H_    0.296166 0.990684 0.509566 0.180149
H11   H     H_    0.022813 0.381046 0.439597 0.190458
H12   H     H_    0.977181 0.618942 0.560414 0.186042
N1    N     N_2   0.953500 0.457650 0.478520 -0.174188
N2    N     N_2   0.046500 0.542350 0.521480 -0.175121
O1    O     O_R   0.388470 0.738640 0.505270 -0.612529
O2    O     O_R   0.611530 0.261360 0.494730 -0.609462
O3    O     O_R   0.679650 0.711510 0.491500 -0.629251
O4    O     O_R   0.320350 0.288490 0.508500 -0.625853
O5    O     O_R   0.337210 0.515200 0.623500 -0.618791
O6    O     O_R   0.662790 0.484800 0.376500 -0.618967
O7    O     O_R   0.628380 0.488060 0.609730 -0.627768
O8    O     O_R   0.371620 0.511940 0.390270 -0.628188
Zn1   Zn    Zn3+2 0.305580 0.518120 0.509190 0.940672
Zn2   Zn    Zn3+2 0.694420 0.481880 0.490810 0.941541
C21   C     C_1   0.185750 0.725649 0.913021 0.131743
N3    N     N_1   0.059074 0.760244 0.953621 -0.206976
C22   C     C_1   0.876263 0.468280 0.077914 0.137663
N4    N     N_1   0.005978 0.435973 0.039077 -0.195748

loop_
_geom_bond_atom_site_label_1
_geom_bond_atom_site_label_2
_ccdc_geom_bond_type
C2    C4    S    
H11   N1    S    
C15   C17   A    
C14   C20   S    
C11   C13   A    
C2    O4    A    
C19   C20   D    
C1    O3    A    
O3    Zn2   S    
C5    O5    A    
N1    N2    D    
C4    H10   S    
O4    Zn1   S    
C21   N3    T    
C10   H2    S    
C9    C11   A    
C9    H1    S    
C10   C12   A    
C11   H8    S    
C6    C8    S    
C16   C22   S    
C16   C18   A    
C12   C14   A    
C6    O6    A    
C13   C15   A    
C6    O8    A    
O7    Zn2   S    
C14   C16   A    
O2    Zn2   S    
C17   H4    S    
O8    Zn1   S    
C13   C19   S    
C12   H7    S    
C3    C4    D    
C22   N4    T    
C7    C9    A    
O6    Zn2   S    
O1    Zn1   S    
C1    O1    A    
C3    H9    S    
C20   H5    S    
C2    O2    A    
C5    C7    S    
C19   H6    S    
C5    O7    A    
O5    Zn1   S    
C1    C3    S    
N1    Zn2   S    
C8    C10   A    
C8    C18   A    
N2    Zn1   S    
C18   H3    S    
C7    C17   A    
C15   C21   S    
H12   N2    S    
