data_mof_unit_65585.cif
_audit_creation_date              2012-12-10T20:05:40-0500
_audit_creation_method            fapswitch 2.2
_symmetry_space_group_name_H-M    P1
_symmetry_Int_Tables_number       1
_space_group_crystal_system       triclinic
_cell_length_a                    12.843755
_cell_length_b                    18.989288
_cell_length_c                    18.501273
_cell_angle_alpha                 89.079708
_cell_angle_beta                  96.975876
_cell_angle_gamma                 90.766789
_cell_volume                      4478.06703631

loop_
_atom_site_label
_atom_site_type_symbol
_atom_type_description
_atom_site_fract_x
_atom_site_fract_y
_atom_site_fract_z
_atom_type_partial_charge
C1    C     C_R   0.504676 0.365363 0.501013 0.918257
C2    C     C_R   0.529114 0.290783 0.503947 -0.096362
C3    C     C_R   0.596021 0.963140 0.567856 -0.162816
C4    C     C_R   0.622991 0.038775 0.440365 -0.165641
C5    C     C_R   0.596788 0.036102 0.568171 -0.166012
C6    C     C_R   0.622530 0.965611 0.440092 -0.170650
C7    C     C_R   0.606175 0.074167 0.503746 0.123281
C8    C     C_R   0.604860 0.927558 0.503129 0.123668
C9    C     C_R   0.564701 0.545643 0.730138 -0.015121
C10   C     C_R   0.435540 0.454253 0.269822 -0.025339
C11   C     C_R   0.566995 0.546984 0.806336 -0.258150
C12   C     C_R   0.501265 0.634889 0.499507 0.935400
C13   C     C_R   0.433382 0.452922 0.193634 -0.259296
C14   C     C_R   0.502434 0.500675 0.841754 0.056570
C15   C     C_R   0.497859 0.499330 0.158261 0.056158
C16   C     C_R   0.298405 0.501158 0.485817 0.959475
C17   C     C_R   0.701562 0.498819 0.514200 0.959886
C18   C     C_R   0.436543 0.454404 0.798391 -0.292217
C19   C     C_R   0.563527 0.545696 0.201666 -0.290518
C20   C     C_R   0.436277 0.454653 0.722603 0.571044
C21   C     C_R   0.563652 0.545447 0.277444 0.572529
C22   C     C_R   0.490397 0.436944 0.961977 -0.165528
C23   C     C_R   0.582519 0.851927 0.499715 0.044967
C24   C     C_R   0.510036 0.563062 0.038042 -0.165524
C25   C     C_R   0.487927 0.436594 0.037673 -0.166307
C26   C     C_R   0.512520 0.563409 0.962345 -0.165901
C27   C     C_R   0.497847 0.499635 0.077004 0.140401
C28   C     C_R   0.502567 0.500370 0.923016 0.140826
C29   C     C_R   0.813156 0.501256 0.523027 -0.088744
C30   C     C_R   0.186746 0.498647 0.477106 -0.100035
C31   C     C_R   0.030549 0.435820 0.430597 -0.114359
C32   C     C_R   0.969313 0.564013 0.569627 -0.114084
C33   C     C_R   0.136359 0.448482 0.430622 -0.269231
C34   C     C_R   0.585788 0.149672 0.501208 0.041009
C35   C     C_R   0.863448 0.551532 0.569401 -0.267288
C36   C     C_R   0.132024 0.540106 0.521172 0.338357
C37   C     C_R   0.867932 0.459545 0.479257 0.341508
C38   C     C_R   0.025523 0.526460 0.522866 0.043592
C39   C     C_R   0.974408 0.473243 0.477492 0.042627
C40   C     C_R   0.482850 0.754577 0.441606 0.418123
C41   C     C_R   0.602269 0.262780 0.559885 0.415605
C42   C     C_R   0.513020 0.825208 0.441977 -0.196388
C43   C     C_R   0.629742 0.192386 0.558102 -0.196656
C44   C     C_R   0.621883 0.807503 0.557361 -0.155096
C45   C     C_R   0.514781 0.177935 0.445071 -0.143185
C46   C     C_R   0.591468 0.737247 0.557681 -0.233830
C47   C     C_R   0.486975 0.248214 0.446314 -0.223066
C48   C     C_R   0.522220 0.710274 0.500014 -0.099451
Cl1   Cl    Cl    0.802544 0.389636 0.428590 -0.600852
Cl2   Cl    Cl    0.197494 0.609630 0.572394 -0.595927
Cl3   Cl    Cl    0.351817 0.395424 0.671873 -0.560784
Cl4   Cl    Cl    0.647884 0.604799 0.328216 -0.557665
Cl5   Cl    Cl    0.392203 0.724813 0.368973 -0.553423
Cl6   Cl    Cl    0.666840 0.314136 0.630757 -0.561688
H1    H     H_    0.615056 0.581109 0.703467 0.131699
H2    H     H_    0.520167 0.613396 0.934410 0.142589
H3    H     H_    0.819732 0.583343 0.603132 0.162619
H4    H     H_    0.179982 0.416861 0.396668 0.165488
H5    H     H_    0.994298 0.395840 0.394552 0.207591
H6    H     H_    0.005492 0.604055 0.605620 0.208025
H7    H     H_    0.479644 0.859696 0.398235 0.169009
H8    H     H_    0.685766 0.170918 0.601075 0.171978
H9    H     H_    0.675875 0.827244 0.602220 0.147699
H10   H     H_    0.478772 0.145221 0.401292 0.147498
H11   H     H_    0.624204 0.703501 0.602298 0.157277
H12   H     H_    0.385271 0.418694 0.296451 0.136563
H13   H     H_    0.431977 0.269322 0.402509 0.157676
H14   H     H_    0.582649 0.062593 0.617419 0.148239
H15   H     H_    0.631209 0.938768 0.389987 0.151206
H16   H     H_    0.581096 0.934759 0.616867 0.143199
H17   H     H_    0.631926 0.067679 0.390496 0.147435
H18   H     H_    0.620015 0.583281 0.837255 0.151600
H19   H     H_    0.380525 0.416549 0.162689 0.152110
H20   H     H_    0.384026 0.418730 0.822935 0.173591
H21   H     H_    0.615989 0.581446 0.177168 0.173548
H22   H     H_    0.484263 0.387118 0.934077 0.148637
H23   H     H_    0.516146 0.612892 0.065934 0.149598
H24   H     H_    0.480284 0.386604 0.065601 0.142030
N1    N     N_R   0.500010 0.499980 0.689440 -0.117034
N2    N     N_R   0.499990 0.500020 0.310560 -0.120450
O1    O     O_R   0.500000 0.398180 0.560840 -0.539133
O2    O     O_R   0.500000 0.601820 0.439160 -0.542269
O3    O     O_R   0.499960 0.398180 0.439210 -0.630489
O4    O     O_R   0.500040 0.601820 0.560790 -0.633296
O5    O     O_R   0.346380 0.499990 0.550760 -0.543608
O6    O     O_R   0.653620 0.500010 0.449240 -0.549577
O7    O     O_R   0.346330 0.499980 0.429130 -0.637078
O8    O     O_R   0.653670 0.500020 0.570870 -0.628161
Zn1   Zn    Zn3+2 0.500030 0.500000 0.581210 1.056703
Zn2   Zn    Zn3+2 0.499970 0.500000 0.418790 1.051334

loop_
_geom_bond_atom_site_label_1
_geom_bond_atom_site_label_2
_ccdc_geom_bond_type
C6    H15   S    
C33   H4    S    
C17   O8    A    
C17   C29   S    
C14   C18   A    
C24   C27   A    
C22   H22   S    
C12   C48   S    
C15   C19   A    
C23   C42   A    
C19   C21   A    
C24   C26   A    
C20   Cl3   S    
C5    H14   S    
C38   C39   A    
C11   C14   A    
C2    C41   A    
C1    O1    A    
C8    C23   S    
C12   O4    A    
C1    C2    S    
C9    N1    A    
C45   C47   A    
C31   H5    S    
C22   C25   A    
C16   O7    A    
C31   C33   A    
C9    H1    S    
C32   C38   A    
C30   C33   A    
O1    Zn1   S    
C40   C42   A    
C18   H20   S    
C22   C28   A    
C41   C43   A    
C4    C7    A    
C47   H13   S    
C44   C46   A    
C10   H12   S    
C44   H9    S    
C46   C48   A    
C17   O6    A    
C32   C35   A    
C3    H16   S    
C46   H11   S    
C4    C6    A    
C3    C8    A    
O6    Zn2   S    
C5    C7    A    
C10   N2    A    
C11   H18   S    
C6    C8    A    
C23   C44   A    
C25   H24   S    
C37   Cl1   S    
C15   C27   S    
C12   O2    A    
C34   C45   A    
C9    C11   A    
C42   H7    S    
C13   H19   S    
C13   C15   A    
C16   O5    A    
C7    C34   S    
C25   C27   A    
O4    Zn1   S    
C32   H6    S    
C36   Cl2   S    
C40   C48   A    
O3    Zn2   S    
O5    Zn1   S    
C20   N1    A    
C34   C43   A    
C3    C5    A    
C10   C13   A    
C26   H2    S    
C2    C47   A    
C1    O3    A    
C29   C35   A    
C45   H10   S    
C26   C28   A    
O2    Zn2   S    
C30   C36   A    
C35   H3    S    
C36   C38   A    
C37   C39   A    
C21   N2    A    
C19   H21   S    
C31   C39   A    
C18   C20   A    
C21   Cl4   S    
N2    Zn2   S    
C41   Cl6   S    
N1    Zn1   S    
C24   H23   S    
O8    Zn1   S    
C40   Cl5   S    
O7    Zn2   S    
C29   C37   A    
C14   C28   S    
C16   C30   S    
C4    H17   S    
C43   H8    S    
