data_mof_unit_16479.cif
_audit_creation_date              2012-12-10T18:57:48-0500
_audit_creation_method            fapswitch 2.2
_symmetry_space_group_name_H-M    P1
_symmetry_Int_Tables_number       1
_space_group_crystal_system       triclinic
_cell_length_a                    10.662329
_cell_length_b                    9.954429
_cell_length_c                    8.940066
_cell_angle_alpha                 91.046553
_cell_angle_beta                  91.298992
_cell_angle_gamma                 90.642997
_cell_volume                      948.408966019

loop_
_atom_site_label
_atom_site_type_symbol
_atom_type_description
_atom_site_fract_x
_atom_site_fract_y
_atom_site_fract_z
_atom_type_partial_charge
C1    C     C_R   0.260487 0.499886 0.497727 0.931797
C2    C     C_R   0.739512 0.500114 0.502273 0.931796
C3    C     C_R   0.499742 0.499262 0.218904 0.934361
C4    C     C_R   0.500258 0.500738 0.781096 0.934361
C5    C     C_1   0.499902 0.498957 0.065351 -0.066104
C6    C     C_1   0.500098 0.501043 0.934648 -0.066104
C7    C     C_R   0.060873 0.458129 0.369144 0.157895
C8    C     C_R   0.939127 0.541871 0.630856 0.157894
C9    C     C_R   0.931098 0.451950 0.372973 0.097290
C10   C     C_R   0.068902 0.548050 0.627027 0.097290
C11   C     C_R   0.872067 0.498703 0.501991 -0.200105
C12   C     C_R   0.127933 0.501297 0.498009 -0.200105
C13   C     C_R   0.576681 0.074447 0.596344 0.332076
C14   C     C_R   0.423319 0.925552 0.403656 0.332076
C15   C     C_R   0.423996 0.068631 0.403219 0.324606
C16   C     C_R   0.576004 0.931369 0.596781 0.324607
N1    N     N_R   0.500000 0.857200 0.500000 -0.197678
N2    N     N_R   0.500000 0.142800 0.500000 -0.197678
O1    O     O_R   0.316770 0.614620 0.499990 -0.571219
O2    O     O_R   0.683230 0.385380 0.500010 -0.571219
O3    O     O_R   0.683230 0.614620 0.500010 -0.578664
O4    O     O_R   0.316770 0.385380 0.499990 -0.578664
O5    O     O_R   0.500010 0.614640 0.285340 -0.577110
O6    O     O_R   0.499990 0.385360 0.714660 -0.577110
O7    O     O_R   0.499990 0.614640 0.714660 -0.571128
O8    O     O_R   0.500010 0.385360 0.285340 -0.571128
Zn1   Zn    Zn3+2 0.500000 0.653120 0.500000 1.093936
Zn2   Zn    Zn3+2 0.500000 0.346880 0.500000 1.093936
I1    I     I_    0.154197 0.421837 0.164038 -0.103438
I2    I     I_    0.845803 0.578163 0.835962 -0.103437
I3    I     I_    0.824484 0.364754 0.188835 -0.136006
I4    I     I_    0.175516 0.635246 0.811165 -0.136005
Cl1   Cl    Cl    0.678669 0.164310 0.720411 -0.434780
Cl2   Cl    Cl    0.321331 0.835690 0.279589 -0.434780
Cl3   Cl    Cl    0.326882 0.150341 0.274728 -0.435729
Cl4   Cl    Cl    0.673118 0.849659 0.725271 -0.435729

loop_
_geom_bond_atom_site_label_1
_geom_bond_atom_site_label_2
_ccdc_geom_bond_type
C14   Cl2   S    
C15   N2    A    
C13   Cl1   S    
C7    I1    S    
O5    Zn1   S    
O7    Zn1   S    
O1    Zn1   S    
C3    O5    A    
C8    I2    S    
C2    O3    A    
C4    O7    A    
O3    Zn1   S    
C1    O4    A    
O4    Zn2   S    
C16   Cl4   S    
C9    C11   A    
C14   N1    A    
C5    C6    T    
C1    C12   S    
C10   C12   A    
C13   N2    A    
C8    C11   A    
C2    C11   S    
C8    C10   A    
C7    C12   A    
C4    O6    A    
C1    O1    A    
C9    I3    S    
C2    O2    A    
N1    Zn1   S    
C10   I4    S    
N2    Zn2   S    
C4    C6    S    
C13   C16   A    
C15   Cl3   S    
C7    C9    A    
C14   C15   A    
O2    Zn2   S    
O8    Zn2   S    
C3    O8    A    
O6    Zn2   S    
C16   N1    A    
C3    C5    S    
