data_mof_unit_7332.cif
_audit_creation_date              2012-12-10T17:59:16-0500
_audit_creation_method            fapswitch 2.2
_symmetry_space_group_name_H-M    P1
_symmetry_Int_Tables_number       1
_space_group_crystal_system       triclinic
_cell_length_a                    10.855203
_cell_length_b                    9.602804
_cell_length_c                    10.757494
_cell_angle_alpha                 90.194105
_cell_angle_beta                  93.848267
_cell_angle_gamma                 89.970619
_cell_volume                      1118.83050876

loop_
_atom_site_label
_atom_site_type_symbol
_atom_type_description
_atom_site_fract_x
_atom_site_fract_y
_atom_site_fract_z
_atom_type_partial_charge
C1    C     C_R   0.263189 0.500120 0.511873 0.788843
C2    C     C_3   0.624863 0.438895 0.933248 -0.400720
C3    C     C_R   0.064041 0.373077 0.543031 0.140161
C4    C     C_R   0.063588 0.628125 0.540003 0.141364
C5    C     C_R   0.935713 0.374650 0.530497 -0.148801
C6    C     C_R   0.935336 0.625926 0.527540 -0.152157
C7    C     C_R   0.871705 0.500063 0.516951 -0.095011
C8    C     C_R   0.129688 0.500451 0.531976 -0.061575
C9    C     C_R   0.423532 0.074222 0.415533 0.312028
C10   C     C_R   0.423693 0.925303 0.415370 0.299405
C11   C     C_R   0.574588 0.926270 0.583681 -0.075595
C12   C     C_R   0.574681 0.074267 0.583598 -0.067039
C13   C     C_R   0.500962 0.499709 0.259837 0.822817
C14   C     C_R   0.737676 0.499980 0.503967 0.857010
C15   C     C_R   0.500361 0.500405 0.739817 0.754903
C16   C     C_3   0.485429 0.649552 0.069946 -0.402197
C17   C     C_3   0.393641 0.411399 0.063249 -0.431351
C18   C     C_3   0.489697 0.651496 0.928095 -0.369633
C19   C     C_3   0.392375 0.413223 0.919955 -0.370515
C20   C     C_3   0.628108 0.437341 0.077950 0.465236
C21   C     C_3   0.503444 0.498805 0.121370 0.056672
C22   C     C_3   0.501619 0.501076 0.877505 0.080931
Cu1   Cu    Cu3+1 0.500020 0.640660 0.500000 0.944114
Cu2   Cu    Cu3+1 0.500020 0.359340 0.500000 0.959114
H1    H     H_    0.556552 0.721935 0.112185 0.227727
H2    H     H_    0.400306 0.302124 0.095222 0.206619
H3    H     H_    0.634909 0.871255 0.650965 0.134515
H4    H     H_    0.635095 0.129714 0.650807 0.134927
H5    H     H_    0.393764 0.689241 0.093790 0.173801
H6    H     H_    0.304695 0.453321 0.093317 0.170071
H7    H     H_    0.404179 0.701509 0.886146 0.177556
H8    H     H_    0.303340 0.457382 0.880528 0.164238
H9    H     H_    0.569558 0.715730 0.902649 0.191212
H10   H     H_    0.398483 0.304402 0.884876 0.188288
H11   H     H_    0.703228 0.500661 0.900941 0.172191
H12   H     H_    0.636062 0.331798 0.895907 0.187674
H13   H     H_    0.885529 0.277241 0.533106 0.165897
H14   H     H_    0.884891 0.723383 0.527668 0.165222
N1    N     N_R   0.500030 0.852070 0.500030 -0.172668
N2    N     N_R   0.500030 0.147930 0.500030 -0.169127
O1    O     O_R   0.319660 0.618740 0.499990 -0.591452
O2    O     O_R   0.319660 0.381260 0.499990 -0.593360
O3    O     O_R   0.499990 0.618790 0.317690 -0.581092
O4    O     O_R   0.499990 0.381210 0.317690 -0.550712
O5    O     O_R   0.680370 0.618830 0.500010 -0.576426
O6    O     O_R   0.680370 0.381170 0.500010 -0.567196
O7    O     O_R   0.500030 0.618780 0.682310 -0.594573
O8    O     O_R   0.500030 0.381220 0.682310 -0.594985
Br1   Br    Br    0.769851 0.545148 0.146977 -0.523524
Br2   Br    Br    0.658790 0.245665 0.134614 -0.506639
C23   C     C_3   0.125452 0.236119 0.577704 -0.816409
H15   H     H_    0.195887 0.251330 0.656341 0.235633
H16   H     H_    0.058295 0.158452 0.608848 0.211175
H17   H     H_    0.167923 0.190733 0.496648 0.250639
C24   C     C_3   0.124301 0.766649 0.570774 -0.816213
H18   H     H_    0.194594 0.755156 0.649985 0.236943
H19   H     H_    0.166633 0.808383 0.488449 0.251021
H20   H     H_    0.056772 0.845587 0.599414 0.210627
C25   C     C_3   0.338983 0.146036 0.317035 -0.791854
H21   H     H_    0.329332 0.257860 0.323926 0.272775
H22   H     H_    0.370321 0.121203 0.223587 0.219790
H23   H     H_    0.242505 0.110598 0.320860 0.185811
C26   C     C_3   0.340723 0.852906 0.315501 -0.814455
H24   H     H_    0.328546 0.741580 0.324249 0.275894
H25   H     H_    0.244559 0.890567 0.315218 0.191442
H26   H     H_    0.375592 0.874541 0.223071 0.210992

loop_
_geom_bond_atom_site_label_1
_geom_bond_atom_site_label_2
_ccdc_geom_bond_type
C2    H11   S    
C2    C22   S    
C23   H16   S    
C11   C12   A    
C26   H25   S    
C12   N2    A    
C16   C21   S    
Cu1   O5    S    
C5    H13   S    
C1    C8    S    
Cu2   O2    S    
C9    C10   A    
C10   C26   S    
Cu1   O1    S    
C15   O7    A    
Cu1   Cu2   S    
C23   H17   S    
Cu2   O6    S    
C24   H18   S    
C6    H14   S    
C26   H26   S    
C13   C21   S    
C25   H21   S    
C14   O6    A    
C16   C18   S    
C13   O4    A    
C11   N1    A    
C17   H6    S    
C6    C7    A    
C15   O8    A    
C12   H4    S    
C20   Br1   S    
C17   H2    S    
C1    O1    A    
C17   C19   S    
C11   H3    S    
C14   O5    A    
C24   H19   S    
C4    C24   S    
Cu2   O4    S    
C18   H9    S    
Cu1   N1    S    
C25   H22   S    
Cu1   O7    S    
C9    N2    A    
C19   H8    S    
C2    C20   S    
C26   H24   S    
Cu2   O8    S    
C1    O2    A    
C13   O3    A    
C19   C22   S    
Cu1   O3    S    
C20   C21   S    
C4    C6    A    
C3    C8    A    
C15   C22   S    
C24   H20   S    
C2    H12   S    
C16   H1    S    
C5    C7    A    
C3    C23   S    
Cu2   N2    S    
C25   H23   S    
C20   Br2   S    
C18   H7    S    
C4    C8    A    
C16   H5    S    
C18   C22   S    
C9    C25   S    
C7    C14   S    
C17   C21   S    
C23   H15   S    
C10   N1    A    
C3    C5    A    
C19   H10   S    
