data_mof_unit_68575.cif
_audit_creation_date              2012-12-11T17:53:01-0500
_audit_creation_method            fapswitch 2.2
_symmetry_space_group_name_H-M    P1
_symmetry_Int_Tables_number       1
_space_group_crystal_system       triclinic
_cell_length_a                    8.487516
_cell_length_b                    13.159755
_cell_length_c                    16.013648
_cell_angle_alpha                 107.864094
_cell_angle_beta                  97.37174
_cell_angle_gamma                 82.012945
_cell_volume                      1678.89315086

loop_
_atom_site_label
_atom_site_type_symbol
_atom_type_description
_atom_site_fract_x
_atom_site_fract_y
_atom_site_fract_z
_atom_type_partial_charge
Ba1   Ba    Ba6+2 0.363950 0.459210 0.542370 1.752574
Ba2   Ba    Ba6+2 0.825880 0.540700 0.457630 1.798737
C1    C     C_3   0.250349 0.198278 0.852219 -0.197103
C2    C     C_R   0.882646 0.533348 0.748298 -0.265733
C3    C     C_2   0.462664 0.337173 0.132110 -0.034470
C4    C     C_3   0.705427 0.244776 0.778327 0.855211
C5    C     C_2   0.443376 0.385805 0.217883 0.089268
C6    C     C_2   0.177267 0.471076 0.185910 -0.095019
C7    C     C_3   0.215910 0.445712 0.091197 0.072464
C8    C     C_3   0.329984 0.344352 0.061579 -0.014168
C9    C     C_2   0.077991 0.454644 0.024236 -0.132256
C10   C     C_2   0.093562 0.503195 0.963951 -0.061287
C11   C     C_R   0.812549 0.566185 0.920571 0.074753
C12   C     C_3   0.237465 0.258524 0.783302 0.409187
C13   C     C_R   0.964829 0.519657 0.896059 -0.078048
C14   C     C_R   0.698633 0.600243 0.860874 -0.173994
C15   C     C_R   0.734628 0.585551 0.774818 0.054573
C16   C     C_3   0.865699 0.191953 0.806487 -0.338789
C17   C     C_R   0.999065 0.503724 0.808964 -0.009436
C18   C     C_R   0.288052 0.832503 0.493021 -0.151613
C19   C     C_R   0.947199 0.189330 0.525689 -0.264857
C20   C     C_R   0.927242 0.025180 0.556545 -0.059827
C21   C     C_R   0.865045 0.131305 0.560699 -0.064383
C22   C     C_R   0.084776 0.144552 0.482316 0.040603
C23   C     C_3   0.010198 0.755517 0.720362 0.292259
C24   C     C_R   0.155489 0.035833 0.475248 -0.057005
C25   C     C_R   0.072106 0.976675 0.517192 0.024498
C26   C     C_R   0.135582 0.870858 0.520305 0.076616
C27   C     C_R   0.372218 0.884539 0.450835 0.108421
C28   C     C_3   0.766544 0.171086 0.291537 0.344776
C29   C     C_R   0.304390 0.983334 0.432988 0.347112
C30   C     C_3   0.754847 0.078261 0.208035 -0.233081
C31   C     C_3   0.439640 0.833433 0.720769 0.737552
C32   C     C_3   0.384350 0.858632 0.813246 -0.294097
C33   C     C_3   0.148617 0.257051 0.271676 0.398379
C34   C     C_3   0.968030 0.808834 0.814823 -0.383399
C35   C     C_3   0.110316 0.215236 0.169238 0.424886
C36   C     C_3   0.889219 0.211613 0.064543 0.051252
C37   C     C_3   0.621271 0.364182 0.909361 0.226795
C38   C     C_3   0.616576 0.738958 0.226232 0.795656
C39   C     C_3   0.660438 0.815612 0.180830 -0.303524
C40   C     C_3   0.035673 0.705890 0.166215 0.651275
C41   C     C_3   0.994461 0.765181 0.095803 -0.331790
C42   C     C_2   0.291119 0.449374 0.245835 -0.255285
H1    H     H_    0.311161 0.212619 0.728943 0.152034
H2    H     H_    0.070721 0.332938 0.296090 -0.061325
H3    H     H_    0.200228 0.120231 0.824095 0.132274
H4    H     H_    0.134927 0.278715 0.143279 0.251700
H5    H     H_    0.111379 0.266150 0.755580 -0.136023
H6    H     H_    0.183151 0.246304 0.908703 0.061246
H7    H     H_    0.906196 0.714377 0.682596 0.054267
H8    H     H_    0.115287 0.695004 0.720627 0.040964
H9    H     H_    0.858328 0.865596 0.815595 0.134702
H10   H     H_    0.946866 0.747394 0.845224 0.054853
H11   H     H_    0.066114 0.853415 0.855594 0.131134
H12   H     H_    0.873232 0.032204 0.196132 0.146992
H13   H     H_    0.376079 0.184308 0.878541 0.208433
H14   H     H_    0.933528 0.150397 0.748501 0.053067
H15   H     H_    0.718842 0.702327 0.260238 0.072075
H16   H     H_    0.701033 0.770645 0.115475 0.102782
H17   H     H_    0.556187 0.870619 0.167326 0.176844
H18   H     H_    0.752382 0.863807 0.223193 0.142963
H19   H     H_    0.150326 0.656852 0.149541 0.068500
H20   H     H_    0.926184 0.717052 0.037858 0.083829
H21   H     H_    0.102880 0.780455 0.072602 0.128927
H22   H     H_    0.924945 0.844306 0.119576 0.114607
H23   H     H_    0.670040 0.026280 0.215057 0.174911
H24   H     H_    0.570790 0.285223 0.112968 0.056488
H25   H     H_    0.584098 0.639698 0.882502 0.128511
H26   H     H_    0.270433 0.475330 0.315094 0.046561
H27   H     H_    0.911419 0.521736 0.681868 0.059172
H28   H     H_    0.968650 0.421998 0.025093 0.085799
H29   H     H_    0.208089 0.530954 0.963576 0.162838
H30   H     H_    0.862698 0.981746 0.585899 0.120769
H31   H     H_    0.339928 0.755130 0.499786 -0.004542
H32   H     H_    0.723696 0.320944 0.765420 -0.157656
H33   H     H_    0.897469 0.270686 0.528852 0.045161
H34   H     H_    0.707813 0.107672 0.151056 0.131426
H35   H     H_    0.932175 0.255282 0.853811 0.023388
H36   H     H_    0.850671 0.132240 0.840317 0.117398
H37   H     H_    0.855427 0.221040 0.288423 0.087320
H38   H     H_    0.808185 0.138512 0.347541 -0.010587
H39   H     H_    0.669574 0.007483 0.785123 0.343604
H40   H     H_    0.065081 0.981520 0.074989 0.328287
H41   H     H_    0.974343 0.178991 0.013154 0.086697
H42   H     H_    0.854464 0.298031 0.072132 0.071850
H43   H     H_    0.780759 0.169123 0.039269 0.094086
H44   H     H_    0.358015 0.757960 0.107055 0.350770
H45   H     H_    0.353084 0.789424 0.669029 -0.069820
H46   H     H_    0.222733 0.685951 0.327369 0.298100
H47   H     H_    0.575537 0.430277 0.880457 0.095401
H48   H     H_    0.746288 0.371087 0.938065 -0.016590
H49   H     H_    0.548109 0.371999 0.963796 0.124125
H50   H     H_    0.640622 0.045721 0.399034 0.336872
H51   H     H_    0.352001 0.785515 0.824702 0.064876
H52   H     H_    0.278134 0.919335 0.821000 0.132768
H53   H     H_    0.480719 0.891325 0.864670 0.130462
H54   H     H_    0.274056 0.275219 0.286696 -0.037228
O1    O     O_2   0.429050 0.611890 0.712090 -0.493034
O2    O     O_2   0.710346 0.846089 0.424234 -0.420059
O3    O     O_3   0.503708 0.794634 0.284123 -0.517502
O4    O     O_3   0.649820 0.584130 0.603850 -0.479341
O5    O     O_3   0.066730 0.358340 0.455880 -0.524745
O6    O     O_2   0.852540 0.775600 0.541830 -0.437543
O7    O     O_3   0.046667 0.833785 0.684687 -0.637433
O8    O     O_2   0.862987 0.466897 0.192650 -0.448313
O9    O     O_3   0.917711 0.640406 0.165630 -0.625225
O10   O     O_3   0.201480 0.401240 0.659120 -0.491556
O11   O     O_2   0.304194 0.545607 0.808095 -0.473257
O12   O     O_3   0.124869 0.182300 0.314736 -0.560734
O13   O     O_3   0.592668 0.778361 0.716855 -0.662268
O14   O     O_3   0.296401 0.357980 0.823584 -0.603400
O15   O     O_2   0.337150 0.224350 0.458110 -0.410965
O16   O     O_3   0.611620 0.334620 0.615460 -0.488177
O17   O     O_2   0.538171 0.135225 0.543042 -0.450520
O18   O     O_2   0.558023 0.935441 0.624328 -0.330026
O19   O     O_2   0.298885 0.011323 0.681130 -0.393554
O20   O     O_3   0.554712 0.033848 0.791092 -0.510290
O21   O     O_2   0.402575 0.101473 0.159113 -0.277794
O22   O     O_2   0.244234 0.093136 0.020910 -0.375761
O23   O     O_3   0.636304 0.171564 0.703322 -0.528419
O24   O     O_3   0.162071 0.987080 0.117295 -0.425212
O25   O     O_3   0.948469 0.195920 0.147055 -0.684667
O26   O     O_2   0.642929 0.552710 0.092284 -0.306155
O27   O     O_2   0.435183 0.586532 0.192963 -0.349518
O28   O     O_3   0.394956 0.684097 0.072670 -0.550268
O29   O     O_2   0.060492 0.910449 0.271474 -0.285049
O30   O     O_2   0.945803 0.794998 0.333020 -0.338453
O31   O     O_3   0.241109 0.747698 0.308488 -0.546309
O32   O     O_3   0.604252 0.263916 0.846253 -0.638543
O33   O     O_2   0.333691 0.942345 0.257425 -0.151734
O34   O     O_2   0.760640 0.388070 0.287860 -0.481580
O35   O     O_2   0.397323 0.114536 0.323897 -0.212763
O36   O     O_3   0.598749 0.983531 0.353925 -0.543061
O37   O     O_3   0.539890 0.415780 0.396140 -0.474635
O38   O     O_3   0.988230 0.598670 0.340870 -0.451325
O39   O     O_3   0.614883 0.226102 0.305086 -0.578952
O40   O     O_3   0.122980 0.641570 0.544110 -0.505832
O41   O     O_3   0.578090 0.665290 0.384530 -0.478524
P1    P     P_3+3 0.593410 0.640600 0.698510 0.951211
P2    P     P_3+3 0.154920 0.233850 0.431950 1.045238
P3    P     P_3+3 0.669577 0.196301 0.605875 0.987991
P4    P     P_3+3 0.596300 0.359310 0.301480 1.033448
P5    P     P_3+3 0.548705 0.799475 0.395001 1.179821
P6    P     P_3+3 0.198669 0.452526 0.773388 0.953699
P7    P     P_3+3 0.039802 0.780970 0.569667 0.991026
P8    P     P_3+3 0.989846 0.546366 0.224089 0.999083
S1    S     S_3+6 0.459892 0.956249 0.700715 -0.112511
S2    S     S_3+6 0.236204 0.097935 0.115308 -0.055140
S3    S     S_3+6 0.523436 0.635761 0.143646 -0.082302
S4    S     S_3+6 0.064493 0.796891 0.272730 -0.112126
S5    S     S_3+6 0.400206 0.011863 0.343505 0.019310

loop_
_geom_bond_atom_site_label_1
_geom_bond_atom_site_label_2
_ccdc_geom_bond_type
O21   S2    D    
C39   H17   S    
C4    O32   S    
Ba1   O1    S    
Ba1   O10   S    
C5    P4    S    
C23   O7    S    
C13   C17   A    
C24   C25   A    
C17   P6    S    
C36   H42   S    
O19   S1    D    
Ba2   O41   S    
O16   P3    S    
H39   O20   S    
C33   C35   S    
C22   C24   A    
O31   S4    S    
O3    P5    S    
C12   H5    S    
Ba2   O4    S    
H40   O24   S    
C32   H53   S    
O14   P6    S    
Ba1   Ba2   S    
C37   H49   S    
H44   O28   S    
C34   H9    S    
O29   S4    D    
C38   O3    S    
C35   O25   S    
C2    C17   A    
C16   H14   S    
C16   H35   S    
C41   H20   S    
Ba2   O34   S    
C21   P3    S    
C42   H26   S    
C31   O13   S    
C33   H54   S    
C40   O9    S    
Ba1   O5    S    
C36   O25   S    
O34   P4    D    
O37   P4    S    
O39   P4    S    
O17   P3    D    
C24   C29   A    
C38   H15   S    
C10   H29   S    
Ba2   P4    S    
H46   O31   S    
O33   S5    D    
O35   S5    D    
Ba1   O15   S    
C39   H18   S    
C3    H24   S    
O5    P2    S    
C37   H47   S    
C1    H6    S    
O13   P1    S    
C12   H1    S    
C18   C27   A    
C4    C16   S    
C36   H41   S    
Ba2   O40   S    
O24   S2    S    
O6    P7    D    
C34   H10   S    
C32   H51   S    
O2    P5    D    
C35   S2    S    
O18   S1    D    
C9    H28   S    
C6    C7    S    
C18   C26   A    
C27   P5    S    
Ba2   O38   S    
O8    P8    D    
C18   H31   S    
C28   H38   S    
O12   P2    S    
C12   O14   S    
C23   H7    S    
C31   S1    S    
C31   H45   S    
O9    P8    S    
O41   P5    S    
O30   S4    D    
C10   C13   S    
Ba2   O6    S    
C22   P2    S    
C41   H21   S    
O36   S5    S    
C31   C32   S    
O22   S2    D    
C38   S3    S    
O4    P1    S    
C5    C42   S    
C35   H4    S    
C40   S4    S    
C7    C9    S    
C33   O12   S    
C30   H23   S    
C2    C15   A    
C1    H13   S    
C38   C39   S    
C20   C25   A    
C11   C13   A    
O1    P1    D    
C19   C22   A    
C6    P8    S    
C40   C41   S    
C20   H30   S    
C37   H48   S    
C3    C5    D    
O10   P6    S    
C7    C8    S    
O26   S3    D    
O23   P3    S    
O11   P6    D    
C14   H25   S    
C6    C42   D    
C39   H16   S    
C32   H52   S    
C9    C10   D    
C4    H32   S    
C37   O32   S    
C1    C12   S    
C26   P7    S    
Ba2   O37   S    
C36   H43   S    
C28   H37   S    
C19   C21   A    
C23   H8    S    
C3    C8    S    
C27   C29   A    
C34   H11   S    
C28   C30   S    
C29   S5    S    
O28   S3    S    
C14   C15   A    
Ba2   O5    S    
O40   P7    S    
C41   H22   S    
O7    P7    S    
Ba1   O4    S    
C1    H3    S    
H50   O36   S    
O15   P2    D    
C15   P1    S    
O38   P8    S    
Ba1   P2    S    
O27   S3    D    
C23   C34   S    
C30   H34   S    
O20   S1    S    
C16   H36   S    
Ba1   O16   S    
C11   C14   A    
C19   H33   S    
C25   C26   A    
C28   O39   S    
C20   C21   A    
Ba1   P1    S    
C4    O23   S    
Ba1   O37   S    
C33   H2    S    
C40   H19   S    
C30   H12   S    
C2    H27   S    
Ba1   O40   S    
