data_mof_unit_21591.cif
_audit_creation_date              2013-03-05T15:45:58-0500
_audit_creation_method            fapswitch 2.2
_symmetry_space_group_name_H-M    P1
_symmetry_Int_Tables_number       1
_space_group_crystal_system       triclinic
_cell_length_a                    18.94322
_cell_length_b                    10.961236
_cell_length_c                    18.866633
_cell_angle_alpha                 89.99444
_cell_angle_beta                  89.97607
_cell_angle_gamma                 89.703157
_cell_volume                      3917.43558911

loop_
_atom_site_label
_atom_site_type_symbol
_atom_site_description
_atom_site_fract_x
_atom_site_fract_y
_atom_site_fract_z
_atom_type_partial_charge
O1    O     O_R   0.787510 0.042610 0.670410 -0.488324
O2    O     O_R   0.212490 0.042610 0.329590 -0.520332
O3    O     O_R   0.287510 0.542610 0.670410 -0.488317
O4    O     O_R   0.712490 0.542610 0.329590 -0.520312
O5    O     O_R   0.765670 0.292090 0.675090 -0.455450
O6    O     O_R   0.234330 0.292090 0.324910 -0.473943
O7    O     O_R   0.265670 0.792090 0.675090 -0.455462
O8    O     O_R   0.734330 0.792090 0.324910 -0.473910
C1    C     C_R   0.731520 0.378445 0.646557 0.546003
C2    C     C_R   0.271200 0.373708 0.355633 0.568975
C3    C     C_R   0.231520 0.878446 0.646557 0.546027
C4    C     C_R   0.771200 0.873709 0.355632 0.568992
O9    O     O_R   0.670220 0.409020 0.668560 -0.535715
O10   O     O_R   0.329780 0.409020 0.331440 -0.526470
O11   O     O_R   0.170220 0.909020 0.668560 -0.535690
O12   O     O_R   0.829780 0.909020 0.331440 -0.526473
O13   O     O_R   0.556580 0.251590 0.674980 -0.496998
O14   O     O_R   0.443420 0.251590 0.325020 -0.506438
O15   O     O_R   0.056580 0.751590 0.674980 -0.496973
O16   O     O_R   0.943420 0.751590 0.325020 -0.506401
C5    C     C_R   0.531991 0.155615 0.646620 0.554115
C6    C     C_R   0.463345 0.154165 0.356128 0.564280
C7    C     C_R   0.031991 0.655615 0.646620 0.554083
C8    C     C_R   0.963345 0.654165 0.356128 0.564360
O17   O     O_R   0.545890 0.049670 0.670030 -0.508951
O18   O     O_R   0.454110 0.049670 0.329970 -0.500010
O19   O     O_R   0.045890 0.549670 0.670030 -0.508960
O20   O     O_R   0.954110 0.549670 0.329970 -0.499987
O21   O     O_R   0.681340 0.957860 0.676500 -0.511430
O22   O     O_R   0.318660 0.957860 0.323500 -0.511328
O23   O     O_R   0.181340 0.457860 0.676500 -0.511419
O24   O     O_R   0.818660 0.457860 0.323500 -0.511366
C9    C     C_R   0.741355 0.968236 0.647821 0.552153
C10   C     C_R   0.260057 0.975254 0.354965 0.542169
C11   C     C_R   0.241355 0.468237 0.647821 0.552237
C12   C     C_R   0.760057 0.475253 0.354965 0.542140
O25   O     O_R   0.787380 0.044010 0.830940 -0.461891
O26   O     O_R   0.212620 0.044010 0.169060 -0.452571
O27   O     O_R   0.287380 0.544010 0.830940 -0.462248
O28   O     O_R   0.712620 0.544010 0.169060 -0.452534
O29   O     O_R   0.765540 0.293390 0.823910 -0.500322
O30   O     O_R   0.234460 0.293390 0.176090 -0.450509
O31   O     O_R   0.265540 0.793390 0.823910 -0.500398
O32   O     O_R   0.734460 0.793390 0.176090 -0.450759
C13   C     C_R   0.730188 0.379116 0.852001 0.543164
C14   C     C_R   0.271757 0.375712 0.146354 0.552948
C15   C     C_R   0.230189 0.879100 0.852002 0.543396
C16   C     C_R   0.771766 0.875691 0.146345 0.552961
O33   O     O_R   0.670090 0.410410 0.829090 -0.521520
O34   O     O_R   0.329910 0.410410 0.170910 -0.519548
O35   O     O_R   0.170090 0.910410 0.829090 -0.521540
O36   O     O_R   0.829910 0.910410 0.170910 -0.519718
O37   O     O_R   0.556450 0.252890 0.823790 -0.472387
O38   O     O_R   0.443550 0.252890 0.176210 -0.496708
O39   O     O_R   0.056450 0.752890 0.823790 -0.472917
O40   O     O_R   0.943550 0.752890 0.176210 -0.497187
C17   C     C_R   0.533412 0.157606 0.853919 0.567214
C18   C     C_R   0.465424 0.156157 0.145356 0.544917
C19   C     C_R   0.033374 0.657607 0.853899 0.567180
C20   C     C_R   0.965346 0.656132 0.145312 0.545310
O41   O     O_R   0.545750 0.051070 0.830560 -0.524922
O42   O     O_R   0.454250 0.051070 0.169440 -0.505733
O43   O     O_R   0.045750 0.551070 0.830560 -0.524905
O44   O     O_R   0.954250 0.551070 0.169440 -0.505920
O45   O     O_R   0.681210 0.959150 0.825320 -0.517213
O46   O     O_R   0.318790 0.959150 0.174680 -0.514884
O47   O     O_R   0.181210 0.459150 0.825320 -0.517043
O48   O     O_R   0.818790 0.459150 0.174680 -0.514880
C21   C     C_R   0.740935 0.971320 0.854362 0.579721
C22   C     C_R   0.258865 0.974490 0.144212 0.544924
C23   C     C_R   0.240929 0.471337 0.854367 0.580036
C24   C     C_R   0.758862 0.474461 0.144221 0.545003
Cr1   Cr    Cr6+3 0.771950 0.169480 0.750100 1.109365
Cr2   Cr    Cr6+3 0.228050 0.169480 0.249900 1.111357
Cr3   Cr    Cr6+3 0.271950 0.669480 0.750100 1.109220
Cr4   Cr    Cr6+3 0.728050 0.669480 0.249900 1.111425
Cr5   Cr    Cr6+3 0.614930 0.323340 0.749170 1.064522
Cr6   Cr    Cr6+3 0.385070 0.323340 0.250830 1.046020
Cr7   Cr    Cr6+3 0.114930 0.823340 0.749170 1.064384
Cr8   Cr    Cr6+3 0.885070 0.823340 0.250830 1.045669
Cr9   Cr    Cr6+3 0.616590 0.010620 0.750610 1.049080
Cr10  Cr    Cr6+3 0.383410 0.010620 0.249390 1.045513
Cr11  Cr    Cr6+3 0.116590 0.510620 0.750610 1.049205
Cr12  Cr    Cr6+3 0.883410 0.510620 0.249390 1.045437
O49   O     O_3   0.667820 0.167810 0.749960 -0.282697
O50   O     O_3   0.332180 0.167810 0.250040 -0.283425
O51   O     O_3   0.167820 0.667810 0.749960 -0.282593
O52   O     O_3   0.832180 0.667810 0.250040 -0.283309
C25   C     C_R   0.477624 0.158944 0.431563 0.031054
C26   C     C_R   0.496109 0.165747 0.578888 0.013259
C27   C     C_R   0.977623 0.658945 0.431563 0.031047
C28   C     C_R   0.996109 0.665748 0.578888 0.013236
C29   C     C_R   0.489327 0.269672 0.465828 -0.006252
C30   C     C_R   0.499530 0.272871 0.538432 0.001060
C31   C     C_R   0.989330 0.769672 0.465828 -0.006245
C32   C     C_R   0.999533 0.772871 0.538432 0.001064
C33   C     C_R   0.471561 0.059295 0.546274 -0.142210
C34   C     C_R   0.462846 0.055586 0.473275 -0.127110
C35   C     C_R   0.971558 0.559299 0.546275 -0.142216
C36   C     C_R   0.962841 0.555590 0.473276 -0.127112
C37   C     C_3   0.545299 0.361769 0.452188 -0.272251
C38   C     C_3   0.557306 0.364360 0.531610 -0.246269
C39   C     C_3   0.045305 0.861764 0.452187 -0.272257
C40   C     C_3   0.057312 0.864355 0.531609 -0.246261
H1    H     H_    0.466443 0.975437 0.575774 0.193202
H2    H     H_    0.446931 0.970177 0.449565 0.154765
H3    H     H_    0.966437 0.475442 0.575776 0.193201
H4    H     H_    0.946923 0.470183 0.449566 0.154756
H5    H     H_    0.023217 0.948653 0.431140 0.158122
H6    H     H_    0.109442 0.825906 0.547019 0.164567
H7    H     H_    0.523208 0.448657 0.431142 0.158136
H8    H     H_    0.609437 0.325915 0.547020 0.164570
H9    H     H_    0.590830 0.323919 0.421948 0.152465
H10   H     H_    0.543260 0.453301 0.556308 0.149923
H11   H     H_    0.090834 0.823909 0.421947 0.152472
H12   H     H_    0.043268 0.953297 0.556306 0.149929
C41   C     C_R   0.688501 0.893498 0.536810 -0.142694
C42   C     C_R   0.303877 0.869321 0.462178 -0.146555
C43   C     C_R   0.188498 0.393510 0.536808 -0.142702
C44   C     C_R   0.803877 0.369320 0.462177 -0.146556
H13   H     H_    0.637188 0.889892 0.562177 0.176371
H14   H     H_    0.341630 0.820175 0.429596 0.164025
H15   H     H_    0.137185 0.389916 0.562174 0.176367
H16   H     H_    0.841631 0.320175 0.429596 0.164019
C45   C     C_R   0.692107 0.885437 0.463095 0.020916
C46   C     C_R   0.306261 0.858062 0.535927 0.033188
C47   C     C_R   0.192106 0.385448 0.463093 0.020920
C48   C     C_R   0.806261 0.358062 0.535927 0.033187
C49   C     C_R   0.758638 0.899506 0.430277 0.004200
C50   C     C_R   0.254965 0.922361 0.577142 -0.001097
C51   C     C_R   0.258639 0.399503 0.430277 0.004211
C52   C     C_R   0.754965 0.422359 0.577141 -0.001110
C53   C     C_R   0.819347 0.918075 0.472060 -0.122254
C54   C     C_R   0.212016 0.010266 0.544715 -0.164670
C55   C     C_R   0.319349 0.418058 0.472061 -0.122255
C56   C     C_R   0.712013 0.510262 0.544714 -0.164681
H17   H     H_    0.871449 0.925427 0.448921 0.163416
H18   H     H_    0.174682 0.064369 0.575056 0.154190
H19   H     H_    0.371452 0.425398 0.448924 0.163409
H20   H     H_    0.674679 0.564364 0.575055 0.154184
C57   C     C_R   0.814813 0.926066 0.544537 -0.110154
C58   C     C_R   0.211048 0.021092 0.472084 -0.143007
C59   C     C_R   0.314813 0.426053 0.544538 -0.110142
C60   C     C_R   0.711045 0.521087 0.472083 -0.143001
H21   H     H_    0.862187 0.944236 0.574859 0.154570
H22   H     H_    0.175675 0.088113 0.448986 0.174514
H23   H     H_    0.362187 0.444214 0.574862 0.154566
H24   H     H_    0.675671 0.588105 0.448985 0.174523
C61   C     C_R   0.749237 0.919221 0.576995 -0.002609
C62   C     C_R   0.255158 0.947761 0.430117 -0.007217
C63   C     C_R   0.249235 0.419222 0.576994 -0.002596
C64   C     C_R   0.755157 0.447757 0.430116 -0.007214
C65   C     C_R   0.463855 0.079835 0.953482 -0.120021
C66   C     C_R   0.451742 0.075852 0.025577 -0.127045
C67   C     C_R   0.964577 0.578537 0.953607 -0.121077
C68   C     C_R   0.952639 0.574429 0.025712 -0.126873
H25   H     H_    0.440533 0.011167 0.919562 0.142058
H26   H     H_    0.417387 0.005868 0.046099 0.149413
H27   H     H_    0.941966 0.508905 0.919852 0.142476
H28   H     H_    0.919105 0.503325 0.046344 0.149889
C69   C     C_R   0.483510 0.161076 0.070949 0.004112
C70   C     C_R   0.508144 0.169137 0.925982 0.062043
C71   C     C_R   0.983481 0.660973 0.070908 0.003521
C72   C     C_R   0.007901 0.669092 0.925900 0.061001
C73   C     C_R   0.526355 0.252370 0.043664 -0.120832
C74   C     C_R   0.539146 0.256129 0.971105 -0.063167
C75   C     C_R   0.025234 0.753606 0.043403 -0.122290
C76   C     C_R   0.037968 0.757362 0.970836 -0.063110
H29   H     H_    0.551238 0.317025 0.078808 0.173822
H30   H     H_    0.575500 0.323489 0.950675 0.168569
H31   H     H_    0.049314 0.819396 0.078405 0.175288
H32   H     H_    0.073571 0.825813 0.950272 0.170913
C77   C     C_R   0.815541 0.904997 0.954983 0.193793
C78   C     C_R   0.196667 0.002373 0.028720 0.195859
C79   C     C_R   0.315469 0.404525 0.954946 0.193553
C80   C     C_R   0.696562 0.502088 0.028780 0.195604
C81   C     C_R   0.821689 0.892643 0.027774 -0.108948
C82   C     C_R   0.200158 0.996249 0.956216 -0.110170
C83   C     C_R   0.321632 0.392110 0.027740 -0.108861
C84   C     C_R   0.700034 0.496065 0.956271 -0.110211
H33   H     H_    0.873448 0.874011 0.049887 0.174680
H34   H     H_    0.160457 0.045560 0.926092 0.179724
H35   H     H_    0.373344 0.373018 0.049832 0.174901
H36   H     H_    0.660230 0.545207 0.926194 0.179850
C85   C     C_R   0.761888 0.900386 0.071793 0.000480
C86   C     C_R   0.247855 0.917927 0.923068 -0.020923
C87   C     C_R   0.261885 0.400385 0.071802 0.000881
C88   C     C_R   0.747839 0.417985 0.923070 -0.020903
C89   C     C_R   0.695219 0.919282 0.043016 -0.103468
C90   C     C_R   0.298460 0.854506 0.963098 -0.155282
C91   C     C_R   0.195248 0.419867 0.043078 -0.103138
C92   C     C_R   0.798571 0.354792 0.963057 -0.155102
H37   H     H_    0.648987 0.925526 0.076685 0.164781
H38   H     H_    0.335179 0.791608 0.938276 0.167713
H39   H     H_    0.149057 0.426482 0.076782 0.164369
H40   H     H_    0.835379 0.292090 0.938199 0.167670
C93   C     C_R   0.688315 0.930742 0.970205 -0.155491
C94   C     C_R   0.299564 0.867592 0.036350 -0.189545
C95   C     C_R   0.188326 0.431376 0.970273 -0.155211
C96   C     C_R   0.799694 0.367842 0.036312 -0.189192
H41   H     H_    0.636372 0.950423 0.948909 0.154906
H42   H     H_    0.339881 0.820316 0.066596 0.154829
H43   H     H_    0.136423 0.451488 0.949011 0.154699
H44   H     H_    0.840091 0.320713 0.066528 0.154468
C97   C     C_R   0.748376 0.926140 0.926053 0.010817
C98   C     C_R   0.249115 0.941606 0.070026 -0.007873
C99   C     C_R   0.248338 0.426232 0.926074 0.010881
C100  C     C_R   0.749124 0.441548 0.070038 -0.007771
N1    N     N_R   0.877680 0.898990 0.911529 0.080449
O53   O     O_R   0.935004 0.954274 0.931292 -0.318406
O54   O     O_R   0.877422 0.837885 0.852388 -0.341290
N2    N     N_R   0.138108 0.068766 0.058240 0.087685
O55   O     O_R   0.074323 0.032742 0.044366 -0.348881
O56   O     O_R   0.146864 0.181426 0.077160 -0.319998
N3    N     N_R   0.377552 0.397894 0.911430 0.080395
O57   O     O_R   0.435223 0.451886 0.931366 -0.317665
O58   O     O_R   0.376970 0.337118 0.852179 -0.341490
N4    N     N_R   0.637906 0.568132 0.058366 0.087716
O59   O     O_R   0.574180 0.531467 0.044786 -0.347808
O60   O     O_R   0.646409 0.680937 0.077130 -0.320109
C101  C     C_2   0.625362 0.869159 0.423043 0.568205
O61   O     O_2   0.617192 0.917978 0.365316 -0.498174
O62   O     O_R   0.570708 0.800603 0.452669 -0.726071
H45   H     H_    0.528057 0.795121 0.420409 0.343025
C102  C     C_2   0.363955 0.781563 0.566324 0.577725
O63   O     O_2   0.389718 0.806620 0.623891 -0.508745
O64   O     O_R   0.392173 0.685100 0.526705 -0.723188
H46   H     H_    0.432666 0.642351 0.551774 0.335653
C103  C     C_2   0.125362 0.369182 0.423039 0.568205
O65   O     O_2   0.117197 0.418008 0.365314 -0.498168
O66   O     O_R   0.070704 0.300630 0.452661 -0.726064
H47   H     H_    0.028055 0.295157 0.420399 0.343016
C104  C     C_2   0.863956 0.281567 0.566324 0.577723
O67   O     O_2   0.889717 0.306624 0.623892 -0.508734
O68   O     O_R   0.892178 0.185109 0.526705 -0.723195
H48   H     H_    0.932673 0.142365 0.551773 0.335659

loop_
_geom_bond_atom_site_label_1
_geom_bond_atom_site_label_2
_geom_bond_distance
_ccdc_geom_bond_type
C18   O42   1.257159 A    
O17   Cr9   2.069725 S    
O4    C12   1.256833 A    
C53   H17   1.082429 S    
C29   C30   1.383913 A    
O39   C19   1.268470 A    
O20   Cr12  2.072655 S    
C37   H9    1.112410 S    
O29   C13   1.267123 A    
C58   H22   1.083357 S    
C66   C69   1.404992 A    
C38   H8    1.110515 S    
C31   C32   1.383913 A    
C79   C99   1.402825 A    
C56   H20   1.083937 S    
C43   H15   1.084175 S    
O26   C22   1.249270 A    
C33   C34   1.387800 A    
C10   C62   1.452534 S    
C57   C61   1.387113 A    
C24   C100  1.457405 S    
O7    C3    1.264163 A    
C80   C84   1.371124 A    
C73   C74   1.390764 A    
C78   N2    1.435800 S    
O24   C12   1.272171 A    
C7    C28   1.451635 S    
C91   C95   1.385569 A    
C66   H26   1.080174 S    
C47   C103  1.484787 S    
N3    O58   1.301456 A    
O30   C14   1.278409 A    
C81   H33   1.084123 S    
C1    C52   1.464822 S    
C83   C87   1.406556 A    
C46   C50   1.427575 A    
C89   C93   1.385592 A    
O21   C9    1.264513 A    
O8    Cr4   1.955834 S    
C20   C71   1.446075 S    
C81   C85   1.406572 A    
O32   Cr4   1.949321 S    
C42   H14   1.084082 S    
C42   C62   1.396066 A    
C1    O9    1.276189 A    
C2    C51   1.455668 S    
O44   Cr12  2.068080 S    
C41   H13   1.084174 S    
C19   C72   1.446657 S    
C84   C88   1.391598 A    
C102  O64   1.398721 S    
C70   C74   1.408991 A    
C3    O11   1.276189 A    
C54   C58   1.375545 A    
O41   Cr9   2.065161 S    
O11   Cr7   2.073776 S    
C17   C70   1.446531 S    
C4    O12   1.262357 A    
C68   C71   1.405236 A    
C94   H42   1.083359 S    
O68   H48   1.013996 S    
C93   H41   1.083645 S    
O6    Cr2   1.955834 S    
O27   Cr3   2.073374 S    
C14   C87   1.444344 S    
C15   O35   1.263754 A    
O3    Cr3   2.068100 S    
C104  O67   1.222738 D    
Cr4   O52   1.972552 S    
C26   C33   1.400848 A    
C87   C91   1.389408 A    
O2    Cr2   2.069957 S    
C60   H24   1.083356 S    
C33   H1    1.079283 S    
O2    C10   1.256832 A    
C23   C99   1.446962 S    
C54   H18   1.083936 S    
O42   Cr10  2.068080 S    
Cr5   O49   1.972991 S    
C96   C100  1.402437 A    
C80   N4    1.435789 S    
C78   C82   1.371118 A    
Cr8   O52   1.981943 S    
C95   H43   1.083641 S    
C50   C54   1.398869 A    
C11   C63   1.447643 S    
O8    C4    1.277142 A    
O34   Cr6   2.065655 S    
Cr7   O51   1.972991 S    
C31   C39   1.490073 S    
Cr9   O49   1.981912 S    
C26   C30   1.402179 A    
C67   C68   1.379712 A    
C83   H35   1.084122 S    
C5    C26   1.451634 S    
C28   C32   1.402176 A    
C73   H29   1.080688 S    
O24   Cr12  1.949276 S    
O9    Cr5   2.073776 S    
C36   H4    1.081922 S    
C44   C64   1.396064 A    
C4    C49   1.455673 S    
O22   C10   1.272170 A    
O1    C9    1.272179 A    
O48   Cr12  1.952500 S    
C37   C38   1.515968 S    
C8    O20   1.260295 A    
C72   C76   1.409108 A    
C39   H11   1.112411 S    
C93   C97   1.410495 A    
C2    O10   1.262355 A    
C29   C37   1.490073 S    
C75   C76   1.390718 A    
O16   Cr8   1.947197 S    
C12   C64   1.452535 S    
C92   C96   1.389663 A    
C75   H31   1.080717 S    
Cr10  O50   1.973153 S    
C25   C34   1.408602 A    
C67   H27   1.084114 S    
C57   H21   1.083778 S    
C25   C29   1.394001 A    
O13   C5    1.270966 A    
O62   H45   1.013767 S    
O40   C20   1.276914 A    
O43   Cr11  2.065161 S    
O48   C24   1.282843 A    
O12   Cr8   2.068987 S    
C79   N3    1.435523 S    
C86   C90   1.402212 A    
O15   C7    1.270965 A    
N3    O57   1.300904 A    
O5    C1    1.264164 A    
C103  O65   1.222949 D    
C38   H10   1.111599 S    
C89   H37   1.083569 S    
C96   H44   1.083347 S    
O46   Cr10  1.952500 S    
C101  O61   1.222950 D    
O39   Cr7   1.952656 S    
O25   C21   1.269279 A    
C51   C55   1.410175 A    
N4    O60   1.297064 A    
O64   H46   1.013997 S    
C103  O66   1.398758 S    
C13   O33   1.263698 A    
C71   C75   1.390581 A    
C52   C56   1.398871 A    
C95   C99   1.410482 A    
N1    O53   1.301008 A    
O23   Cr11  1.945581 S    
O7    Cr3   1.954799 S    
O47   Cr11  1.948754 S    
Cr2   O50   1.972552 S    
C15   C86   1.446636 S    
O15   Cr7   1.951928 S    
C104  O68   1.398717 S    
O35   Cr7   2.070785 S    
Cr1   O49   1.972740 S    
C82   H34   1.084806 S    
O30   Cr2   1.949321 S    
C85   C89   1.389437 A    
C49   C53   1.410180 A    
O25   Cr1   2.073374 S    
O14   Cr6   1.947197 S    
C101  O62   1.398759 S    
O21   Cr9   1.945581 S    
C74   H30   1.083033 S    
C7    O19   1.268786 A    
C32   C40   1.493765 S    
C45   C49   1.413105 A    
C79   C83   1.385022 A    
O37   Cr5   1.952656 S    
C27   C36   1.408599 A    
O23   C11   1.264510 A    
C19   O43   1.268754 A    
C46   C102  1.489090 S    
C22   C98   1.457412 S    
O18   Cr10  2.072655 S    
O3    C11   1.272180 A    
C3    C50   1.464824 S    
C92   H40   1.083187 S    
C59   H23   1.083778 S    
C39   C40   1.515967 S    
C90   C94   1.389634 A    
O31   Cr3   1.948633 S    
O26   Cr2   2.075576 S    
C76   H32   1.083203 S    
Cr3   O51   1.972740 S    
C48   C104  1.489091 S    
C5    O17   1.268784 A    
C48   C52   1.427574 A    
O37   C17   1.268389 A    
O22   Cr10  1.949276 S    
O28   C24   1.249367 A    
C102  O63   1.222740 D    
O14   C6    1.274053 A    
C53   C57   1.372835 A    
O5    Cr1   1.954799 S    
C77   N1    1.435431 S    
Cr12  O52   1.973153 S    
N2    O56   1.296974 A    
O40   Cr8   1.948224 S    
Cr11  O51   1.981912 S    
O6    C2    1.277142 A    
C77   C97   1.402820 A    
C44   C48   1.397583 A    
C13   C88   1.446759 S    
C17   O41   1.268740 A    
C68   H28   1.080445 S    
C45   C101  1.484793 S    
C67   C72   1.392846 A    
C37   H7    1.111655 S    
C35   H3    1.079277 S    
C88   C92   1.402182 A    
C14   O34   1.256031 A    
C21   C97   1.447024 S    
C34   H2    1.081927 S    
C35   C36   1.387800 A    
C20   O44   1.256955 A    
C65   C70   1.392579 A    
C39   H5    1.111654 S    
C55   H19   1.082428 S    
O1    Cr1   2.068100 S    
C40   H12   1.111599 S    
C80   C100  1.425269 A    
C47   C51   1.413099 A    
O19   Cr11  2.069725 S    
C65   C66   1.380034 A    
C16   C85   1.444387 S    
C56   C60   1.375544 A    
O32   C16   1.278413 A    
C9    C61   1.447645 S    
C40   H6    1.110514 S    
O13   Cr5   1.951928 S    
C58   C62   1.401367 A    
N4    O59   1.299895 A    
O46   C22   1.282915 A    
O31   C15   1.266997 A    
O45   C21   1.264964 A    
C59   C63   1.387114 A    
C55   C59   1.372837 A    
N1    O54   1.301470 A    
C6    C25   1.449798 S    
O33   Cr5   2.070785 S    
O47   C23   1.264932 A    
O10   Cr6   2.068987 S    
C65   H25   1.083990 S    
C91   H39   1.083577 S    
O4    Cr4   2.069957 S    
C43   C63   1.407893 A    
C44   H16   1.084082 S    
C90   H38   1.083186 S    
O29   Cr1   1.948633 S    
C8    C27   1.449798 S    
C82   C86   1.391442 A    
O28   Cr4   2.075576 S    
C16   O36   1.256023 A    
O38   C18   1.276780 A    
N2    O55   1.299866 A    
C30   C38   1.493767 S    
C27   C31   1.393995 A    
C60   C64   1.401368 A    
Cr6   O50   1.981943 S    
C6    O18   1.260293 A    
O66   H47   1.013766 S    
C78   C98   1.425409 A    
O27   C23   1.269267 A    
O45   Cr9   1.948754 S    
C94   C98   1.402395 A    
C41   C61   1.407890 A    
C42   C46   1.397582 A    
C77   C81   1.384872 A    
O36   Cr8   2.065655 S    
C18   C69   1.445945 S    
C41   C45   1.395202 A    
O16   C8    1.274051 A    
C69   C73   1.390359 A    
C84   H36   1.084797 S    
C28   C35   1.400842 A    
O38   Cr6   1.948224 S    
C43   C47   1.395201 A    
