data_mof_unit_52768.cif
_audit_creation_date              2012-10-26T20:03:21-0400
_audit_creation_method            fapswitch 2.2
_symmetry_space_group_name_H-M    P1
_symmetry_Int_Tables_number       1
_space_group_crystal_system       triclinic
_cell_length_a                    10.602571
_cell_length_b                    12.341745
_cell_length_c                    13.111272
_cell_angle_alpha                 116.498786
_cell_angle_beta                  77.655527
_cell_angle_gamma                 101.376431
_cell_volume                      1489.70839228

loop_
_atom_site_label
_atom_site_type_symbol
_atom_type_description
_atom_site_fract_x
_atom_site_fract_y
_atom_site_fract_z
_atom_type_partial_charge
C1    C     C_R   0.512552 0.855217 0.286184 0.572142
C2    C     C_R   0.506390 0.566960 0.010365 -0.002180
C3    C     C_R   0.458216 0.653468 0.120688 -0.006293
C4    C     C_R   0.740435 0.999864 0.500000 0.538392
C5    C     C_R   0.460748 0.441212 0.978250 -0.030128
C6    C     C_R   0.368443 0.404584 0.056349 -0.027508
C7    C     C_R   0.309780 0.492958 0.158278 0.256290
C8    C     C_R   0.347535 0.616482 0.184956 0.270677
C9    C     C_R   0.503490 0.350522 0.870248 -0.161335
C10   C     C_R   0.372416 0.191659 0.919452 0.216485
C11   C     C_R   0.521619 0.774628 0.162316 0.020917
C12   C     C_3   0.013600 0.908742 0.524681 -0.078501
C13   C     C_R   0.709643 0.349137 0.330851 -0.127082
C14   C     C_R   0.320175 0.756026 0.641297 0.106052
C15   C     C_R   0.280937 0.658708 0.671922 -0.123993
C16   C     C_R   0.480275 0.145018 0.714270 0.559022
C17   C     C_R   0.349133 0.557124 0.619350 -0.120326
C18   C     C_R   0.457678 0.551118 0.534215 0.007321
C19   C     C_R   0.494644 0.653691 0.505985 0.193945
C20   C     C_R   0.530188 0.447348 0.475567 -0.004507
C21   C     C_R   0.637077 0.448514 0.389992 0.037841
C22   C     C_R   0.671139 0.548685 0.363546 -0.163821
C23   C     C_3   0.955118 0.893681 0.420154 -0.095291
C24   C     C_R   0.601711 0.648628 0.420037 -0.093031
C25   C     C_R   0.501915 0.341571 0.497436 0.051278
C26   C     C_R   0.676774 0.248385 0.356349 0.051756
C27   C     C_R   0.259404 0.000953 0.501213 0.591528
C28   C     C_3   0.986069 0.092374 0.477067 -0.122219
C29   C     C_3   0.066048 0.985540 0.396787 -0.089789
C30   C     C_3   0.122306 0.000731 0.501272 0.056931
C31   C     C_3   0.044557 0.107426 0.581597 -0.138577
C32   C     C_3   0.933580 0.015576 0.604959 -0.131805
C33   C     C_3   0.877385 0.000381 0.500447 0.025346
C34   C     C_R   0.330750 0.279840 0.027643 -0.057394
C35   C     C_R   0.454710 0.227735 0.837474 0.009031
C36   C     C_R   0.611053 0.813987 0.086709 -0.121766
C37   C     C_R   0.646052 0.732844 0.973969 -0.122959
C38   C     C_R   0.598034 0.610241 0.936693 -0.100953
Cl1   Cl    Cl    0.236984 0.720382 0.280973 -0.567126
Cl2   Cl    Cl    0.311006 0.039176 0.891096 -0.635792
Cl3   Cl    Cl    0.182330 0.451264 0.250862 -0.583019
Cu1   Cu    Cu3+1 0.529830 0.098270 0.475420 0.944170
Cu2   Cu    Cu3+1 0.470170 0.901730 0.524580 1.012947
H1    H     H_    0.123508 0.973321 0.311767 0.158291
H2    H     H_    0.972232 0.167615 0.457470 0.144008
H3    H     H_    0.314201 0.484402 0.646228 0.101178
H4    H     H_    0.196842 0.661781 0.736306 0.123631
H5    H     H_    0.635486 0.719717 0.392476 0.170114
H6    H     H_    0.876100 0.027734 0.689950 0.130889
H7    H     H_    0.915260 0.806254 0.354335 0.134668
H8    H     H_    0.264426 0.249342 0.087252 0.205852
H9    H     H_    0.732596 0.171569 0.311010 0.126500
H10   H     H_    0.084487 0.194758 0.647442 0.120356
H11   H     H_    0.027525 0.833422 0.544132 0.158482
H12   H     H_    0.572088 0.372930 0.807320 0.130650
H13   H     H_    0.658656 0.906680 0.116125 0.132592
H14   H     H_    0.634912 0.552829 0.849552 0.108890
H15   H     H_    0.715974 0.764008 0.916506 0.129129
H16   H     H_    0.752732 0.549948 0.297967 0.130946
H17   H     H_    0.791485 0.349464 0.265269 0.134137
H18   H     H_    0.422699 0.333042 0.561250 0.119484
H19   H     H_    0.265131 0.833229 0.681120 0.176004
N1    N     N_R   0.575030 0.246270 0.438190 -0.236047
N2    N     N_R   0.425760 0.754330 0.561190 -0.229933
O1    O     O_R   0.537510 0.972500 0.318130 -0.504552
O2    O     O_R   0.487140 0.806530 0.359650 -0.488113
O3    O     O_R   0.708330 0.082950 0.479220 -0.510128
O4    O     O_R   0.657960 0.916980 0.520740 -0.530494
O5    O     O_R   0.512860 0.193470 0.640350 -0.527290
O6    O     O_R   0.462490 0.027500 0.681870 -0.447529
O7    O     O_R   0.342040 0.083020 0.479260 -0.508064
O8    O     O_R   0.291670 0.917050 0.520780 -0.470324

loop_
_geom_bond_atom_site_label_1
_geom_bond_atom_site_label_2
_ccdc_geom_bond_type
Cu2   O8    S    
C1    C11   S    
C15   H4    S    
C7    C8    A    
C13   H17   S    
C12   C23   S    
C34   H8    S    
C37   C38   A    
C23   C29   S    
C36   C37   A    
C16   C35   S    
C5    C6    A    
C20   C25   A    
C14   H19   S    
C10   Cl2   S    
C18   C19   A    
C25   N1    A    
Cu2   O4    S    
C23   C33   S    
Cu1   O1    S    
C1    O1    A    
C10   C35   A    
C9    H12   S    
C8    Cl1   S    
C37   H15   S    
C21   C22   A    
C12   C32   S    
C27   C30   S    
Cu2   N2    S    
C1    O2    A    
C28   H2    S    
C24   H5    S    
C16   O6    A    
C17   H3    S    
C3    C8    A    
C22   H16   S    
C4    O4    A    
C23   H7    S    
Cu1   O5    S    
C6    C34   A    
C11   C36   A    
C26   N1    A    
C5    C9    A    
C29   C30   S    
C36   H13   S    
C26   H9    S    
C38   H14   S    
C2    C38   A    
C31   C32   S    
C19   N2    A    
C14   N2    A    
C17   C18   A    
C13   C21   A    
C10   C34   A    
C25   H18   S    
C31   H10   S    
C28   C33   S    
Cu2   O6    S    
C29   H1    S    
Cu1   O3    S    
C22   C24   A    
C13   C26   A    
C2    C5    A    
Cu1   Cu2   S    
C27   O7    A    
C15   C17   A    
C4    C33   S    
C28   C29   S    
C12   C30   S    
C28   C31   S    
C16   O5    A    
C4    O3    A    
C6    C7    A    
C32   C33   S    
C2    C3    A    
C30   C31   S    
Cu2   O2    S    
Cu1   O7    S    
C19   C24   A    
C18   C20   A    
C7    Cl3   S    
C32   H6    S    
C3    C11   A    
C20   C21   A    
C9    C35   A    
C14   C15   A    
Cu1   N1    S    
C12   H11   S    
C27   O8    A    
