data_mof_unit_54924.cif
_audit_creation_date              2012-12-10T17:56:19-0500
_audit_creation_method            fapswitch 2.2
_symmetry_space_group_name_H-M    P1
_symmetry_Int_Tables_number       1
_space_group_crystal_system       triclinic
_cell_length_a                    13.00887
_cell_length_b                    10.930357
_cell_length_c                    9.567541
_cell_angle_alpha                 91.248517
_cell_angle_beta                  96.634388
_cell_angle_gamma                 92.224451
_cell_volume                      1349.82252127

loop_
_atom_site_label
_atom_site_type_symbol
_atom_type_description
_atom_site_fract_x
_atom_site_fract_y
_atom_site_fract_z
_atom_type_partial_charge
C1    C     C_R   0.504227 0.262471 0.498953 0.846957
C2    C     C_R   0.495773 0.737529 0.501047 0.846955
C3    C     C_R   0.491382 0.871658 0.502964 -0.270065
C4    C     C_R   0.508617 0.128342 0.497036 -0.270064
C5    C     C_R   0.430327 0.427046 0.061823 0.017099
C6    C     C_R   0.569673 0.572954 0.938177 0.017098
C7    C     C_R   0.431141 0.425915 0.913061 0.029571
C8    C     C_R   0.568859 0.574085 0.086938 0.029571
C9    C     C_R   0.300558 0.500504 0.473169 0.813428
C10   C     C_R   0.699442 0.499496 0.526831 0.813429
C11   C     C_R   0.812399 0.500093 0.542944 -0.071566
C12   C     C_R   0.187601 0.499907 0.457056 -0.071566
C13   C     C_R   0.022546 0.469748 0.312737 -0.015573
C14   C     C_R   0.977454 0.530252 0.687263 -0.015573
C15   C     C_R   0.130334 0.478036 0.325250 -0.206188
C16   C     C_R   0.869666 0.521964 0.674750 -0.206188
C17   C     C_R   0.136896 0.518026 0.576315 -0.240361
C18   C     C_R   0.863104 0.481974 0.423685 -0.240361
C19   C     C_R   0.028941 0.512472 0.566636 0.098775
C20   C     C_R   0.971059 0.487528 0.433364 0.098775
C21   C     C_R   0.492538 0.058162 0.369818 -0.184559
C22   C     C_R   0.507461 0.941838 0.630182 -0.184559
C23   C     C_R   0.476897 0.931716 0.373436 0.409874
C24   C     C_R   0.523102 0.068283 0.626564 0.409874
Cu1   Cu    Cu3+1 0.500000 0.500020 0.640660 0.976380
Cu2   Cu    Cu3+1 0.500000 0.499980 0.359340 0.976380
H1    H     H_    0.817739 0.464030 0.322641 0.166238
H2    H     H_    0.182261 0.535970 0.677359 0.166238
H3    H     H_    0.830630 0.534726 0.767701 0.180456
H4    H     H_    0.169370 0.465274 0.232299 0.180456
N1    N     N_R   0.500030 0.500030 0.852080 -0.218070
N2    N     N_R   0.499970 0.499970 0.147920 -0.218070
O1    O     O_R   0.499990 0.319660 0.618740 -0.530977
O2    O     O_R   0.500010 0.680340 0.381260 -0.530978
O3    O     O_R   0.499990 0.319630 0.381170 -0.590502
O4    O     O_R   0.500010 0.680370 0.618830 -0.590501
O5    O     O_R   0.349000 0.499990 0.599490 -0.594472
O6    O     O_R   0.651000 0.500010 0.400510 -0.594472
O7    O     O_R   0.348990 0.499960 0.361920 -0.594563
O8    O     O_R   0.651010 0.500040 0.638080 -0.594564
C25   C     C_1   0.966851 0.439822 0.175835 0.253194
N3    N     N_1   0.921698 0.415401 0.066793 -0.307365
C26   C     C_1   0.033148 0.560178 0.824165 0.253194
N4    N     N_1   0.078301 0.584599 0.933207 -0.307366
C27   C     C_1   0.497840 0.109769 0.232788 0.390248
N5    N     N_1   0.503233 0.148261 0.122097 -0.271648
C28   C     C_1   0.502159 0.890230 0.767212 0.390246
N6    N     N_1   0.496767 0.851738 0.877903 -0.271647
O9    O     O_3   0.447655 0.866889 0.247950 -0.547847
C29   C     C_3   0.338528 0.850088 0.230995 0.089427
H5    H     H_    0.301340 0.939684 0.215736 0.148192
H6    H     H_    0.310266 0.804943 0.323602 0.122098
C30   C     C_3   0.304635 0.768206 0.102138 -0.708243
H7    H     H_    0.342666 0.679177 0.112595 0.253037
H8    H     H_    0.219415 0.751106 0.092021 0.209483
H9    H     H_    0.325224 0.813315 0.005873 0.254904
O10   O     O_3   0.552345 0.133111 0.752050 -0.547847
C31   C     C_3   0.661472 0.149910 0.769005 0.089428
H10   H     H_    0.689735 0.195048 0.676396 0.122095
H11   H     H_    0.698658 0.060314 0.784273 0.148195
C32   C     C_3   0.695365 0.231799 0.897857 -0.708246
H12   H     H_    0.674773 0.186698 0.994125 0.254905
H13   H     H_    0.780585 0.248895 0.907976 0.209483
H14   H     H_    0.657336 0.320829 0.887391 0.253038
C33   C     C_1   0.355249 0.350102 0.122375 0.313112
N7    N     N_1   0.295012 0.287322 0.169376 -0.305762
C34   C     C_1   0.644750 0.649898 0.877625 0.313112
N8    N     N_1   0.704988 0.712678 0.830624 -0.305762
C35   C     C_1   0.359893 0.343475 0.826202 0.362928
N9    N     N_1   0.302555 0.276842 0.757714 -0.277638
C36   C     C_1   0.640107 0.656524 0.173798 0.362928
N10   N     N_1   0.697444 0.723158 0.242286 -0.277638

loop_
_geom_bond_atom_site_label_1
_geom_bond_atom_site_label_2
_ccdc_geom_bond_type
C12   C17   A    
C7    C35   S    
C32   H14   S    
C29   H6    S    
C26   N4    T    
C11   C18   A    
Cu2   N2    S    
C6    N1    A    
C14   C16   A    
C11   C16   A    
C24   O10   S    
C18   C20   A    
C19   C20   A    
C12   C15   A    
C10   O6    A    
C1    C4    S    
C2    O2    A    
C31   C32   S    
C13   C25   S    
C2    C3    S    
C31   H10   S    
C1    O1    A    
C36   N10   T    
C33   N7    T    
C5    N2    A    
C27   N5    T    
C4    C21   A    
C13   C15   A    
C16   H3    S    
O10   C31   S    
C32   H12   S    
C4    C24   A    
C9    O5    A    
C6    C34   S    
C17   C19   A    
C22   C28   S    
C21   C27   S    
C30   H8    S    
Cu1   O8    S    
C35   N9    T    
C21   C23   A    
C9    C12   S    
C22   C24   A    
Cu2   O7    S    
C23   O9    S    
C29   C30   S    
C7    N1    A    
C10   C11   S    
Cu1   O4    S    
C31   H11   S    
C34   N8    T    
C8    N2    A    
Cu2   O3    S    
C9    O7    A    
Cu1   N1    S    
C1    O3    A    
C15   H4    S    
C5    C33   S    
O9    C29   S    
C25   N3    T    
C30   H9    S    
C2    O4    A    
C5    C7    A    
Cu2   O6    S    
C10   O8    A    
C6    C8    A    
C29   H5    S    
C13   C20   A    
Cu1   O5    S    
Cu1   Cu2   S    
C30   H7    S    
C17   H2    S    
C3    C23   A    
C14   C19   A    
Cu2   O2    S    
C32   H13   S    
C3    C22   A    
C18   H1    S    
C28   N6    T    
Cu1   O1    S    
C14   C26   S    
C8    C36   S    
