data_mof_unit_15383.cif
_audit_creation_date              2012-12-11T15:24:44-0500
_audit_creation_method            fapswitch 2.2
_symmetry_space_group_name_H-M    P1
_symmetry_Int_Tables_number       1
_space_group_crystal_system       triclinic
_cell_length_a                    23.159801
_cell_length_b                    6.976851
_cell_length_c                    20.580456
_cell_angle_alpha                 90.000035
_cell_angle_beta                  93.080771
_cell_angle_gamma                 90.000071
_cell_volume                      3320.6350867

loop_
_atom_site_label
_atom_site_type_symbol
_atom_type_description
_atom_site_fract_x
_atom_site_fract_y
_atom_site_fract_z
_atom_type_partial_charge
O1    O     O_R   0.188030 0.379840 0.189340 -0.541119
O2    O     O_R   0.811970 0.620160 0.810660 -0.541120
O3    O     O_R   0.311970 0.879840 0.310660 -0.541119
O4    O     O_R   0.688030 0.120160 0.689340 -0.541119
O5    O     O_R   0.307090 0.708420 0.185790 -0.531889
O6    O     O_R   0.692910 0.291580 0.814210 -0.531888
O7    O     O_R   0.192910 0.208420 0.314210 -0.531889
O8    O     O_R   0.807090 0.791580 0.685790 -0.531889
C1    C     C_R   0.326590 0.541412 0.170715 0.720937
C2    C     C_R   0.673410 0.458588 0.829285 0.720937
C3    C     C_R   0.173410 0.041412 0.329285 0.720939
C4    C     C_R   0.826590 0.958588 0.670715 0.720938
O9    O     O_R   0.188180 0.709480 0.181650 -0.544566
O10   O     O_R   0.811820 0.290520 0.818350 -0.544566
O11   O     O_R   0.311820 0.209480 0.318350 -0.544566
O12   O     O_R   0.688180 0.790520 0.681650 -0.544566
O13   O     O_R   0.192210 0.880960 0.306500 -0.532309
O14   O     O_R   0.807790 0.119040 0.693500 -0.532310
O15   O     O_R   0.307790 0.380960 0.193500 -0.532308
O16   O     O_R   0.692210 0.619040 0.806500 -0.532309
C5    C     C_R   0.166720 0.541753 0.166791 0.724053
C6    C     C_R   0.833279 0.458247 0.833209 0.724054
C7    C     C_R   0.333279 0.041754 0.333209 0.724054
C8    C     C_R   0.666721 0.958246 0.666791 0.724054
O17   O     O_3   0.251460 0.546730 0.290970 -0.371239
O18   O     O_3   0.748540 0.453270 0.709030 -0.371239
O19   O     O_3   0.248540 0.046730 0.209030 -0.371238
O20   O     O_3   0.751460 0.953270 0.790970 -0.371238
V1    V     V_3+5 0.249730 0.821120 0.242400 1.425612
V2    V     V_3+5 0.750270 0.178880 0.757600 1.425611
V3    V     V_3+5 0.250270 0.321120 0.257600 1.425612
V4    V     V_3+5 0.749730 0.678880 0.742400 1.425612
C9    C     C_R   0.574329 0.816017 0.612393 0.227327
C10   C     C_R   0.425671 0.183982 0.387606 0.227326
C11   C     C_R   0.925672 0.316021 0.887605 0.227326
C12   C     C_R   0.074328 0.683978 0.112395 0.227326
C13   C     C_R   0.616381 0.965494 0.618464 -0.140447
C14   C     C_R   0.383619 0.034505 0.381536 -0.140448
C15   C     C_R   0.883619 0.465496 0.881536 -0.140445
C16   C     C_R   0.116381 0.534504 0.118464 -0.140444
C17   C     C_R   0.609967 0.127235 0.577965 -0.262658
C18   C     C_R   0.390033 0.872765 0.422034 -0.262657
C19   C     C_R   0.890033 0.627234 0.922035 -0.262660
C20   C     C_R   0.109967 0.372767 0.077965 -0.262661
C21   C     C_R   0.564135 0.141468 0.530951 0.101220
C22   C     C_R   0.435865 0.858531 0.469049 0.101220
C23   C     C_R   0.935865 0.641467 0.969050 0.101220
C24   C     C_R   0.064136 0.358533 0.030950 0.101220
C25   C     C_R   0.523094 0.992761 0.523955 0.013471
C26   C     C_R   0.476907 0.007238 0.476044 0.013471
C27   C     C_R   0.976906 0.492762 0.976044 0.013471
C28   C     C_R   0.023094 0.507238 0.023955 0.013471
C29   C     C_R   0.528003 0.829941 0.564778 0.060095
C30   C     C_R   0.471997 0.170058 0.435221 0.060095
C31   C     C_R   0.971998 0.329944 0.935220 0.060095
C32   C     C_R   0.028002 0.670056 0.064780 0.060095
C33   C     C_R   0.559008 0.302455 0.490399 -0.193583
C34   C     C_R   0.440992 0.697545 0.509600 -0.193583
C35   C     C_R   0.940991 0.802452 0.009602 -0.193583
C36   C     C_R   0.059009 0.197548 0.990398 -0.193583
C37   C     C_R   0.513697 0.316586 0.443097 -0.165089
C38   C     C_R   0.486304 0.683413 0.556902 -0.165089
C39   C     C_R   0.986302 0.816583 0.056905 -0.165085
C40   C     C_R   0.013698 0.183417 0.943095 -0.165085
H1    H     H_    0.641479 0.242134 0.582366 0.138521
H2    H     H_    0.358521 0.757866 0.417633 0.138521
H3    H     H_    0.858520 0.742132 0.917635 0.138521
H4    H     H_    0.141480 0.257869 0.082365 0.138522
H5    H     H_    0.590103 0.418353 0.495328 0.129685
H6    H     H_    0.409897 0.581647 0.504671 0.129685
H7    H     H_    0.909896 0.918349 0.004674 0.129684
H8    H     H_    0.090104 0.081651 0.995326 0.129683
H9    H     H_    0.511412 0.444063 0.413063 0.171243
H10   H     H_    0.488589 0.555936 0.586936 0.171243
H11   H     H_    0.988587 0.944059 0.086939 0.171241
H12   H     H_    0.011413 0.055942 0.913061 0.171242
C41   C     C_3   0.045364 0.082166 0.531514 0.169336
C42   C     C_3   0.954635 0.917834 0.468485 0.169335
C43   C     C_3   0.454636 0.582166 0.968486 0.169335
C44   C     C_3   0.545364 0.417834 0.031514 0.169336
C45   C     C_3   0.018290 0.889750 0.549896 0.188860
C46   C     C_3   0.981709 0.110250 0.450103 0.188860
C47   C     C_3   0.481709 0.389750 0.950103 0.188860
C48   C     C_3   0.518291 0.610250 0.049897 0.188860
C49   C     C_1   0.871877 0.964373 0.624863 -0.170890
C50   C     C_1   0.128123 0.035627 0.375137 -0.170890
C51   C     C_1   0.628123 0.464373 0.875137 -0.170891
C52   C     C_1   0.371877 0.535627 0.124863 -0.170891
C53   C     C_3   0.984623 0.173937 0.522309 0.395642
C54   C     C_3   0.015376 0.826062 0.477690 0.395642
C55   C     C_3   0.515377 0.673937 0.977690 0.395642
C56   C     C_3   0.484623 0.326063 0.022310 0.395642
C57   C     C_3   0.957186 0.979315 0.540969 -0.169845
C58   C     C_3   0.042814 0.020685 0.459030 -0.169846
C59   C     C_3   0.542814 0.479315 0.959030 -0.169846
C60   C     C_3   0.457186 0.520685 0.040969 -0.169846
C61   C     C_1   0.910131 0.967920 0.586844 0.116022
C62   C     C_1   0.089868 0.032080 0.413155 0.116022
C63   C     C_1   0.589868 0.467920 0.913155 0.116023
C64   C     C_1   0.410132 0.532080 0.086844 0.116023
N1    N     N_2   0.576696 0.653506 0.654454 -0.540298
H13   H     H_    0.613463 0.570825 0.653582 0.271716
C65   C     C_3   0.555374 0.685034 0.718362 -0.509507
H14   H     H_    0.583981 0.785772 0.746761 0.201666
H15   H     H_    0.554198 0.546622 0.744880 0.183120
H16   H     H_    0.510767 0.744080 0.714100 0.197593
N2    N     N_2   0.423305 0.346494 0.345545 -0.540297
H17   H     H_    0.386538 0.429174 0.346417 0.271715
C66   C     C_3   0.444627 0.314964 0.281637 -0.509506
H18   H     H_    0.416020 0.214225 0.253239 0.201666
H19   H     H_    0.489234 0.255920 0.285899 0.197592
H20   H     H_    0.445802 0.453375 0.255118 0.183120
N3    N     N_2   0.923307 0.153515 0.845541 -0.540298
H21   H     H_    0.886541 0.070829 0.846412 0.271715
C67   C     C_3   0.944628 0.185056 0.781633 -0.509504
H22   H     H_    0.916016 0.285783 0.753235 0.201667
H23   H     H_    0.945809 0.046646 0.755114 0.183121
H24   H     H_    0.989233 0.244124 0.785895 0.197593
N4    N     N_2   0.076692 0.846482 0.154460 -0.540298
H25   H     H_    0.113458 0.929169 0.153590 0.271715
C68   C     C_3   0.055371 0.814935 0.218368 -0.509503
H26   H     H_    0.083982 0.714204 0.246765 0.201665
H27   H     H_    0.010766 0.755872 0.214105 0.197594
H28   H     H_    0.054191 0.953342 0.244889 0.183121
N5    N     N_2   0.035730 0.771610 0.605332 -0.436471
H29   H     H_    0.025604 0.830895 0.649152 0.247267
C69   C     C_3   0.093444 0.692690 0.605459 -0.437148
H30   H     H_    0.104361 0.624727 0.653270 0.161576
H31   H     H_    0.125939 0.805594 0.597548 0.162499
H32   H     H_    0.095885 0.582665 0.566940 0.282121
N6    N     N_2   0.964270 0.228390 0.394667 -0.436471
H33   H     H_    0.974395 0.169105 0.350848 0.247267
C70   C     C_3   0.906556 0.307310 0.394540 -0.437147
H34   H     H_    0.895639 0.375273 0.346729 0.161576
H35   H     H_    0.904115 0.417334 0.433059 0.282120
H36   H     H_    0.874060 0.194406 0.402451 0.162499
N7    N     N_2   0.464270 0.271610 0.894668 -0.436471
H37   H     H_    0.474395 0.330894 0.850848 0.247267
C71   C     C_3   0.406555 0.192689 0.894541 -0.437149
H38   H     H_    0.395639 0.124726 0.846730 0.161577
H39   H     H_    0.374060 0.305593 0.902452 0.162500
H40   H     H_    0.404115 0.082665 0.933060 0.282120
N8    N     N_2   0.535730 0.728390 0.105332 -0.436471
H41   H     H_    0.525605 0.669106 0.149152 0.247267
C72   C     C_3   0.593444 0.807311 0.105459 -0.437149
H42   H     H_    0.604361 0.875274 0.153270 0.161577
H43   H     H_    0.595885 0.917335 0.066940 0.282120
H44   H     H_    0.625940 0.694407 0.097548 0.162499
N9    N     N_2   0.095603 0.173261 0.563139 -0.465933
H45   H     H_    0.134254 0.115150 0.550223 0.253462
C73   C     C_3   0.093321 0.207759 0.632269 -0.531283
H46   H     H_    0.131079 0.295915 0.649072 0.179902
H47   H     H_    0.095704 0.071639 0.659867 0.179717
H48   H     H_    0.053188 0.285154 0.643285 0.251762
N10   N     N_2   0.904396 0.826739 0.436860 -0.465933
H49   H     H_    0.865746 0.884850 0.449776 0.253462
C74   C     C_3   0.906679 0.792241 0.367730 -0.531283
H50   H     H_    0.868921 0.704085 0.350927 0.179902
H51   H     H_    0.946812 0.714846 0.356715 0.251762
H52   H     H_    0.904295 0.928361 0.340132 0.179717
N11   N     N_2   0.404396 0.673260 0.936861 -0.465933
H53   H     H_    0.365746 0.615149 0.949776 0.253462
C75   C     C_3   0.406679 0.707758 0.867731 -0.531283
H54   H     H_    0.368921 0.795914 0.850928 0.179903
H55   H     H_    0.404295 0.571638 0.840132 0.179717
H56   H     H_    0.446812 0.785153 0.856715 0.251763
N12   N     N_2   0.595603 0.326740 0.063139 -0.465933
H57   H     H_    0.634254 0.384851 0.050223 0.253462
C76   C     C_3   0.593321 0.292241 0.132269 -0.531283
H58   H     H_    0.631079 0.204086 0.149072 0.179902
H59   H     H_    0.553188 0.214846 0.143285 0.251763
H60   H     H_    0.595705 0.428362 0.159867 0.179717
Cl1   Cl    Cl    0.038679 0.604638 0.444555 -0.610154
Cl2   Cl    Cl    0.961320 0.395362 0.555445 -0.610154
Cl3   Cl    Cl    0.461321 0.104638 0.055445 -0.610154
Cl4   Cl    Cl    0.538679 0.895362 0.944555 -0.610154

loop_
_geom_bond_atom_site_label_1
_geom_bond_atom_site_label_2
_ccdc_geom_bond_type
C34   C38   A    
O1    C5    A    
N1    H13   S    
C46   C58   S    
O19   V1    S    
O13   V1    S    
C76   H58   S    
O3    C7    A    
C75   H54   S    
C56   C60   S    
C44   C48   S    
O15   V3    S    
C72   H44   S    
N11   H53   S    
C25   C26   A    
N12   C76   S    
C58   C62   S    
C42   C54   S    
O7    C3    A    
C47   C56   S    
N7    C71   S    
C54   Cl1   S    
C21   C33   A    
C74   H50   S    
C46   C53   S    
C4    C49   S    
C9    N1    S    
C10   N2    S    
O9    V1    S    
C75   H55   S    
O10   V2    S    
C14   C18   A    
N9    C73   S    
C1    C52   S    
C18   C22   A    
O4    C8    A    
C71   H40   S    
C59   C63   S    
C42   N10   S    
N10   C74   S    
C36   H8    S    
C3    C50   S    
C67   H22   S    
C41   C58   S    
O1    V3    S    
O2    V4    S    
C48   C60   S    
C73   H48   S    
O3    V1    S    
C12   N4    S    
C68   H28   S    
N11   C75   S    
C1    O15   A    
C2    O16   A    
C67   H23   S    
O2    C6    A    
C70   H36   S    
N2    H17   S    
C54   C58   S    
O14   V2    S    
C48   C55   S    
C21   C25   A    
C44   N12   S    
O5    V1    S    
O11   C7    A    
N5    H29   S    
C73   H46   S    
O12   C8    A    
C22   C34   A    
O17   V1    S    
C76   H59   S    
C53   Cl2   S    
C43   N11   S    
C72   H43   S    
C24   C36   A    
C51   C63   T    
N4    C68   S    
C56   Cl3   S    
C9    C29   A    
C2    C51   S    
N10   H49   S    
O7    V3    S    
C11   C31   A    
C27   C28   A    
O8    V4    S    
O20   V4    S    
C75   H56   S    
C66   H20   S    
C41   N9    S    
N12   H57   S    
O18   V4    S    
C34   H6    S    
C23   C27   A    
C48   N8    S    
C37   H9    S    
O19   V3    S    
C53   C57   S    
C9    C13   A    
C44   C56   S    
C11   C15   A    
C69   H31   S    
O5    C1    A    
C12   C32   A    
N5    C69   S    
C45   C57   S    
C29   C38   A    
C42   C46   S    
C41   C45   S    
O8    C4    A    
C67   H24   S    
C47   C59   S    
C31   C40   A    
C8    C13   S    
C40   H12   S    
C32   C39   A    
O9    C5    A    
C65   H15   S    
C26   C30   A    
C44   C59   S    
C33   C37   A    
C68   H26   S    
C52   C64   T    
C45   C54   S    
C19   H3    S    
O6    V2    S    
C16   C20   A    
C10   C30   A    
C74   H52   S    
C70   H34   S    
C76   H60   S    
C20   H4    S    
N6    H33   S    
C57   C61   S    
C72   H42   S    
C47   N7    S    
C12   C16   A    
C70   H35   S    
N3    H21   S    
O16   V4    S    
N8    C72   S    
C3    O13   A    
C45   N5    S    
C10   C14   A    
C43   C55   S    
O17   V3    S    
N6    C70   S    
O6    C2    A    
C17   H1    S    
C71   H38   S    
O11   V3    S    
C69   H30   S    
C41   C53   S    
C30   C37   A    
O12   V4    S    
C7    C14   S    
N7    H37   S    
C22   C26   A    
C35   C39   A    
N1    C65   S    
C36   C40   A    
O10   C6    A    
C66   H19   S    
N8    H41   S    
C69   H32   S    
C43   C60   S    
C66   H18   S    
C43   C47   S    
C71   H39   S    
N2    C66   S    
C5    C16   S    
C39   H11   S    
C25   C29   A    
C6    C15   S    
C60   C64   S    
O20   V2    S    
C55   Cl4   S    
C11   N3    S    
C65   H16   S    
C27   C31   A    
C73   H47   S    
C13   C17   A    
C50   C62   T    
C68   H27   S    
C49   C61   T    
C23   C35   A    
C28   C32   A    
C24   C28   A    
C15   C19   A    
C55   C59   S    
C74   H51   S    
N4    H25   S    
C4    O14   A    
C65   H14   S    
C18   H2    S    
C17   C21   A    
C38   H10   S    
C42   C57   S    
C33   H5    S    
C46   N6    S    
N9    H45   S    
C19   C23   A    
O4    V2    S    
C20   C24   A    
C35   H7    S    
N3    C67   S    
O18   V2    S    
