data_mof_unit_59629.cif
_audit_creation_date              2013-03-05T15:53:46-0500
_audit_creation_method            fapswitch 2.2
_symmetry_space_group_name_H-M    P1
_symmetry_Int_Tables_number       1
_space_group_crystal_system       triclinic
_cell_length_a                    7.019479
_cell_length_b                    11.924787
_cell_length_c                    35.776246
_cell_angle_alpha                 90.019129
_cell_angle_beta                  91.061246
_cell_angle_gamma                 90.242627
_cell_volume                      2994.13822063

loop_
_atom_site_label
_atom_site_type_symbol
_atom_site_description
_atom_site_fract_x
_atom_site_fract_y
_atom_site_fract_z
_atom_type_partial_charge
O1    O     O_R   0.379730 0.148600 0.662710 -0.585991
O2    O     O_R   0.620270 0.851400 0.337290 -0.587149
O3    O     O_R   0.120270 0.648600 0.337290 -0.589840
O4    O     O_R   0.879730 0.351400 0.662710 -0.591061
O5    O     O_R   0.722480 0.134490 0.741330 -0.593071
O6    O     O_R   0.277520 0.865510 0.258670 -0.594190
O7    O     O_R   0.777520 0.634490 0.258670 -0.585627
O8    O     O_R   0.222480 0.365510 0.741330 -0.592773
O9    O     O_R   0.892880 0.345890 0.741600 -0.590466
O10   O     O_R   0.107120 0.654110 0.258400 -0.590098
O11   O     O_R   0.607120 0.845890 0.258400 -0.592285
O12   O     O_R   0.392880 0.154110 0.741600 -0.586446
C1    C     C_R   0.553928 0.116756 0.755496 0.922023
C2    C     C_R   0.446827 0.887594 0.245838 0.924312
C3    C     C_R   0.945001 0.617840 0.244297 0.917540
C4    C     C_R   0.054102 0.387108 0.754306 0.920313
O13   O     O_R   0.709490 0.135560 0.662990 -0.590023
O14   O     O_R   0.290510 0.864440 0.337010 -0.591158
O15   O     O_R   0.790510 0.635560 0.337010 -0.585440
O16   O     O_R   0.209490 0.364440 0.662990 -0.586452
C5    C     C_R   0.539771 0.107735 0.650994 0.932492
C6    C     C_R   0.460232 0.892310 0.348990 0.926320
C7    C     C_R   0.960402 0.607696 0.348979 0.932288
C8    C     C_R   0.039593 0.392346 0.651036 0.926015
O17   O     O_3   0.552800 0.316610 0.702160 -0.273616
O18   O     O_3   0.447200 0.683390 0.297840 -0.269728
O19   O     O_3   0.947200 0.816610 0.297840 -0.273685
O20   O     O_3   0.052800 0.183390 0.702160 -0.269245
V1    V     V_3+5 0.827630 0.234380 0.702160 1.181222
V2    V     V_3+5 0.172370 0.765620 0.297840 1.179700
V3    V     V_3+5 0.672370 0.734380 0.297840 1.188331
V4    V     V_3+5 0.327630 0.265620 0.702160 1.186711
C9    C     C_R   0.970217 0.684199 0.907482 0.427980
C10   C     C_R   0.953916 0.380028 0.075094 0.448460
C11   C     C_R   0.427370 0.187233 0.092991 0.429514
C12   C     C_R   0.491761 0.877962 0.923872 0.447438
O21   O     O_2   0.932207 0.575523 0.914662 -0.611557
O22   O     O_2   0.977851 0.490240 0.068154 -0.603549
O23   O     O_2   0.389518 0.078557 0.085444 -0.610544
O24   O     O_2   0.515105 0.988178 0.931054 -0.604456
N1    N     N_R   0.009679 0.718955 0.871675 -0.173945
N2    N     N_R   0.942330 0.342075 0.111297 -0.175250
N3    N     N_R   0.456222 0.223035 0.129351 -0.170598
N4    N     N_R   0.493841 0.839029 0.887648 -0.174017
C13   C     C_R   0.031327 0.832349 0.864950 0.436887
C14   C     C_R   0.925498 0.228458 0.117753 0.408337
C15   C     C_R   0.472087 0.336873 0.136110 0.452405
C16   C     C_R   0.478697 0.725211 0.881233 0.420555
C17   C     C_R   0.966184 0.658711 0.804127 -0.046439
C18   C     C_R   0.053991 0.386970 0.175961 -0.018197
C19   C     C_R   0.400492 0.163676 0.196284 -0.071827
C20   C     C_R   0.625881 0.881870 0.825126 -0.034208
C21   C     C_R   0.971037 0.576828 0.776312 -0.187658
C22   C     C_R   0.053091 0.450809 0.208671 -0.153510
C23   C     C_R   0.390510 0.080682 0.223578 -0.186006
C24   C     C_R   0.639308 0.946300 0.792680 -0.153214
C25   C     C_R   0.115806 0.447685 0.819992 -0.213716
C26   C     C_R   0.859664 0.588504 0.176718 -0.168414
C27   C     C_R   0.543249 0.950534 0.182399 -0.221553
C28   C     C_R   0.440661 0.086148 0.820768 -0.178440
C29   C     C_R   0.106523 0.528704 0.848188 -0.003011
C30   C     C_R   0.863383 0.524124 0.143767 -0.043528
C31   C     C_R   0.547250 0.032718 0.154479 0.011252
C32   C     C_R   0.430039 0.021257 0.853498 -0.027467
C33   C     C_R   0.027274 0.635978 0.841374 0.232487
C34   C     C_R   0.954578 0.419059 0.143303 0.189165
C35   C     C_R   0.468296 0.140532 0.160019 0.239010
C36   C     C_R   0.517629 0.915243 0.855789 0.202332
C37   C     C_R   0.975553 0.876709 0.930364 -0.065657
C38   C     C_R   0.944590 0.187759 0.051328 -0.048037
C39   C     C_R   0.439643 0.378910 0.069689 -0.064325
C40   C     C_R   0.470144 0.686539 0.947892 -0.052792
C41   C     C_R   0.965364 0.760902 0.937353 -0.052425
C42   C     C_R   0.946022 0.304196 0.044682 -0.036274
C43   C     C_R   0.433694 0.262934 0.062868 -0.051903
C44   C     C_R   0.469810 0.803122 0.954183 -0.034320
C45   C     C_R   0.943973 0.723151 0.974026 -0.073327
C46   C     C_R   0.946559 0.342809 0.007790 -0.071746
C47   C     C_R   0.428230 0.224101 0.025991 -0.077018
C48   C     C_R   0.454362 0.842820 0.990786 -0.075595
C49   C     C_R   0.995599 0.913553 0.893234 -0.111630
C50   C     C_R   0.943708 0.149200 0.088547 -0.082352
C51   C     C_R   0.442733 0.416799 0.106962 -0.116227
C52   C     C_R   0.485865 0.646918 0.910993 -0.089047
C53   C     C_R   0.044711 0.470954 0.784126 -0.075796
C54   C     C_R   0.951255 0.550830 0.209634 -0.090086
C55   C     C_R   0.459000 0.973384 0.216646 -0.082634
C56   C     C_R   0.543176 0.048170 0.789859 -0.105168
H1    H     H_    0.177342 0.366511 0.826272 0.102358
H2    H     H_    0.785414 0.667946 0.176521 0.100557
H3    H     H_    0.602583 0.868520 0.176976 0.108722
H4    H     H_    0.369730 0.166602 0.819661 0.109160
H5    H     H_    0.164934 0.506727 0.875214 0.139846
H6    H     H_    0.790080 0.555608 0.119264 0.146223
H7    H     H_    0.614428 0.011103 0.128639 0.140320
H8    H     H_    0.348986 0.053445 0.876348 0.144438
H9    H     H_    0.931727 0.634540 0.980213 0.166738
H10   H     H_    0.947038 0.431807 0.001754 0.163388
H11   H     H_    0.418994 0.135279 0.019832 0.164615
H12   H     H_    0.453933 0.931998 0.996554 0.161663
C57   C     C_R   0.953975 0.993246 0.028082 0.031018
C58   C     C_R   0.960176 0.072064 0.953094 0.081338
C59   C     C_R   0.466594 0.492696 0.971769 0.033759
C60   C     C_R   0.433965 0.573560 0.046177 0.074726
C61   C     C_R   0.950733 0.150343 0.983407 0.029614
C62   C     C_R   0.952697 0.915413 0.997835 0.026107
C63   C     C_R   0.442203 0.651039 0.015630 0.030302
C64   C     C_R   0.449179 0.415709 0.001980 0.027144
C65   C     C_R   0.948715 0.110193 0.020823 0.080281
C66   C     C_R   0.963228 0.955117 0.960514 0.116635
C67   C     C_R   0.458660 0.609846 0.978524 0.079254
C68   C     C_R   0.441004 0.456450 0.039201 0.112259
C69   C     C_R   0.969533 0.957641 0.065613 -0.208820
C70   C     C_R   0.963346 0.106477 0.915332 -0.213342
C71   C     C_R   0.501291 0.456063 0.935025 -0.227018
C72   C     C_R   0.415488 0.608843 0.083647 -0.213172
C73   C     C_R   0.965765 0.032998 0.095358 0.110886
C74   C     C_R   0.979880 0.030013 0.885929 0.064965
C75   C     C_R   0.511583 0.530615 0.905138 0.108095
C76   C     C_R   0.419739 0.533123 0.113532 0.070434
O25   O     O_2   0.885170 0.191652 0.152330 -0.571571
O26   O     O_2   0.093371 0.867179 0.831501 -0.561819
O27   O     O_2   0.449388 0.687256 0.846096 -0.565707
O28   O     O_2   0.525369 0.373601 0.170328 -0.563761
C77   C     C_R   0.938094 0.798302 0.003596 -0.187457
C78   C     C_R   0.947662 0.268088 0.977855 -0.206537
C79   C     C_R   0.436533 0.298456 0.996211 -0.186809
C80   C     C_R   0.440030 0.768939 0.020786 -0.205648
H13   H     H_    0.128928 0.421009 0.233349 0.112970
H14   H     H_    0.920774 0.597082 0.748300 0.106158
H15   H     H_    0.722717 0.915812 0.769650 0.122518
H16   H     H_    0.332572 0.101119 0.250607 0.112546
H17   H     H_    0.128510 0.309640 0.175913 0.125035
H18   H     H_    0.916235 0.739272 0.795169 0.138364
H19   H     H_    0.698307 0.803760 0.826585 0.125094
H20   H     H_    0.356218 0.245114 0.205002 0.146274
H21   H     H_    0.994193 0.871010 0.072771 0.117323
H22   H     H_    0.952983 0.193450 0.907507 0.113834
H23   H     H_    0.529178 0.369214 0.928833 0.121177
H24   H     H_    0.397717 0.695842 0.090828 0.114630
H25   H     H_    0.915506 0.761401 0.030633 0.146028
H26   H     H_    0.948994 0.306492 0.950664 0.145655
H27   H     H_    0.426800 0.260942 0.968846 0.144903
H28   H     H_    0.430614 0.807962 0.047799 0.144757
C81   C     C_R   0.973587 0.528746 0.379956 -0.090104
C82   C     C_R   0.026389 0.471335 0.620074 -0.087225
C83   C     C_R   0.531114 0.028428 0.620017 -0.092322
C84   C     C_R   0.468877 0.971659 0.379950 -0.089469
C85   C     C_R   0.021466 0.341519 0.403318 -0.071625
C86   C     C_R   0.978388 0.658572 0.596731 -0.070877
C87   C     C_R   0.568753 0.841365 0.595975 -0.074962
C88   C     C_R   0.431086 0.158730 0.403973 -0.074287
C89   C     C_R   0.007300 0.415679 0.373417 -0.179534
C90   C     C_R   0.992651 0.584392 0.626628 -0.180592
C91   C     C_R   0.570742 0.915569 0.625967 -0.179304
C92   C     C_R   0.429202 0.084505 0.373985 -0.180468
C93   C     C_R   0.964731 0.569140 0.416377 -0.169084
C94   C     C_R   0.035174 0.430970 0.583650 -0.168681
C95   C     C_R   0.500992 0.068632 0.583878 -0.173342
C96   C     C_R   0.498956 0.931489 0.416093 -0.172929
C97   C     C_R   0.989699 0.496999 0.447422 0.157029
C98   C     C_R   0.010074 0.503122 0.552614 0.156383
C99   C     C_R   0.512436 0.996763 0.552562 0.159160
C100  C     C_R   0.487360 0.003367 0.447402 0.158538
C101  C     C_R   0.004818 0.379559 0.440508 0.067043
C102  C     C_R   0.994942 0.620554 0.559535 0.066647
C103  C     C_R   0.532618 0.879420 0.559167 0.072440
C104  C     C_R   0.467139 0.120700 0.440790 0.072072
C105  C     C_R   0.997181 0.538418 0.484878 0.085026
C106  C     C_R   0.002517 0.461712 0.515159 0.085117
C107  C     C_R   0.502983 0.038359 0.515158 0.084657
C108  C     C_R   0.496740 0.961779 0.484805 0.084743
C109  C     C_R   0.995174 0.345664 0.507213 -0.237910
C110  C     C_R   0.004456 0.654468 0.492827 -0.237631
C111  C     C_R   0.494059 0.845671 0.492683 -0.238859
C112  C     C_R   0.505588 0.154469 0.507278 -0.238576
C113  C     C_R   0.000877 0.303612 0.470800 0.300167
C114  C     C_R   0.998796 0.696510 0.529244 0.300156
C115  C     C_R   0.515511 0.803552 0.528942 0.306988
C116  C     C_R   0.484155 0.196576 0.471015 0.306986
H29   H     H_    0.064550 0.342811 0.580668 0.101298
H30   H     H_    0.935414 0.657308 0.419350 0.101115
H31   H     H_    0.531000 0.843480 0.418659 0.103083
H32   H     H_    0.469042 0.156655 0.581321 0.102919
H33   H     H_    0.979259 0.615400 0.654929 0.101829
H34   H     H_    0.020745 0.384640 0.345123 0.104184
H35   H     H_    0.398752 0.115337 0.346027 0.103303
H36   H     H_    0.601235 0.884703 0.653918 0.105748
H37   H     H_    0.048345 0.254875 0.396697 0.154350
H38   H     H_    0.951505 0.745210 0.603361 0.154376
H39   H     H_    0.600079 0.754794 0.602117 0.152847
H40   H     H_    0.399744 0.245294 0.397823 0.152861
H41   H     H_    0.979531 0.284372 0.529005 0.160728
H42   H     H_    0.020008 0.715769 0.471035 0.160718
H43   H     H_    0.469737 0.784422 0.471018 0.160072
H44   H     H_    0.529824 0.215728 0.528942 0.160045
C117  C     C_1   0.004072 0.987610 0.132279 0.144615
N5    N     N_1   0.034995 0.950882 0.161704 -0.074009
C118  C     C_1   0.974787 0.076119 0.848525 0.121881
N6    N     N_1   0.971416 0.114141 0.818763 -0.071779
C119  C     C_1   0.564534 0.484269 0.869378 0.164927
N7    N     N_1   0.607191 0.446855 0.840886 -0.076001
C120  C     C_1   0.397213 0.579590 0.150536 0.127370
N8    N     N_1   0.379937 0.617788 0.180017 -0.073587
N9    N     N_R   0.995299 0.183493 0.465608 0.217211
O29   O     O_R   0.892605 0.138746 0.438871 -0.421516
O30   O     O_R   0.064565 0.117802 0.491470 -0.378515
N10   N     N_R   0.004385 0.816626 0.534440 0.217192
O31   O     O_R   0.107129 0.861362 0.561172 -0.421421
O32   O     O_R   0.935103 0.882328 0.508583 -0.378575
N11   N     N_R   0.512090 0.683465 0.534165 0.216915
O33   O     O_R   0.421418 0.638920 0.561871 -0.419468
O34   O     O_R   0.569541 0.617653 0.507675 -0.377627
N12   N     N_R   0.487563 0.316660 0.465787 0.216895
O35   O     O_R   0.578288 0.361195 0.438086 -0.419410
O36   O     O_R   0.430081 0.382480 0.492272 -0.377676

loop_
_geom_bond_atom_site_label_1
_geom_bond_atom_site_label_2
_geom_bond_distance
_ccdc_geom_bond_type
C26   C30   1.407290 A    
C103  C115  1.412730 A    
C120  N8    1.157393 T    
O1    C5    1.302750 A    
C31   H7    1.077260 S    
C96   C100  1.413976 A    
O13   V1    1.996931 S    
C105  C106  1.418149 A    
O3    C7    1.298073 A    
C75   C119  1.448878 S    
C107  C108  1.418565 A    
C83   C95   1.391881 A    
C11   N3    1.380041 A    
C16   O27   1.347809 S    
C28   C56   1.406289 A    
C45   C77   1.387532 A    
N9    O29   1.300074 A    
C7    C81   1.456277 S    
C62   C77   1.415281 A    
C11   C43   1.407267 A    
C18   C22   1.395956 A    
C17   C33   1.418870 A    
C61   C78   1.418320 A    
C32   C36   1.409860 A    
C47   H11   1.083212 S    
O20   V1    1.695901 S    
O9    C4    1.305777 A    
C87   H39   1.078271 S    
C63   C80   1.418103 A    
C91   H36   1.083614 S    
N2    C14   1.379421 A    
O4    C8    1.298053 A    
O11   C2    1.304402 A    
N12   O36   1.301161 A    
C24   C56   1.394891 A    
O6    C2    1.307728 A    
C89   H34   1.083600 S    
C57   C65   1.419137 A    
C86   C102  1.412701 A    
C115  N11   1.444369 S    
C101  C113  1.413142 A    
C58   C61   1.433314 A    
C59   C67   1.419171 A    
C84   C96   1.391813 A    
C98   C106  1.427928 A    
C5    C83   1.456886 S    
C85   C89   1.390588 A    
C61   C65   1.422102 A    
C12   C44   1.414864 A    
C17   H18   1.071182 S    
C98   C102  1.426737 A    
C88   C92   1.390457 A    
C77   H25   1.076948 S    
C10   N2    1.375862 A    
C114  N10   1.444595 S    
C46   H10   1.083095 S    
C105  C110  1.413211 A    
C14   O25   1.347345 S    
C45   H9    1.083056 S    
C59   C64   1.424963 A    
O14   V2    1.996926 S    
C15   C51   1.425717 A    
C95   H32   1.077840 S    
C83   C91   1.391077 A    
C110  C114  1.397159 A    
C96   H31   1.077842 S    
O5    C1    1.312089 A    
O4    V1    2.022148 S    
C20   C36   1.404415 A    
C108  C111  1.413169 A    
O9    V1    1.984585 S    
C97   C105  1.427976 A    
O17   V4    1.691095 S    
O7    C3    1.307764 A    
C40   C67   1.430808 A    
O15   V3    2.001617 S    
C118  N6    1.157327 T    
O8    C4    1.304460 A    
C60   C72   1.413317 A    
O12   V4    1.987813 S    
O19   V2    1.695901 S    
C117  N5    1.157513 T    
C74   C118  1.446761 S    
C26   C54   1.405946 A    
C111  H43   1.075646 S    
C88   C104  1.411954 A    
O16   V4    2.001622 S    
C39   C51   1.407572 A    
C28   H4    1.083170 S    
O17   V1    2.167768 S    
C48   H12   1.083222 S    
C90   H33   1.083658 S    
C31   C35   1.417492 A    
C40   C52   1.408364 A    
O7    V3    1.993015 S    
C30   C34   1.409584 A    
C107  C112  1.413195 A    
O19   V3    2.160365 S    
O8    V4    1.993016 S    
C25   C53   1.396476 A    
C14   C50   1.416566 A    
C12   O24   1.347844 S    
C85   C101  1.412630 A    
C32   H8    1.076192 S    
C27   C55   1.397559 A    
C60   C68   1.419781 A    
N12   O35   1.300237 A    
N10   O31   1.300090 A    
C19   C35   1.417682 A    
C99   C107  1.427764 A    
C48   C80   1.393602 A    
C19   C23   1.393011 A    
O18   V3    1.691095 S    
C104  C116  1.412753 A    
C86   C90   1.390653 A    
C49   C74   1.417608 A    
C78   H26   1.075518 S    
O1    V4    2.023634 S    
O13   C5    1.300460 A    
C16   C52   1.416643 A    
O2    V3    2.023634 S    
C51   C76   1.417219 A    
O3    V2    2.022148 S    
C11   O23   1.348019 S    
N3    C35   1.475422 S    
C38   C42   1.408808 A    
C59   C71   1.410888 A    
C58   C70   1.412589 A    
C38   C65   1.431152 A    
C29   C33   1.416501 A    
C86   H38   1.078141 S    
C18   C34   1.403888 A    
C19   H20   1.069063 S    
O10   V2    1.984591 S    
N11   O33   1.300237 A    
C82   C90   1.390394 A    
O20   V4    2.160365 S    
C99   C103  1.426390 A    
C39   C68   1.430303 A    
C102  C114  1.413173 A    
C58   C66   1.419878 A    
C40   C44   1.408277 A    
C79   H27   1.077154 S    
C112  H44   1.075639 S    
C37   C41   1.405266 A    
C80   H28   1.075759 S    
C70   C74   1.398667 A    
C25   H1    1.083579 S    
C26   H2    1.083134 S    
C3    C54   1.476480 S    
C69   C73   1.393309 A    
C100  C104  1.426347 A    
C9    C41   1.407383 A    
N11   O34   1.301168 A    
C37   C66   1.431332 A    
C10   C42   1.414657 A    
O18   V2    2.167768 S    
C71   C75   1.393476 A    
C30   H6    1.076744 S    
C109  H41   1.075622 S    
C4    C53   1.464474 S    
C95   C99   1.414043 A    
C27   H3    1.083461 S    
N4    C36   1.469511 S    
C93   H30   1.077797 S    
C46   C78   1.393083 A    
O5    V1    1.989836 S    
C93   C97   1.413882 A    
C73   C117  1.448625 S    
O15   C7    1.304028 A    
C22   C54   1.393876 A    
C62   C66   1.419892 A    
C92   H35   1.083678 S    
C64   C68   1.419581 A    
C57   C62   1.425295 A    
C20   H19   1.063874 S    
C100  C108  1.427707 A    
C47   C79   1.388222 A    
N1    C13   1.381757 A    
C110  H42   1.075614 S    
O6    V2    1.989836 S    
O10   C3    1.308079 A    
C10   O22   1.347973 S    
C63   C67   1.422189 A    
C22   H13   1.083321 S    
C12   N4    1.376799 A    
C13   C49   1.426650 A    
C44   C48   1.398564 A    
C6    C84   1.456769 S    
C18   H17   1.062109 S    
C2    C55   1.465569 S    
N1    C33   1.474705 S    
C25   C29   1.399133 A    
C82   C94   1.391540 A    
C87   C103  1.411885 A    
C13   O26   1.346247 S    
C81   C93   1.391606 A    
C111  C115  1.396983 A    
C85   H37   1.078137 S    
C87   C91   1.390394 A    
C119  N7    1.157539 T    
C28   C32   1.406723 A    
C69   H21   1.078330 S    
C9    N1    1.379178 A    
O14   C6    1.300437 A    
C81   C89   1.390383 A    
C88   H40   1.078263 S    
N4    C16   1.379779 A    
C8    C82   1.456167 S    
O2    C6    1.302740 A    
C39   C43   1.404590 A    
C15   O28   1.345985 S    
N3    C15   1.382452 A    
C52   C75   1.415372 A    
C17   C21   1.394887 A    
C1    C56   1.479715 S    
C116  N12   1.444357 S    
C113  N9    1.444596 S    
C27   C31   1.400143 A    
C29   H5    1.076118 S    
C70   H22   1.076746 S    
C64   C79   1.415472 A    
C23   C55   1.392556 A    
C57   C69   1.410817 A    
C38   C50   1.408954 A    
C94   H29   1.077809 S    
C9    O21   1.347764 S    
C24   H15   1.083183 S    
C37   C49   1.408597 A    
C94   C98   1.413824 A    
O11   V3    1.987818 S    
C72   C76   1.399632 A    
C112  C116  1.397055 A    
O12   C1    1.306572 A    
N10   O32   1.301219 A    
C23   H16   1.084033 S    
C42   C46   1.398078 A    
N2    C34   1.468435 S    
C76   C120  1.446615 S    
C41   C45   1.397763 A    
C21   C53   1.392827 A    
C21   H14   1.083950 S    
C84   C92   1.391081 A    
C50   C73   1.415669 A    
C109  C113  1.397091 A    
C71   H23   1.078492 S    
N9    O30   1.301223 A    
C43   C47   1.397889 A    
O16   C8    1.304024 A    
C60   C63   1.433127 A    
C97   C101  1.426774 A    
C20   C24   1.396663 A    
C72   H24   1.077014 S    
C106  C109  1.413188 A    
