data_mof_unit_49107.cif
_audit_creation_date              2012-10-26T17:11:24-0400
_audit_creation_method            fapswitch 2.2
_symmetry_space_group_name_H-M    P1
_symmetry_Int_Tables_number       1
_space_group_crystal_system       triclinic
_cell_length_a                    28.01377
_cell_length_b                    18.726075
_cell_length_c                    16.834206
_cell_angle_alpha                 89.945342
_cell_angle_beta                  62.639059
_cell_angle_gamma                 89.919609
_cell_volume                      7843.07744509

loop_
_atom_site_label
_atom_site_type_symbol
_atom_type_description
_atom_site_fract_x
_atom_site_fract_y
_atom_site_fract_z
_atom_type_partial_charge
C1    C     C_R   0.294893 0.728146 0.329645 0.545155
C2    C     C_R   0.597496 0.000711 0.512607 0.023811
C3    C     C_R   0.690917 0.711933 0.903898 -0.012874
C4    C     C_R   0.926407 0.903259 0.066670 0.553837
C5    C     C_R   0.073596 0.096737 0.933329 0.553616
C6    C     C_R   0.073513 0.903138 0.933417 0.554149
C7    C     C_R   0.926477 0.096849 0.066591 0.553988
C8    C     C_R   0.426449 0.403205 0.066636 0.553687
C9    C     C_R   0.573528 0.596823 0.933380 0.553934
C10   C     C_R   0.573525 0.403154 0.933407 0.553946
C11   C     C_R   0.426426 0.596785 0.066629 0.553670
C12   C     C_R   0.069775 0.624231 0.439057 0.008774
C13   C     C_R   0.913098 0.499613 0.453032 0.022383
C14   C     C_R   0.957213 0.371068 0.477743 0.007443
C15   C     C_R   0.972879 0.626107 0.425557 0.011529
C16   C     C_R   0.041315 0.373977 0.524030 0.011266
C17   C     C_R   0.528380 0.119855 0.570330 0.013058
C18   C     C_R   0.471620 0.880143 0.429671 0.013013
C19   C     C_R   0.430573 0.118247 0.560159 0.010769
C20   C     C_R   0.569427 0.881751 0.439842 0.010776
C21   C     C_R   0.053701 0.686114 0.410299 -0.127678
C22   C     C_R   0.975021 0.307537 0.499813 -0.127728
C23   C     C_R   0.005218 0.687405 0.405050 -0.127499
C24   C     C_R   0.100660 0.500299 0.500507 0.022302
C25   C     C_R   0.015286 0.309469 0.526615 -0.126926
C26   C     C_R   0.492642 0.177720 0.602599 -0.127610
C27   C     C_R   0.507356 0.822277 0.397405 -0.127582
C28   C     C_R   0.444063 0.176773 0.597971 -0.128006
C29   C     C_R   0.555936 0.823224 0.402033 -0.127973
C30   C     C_R   0.990333 0.563131 0.449713 0.024079
C31   C     C_R   0.025579 0.436884 0.496918 0.023046
C32   C     C_R   0.037923 0.562756 0.459360 0.023451
C33   C     C_R   0.981082 0.436073 0.479332 0.022909
C34   C     C_R   0.465572 0.059430 0.528972 0.023329
C35   C     C_R   0.617131 0.881838 0.447522 -0.118051
C36   C     C_R   0.534428 0.940569 0.471028 0.023332
C37   C     C_R   0.514434 0.060043 0.534637 0.023321
C38   C     C_R   0.485566 0.939955 0.465364 0.023322
C39   C     C_R   0.451157 0.999496 0.494036 -0.006669
C40   C     C_R   0.548843 0.000503 0.505964 -0.006667
C41   C     C_R   0.961563 0.499717 0.460394 -0.006842
C42   C     C_R   0.054408 0.500227 0.486658 -0.007101
C43   C     C_R   0.385979 0.936883 0.459143 -0.001143
C44   C     C_R   0.614022 0.063116 0.540856 -0.001103
C45   C     C_R   0.629853 0.938662 0.490062 -0.003562
C46   C     C_R   0.382869 0.118160 0.552477 -0.118117
C47   C     C_R   0.370148 0.061338 0.509937 -0.003599
C48   C     C_R   0.887806 0.433881 0.454718 -0.002541
C49   C     C_R   0.130998 0.563524 0.485644 -0.003171
C50   C     C_R   0.117019 0.436653 0.527139 -0.001728
C51   C     C_R   0.890596 0.564972 0.443634 -0.002195
C52   C     C_R   0.333722 0.935393 0.463886 -0.027836
C53   C     C_R   0.666278 0.064606 0.536111 -0.027800
C54   C     C_R   0.674054 0.936394 0.510203 -0.024339
C55   C     C_R   0.325946 0.063606 0.489795 -0.024359
C56   C     C_R   0.835664 0.434349 0.458651 -0.024489
C57   C     C_R   0.422269 0.878848 0.426894 -0.116210
C58   C     C_R   0.174139 0.564436 0.508779 -0.022381
C59   C     C_R   0.166933 0.435653 0.531125 -0.027640
C60   C     C_R   0.836725 0.565318 0.454450 -0.027498
C61   C     C_R   0.306899 0.999885 0.471888 -0.164257
C62   C     C_R   0.693102 0.000114 0.528108 -0.164155
C63   C     C_R   0.811228 0.499910 0.459395 -0.166364
C64   C     C_R   0.192432 0.500310 0.527671 -0.165810
C65   C     C_3   0.251864 0.898180 0.946439 -0.399906
C66   C     C_3   0.748444 0.101217 0.052860 -0.399760
C67   C     C_3   0.747308 0.899238 0.053876 -0.400557
C68   C     C_R   0.577731 0.121150 0.573107 -0.116250
C69   C     C_3   0.253189 0.101081 0.945131 -0.400558
C70   C     C_3   0.751597 0.398927 0.947125 -0.399735
C71   C     C_3   0.247227 0.600900 0.054722 -0.400279
C72   C     C_3   0.247484 0.398204 0.054017 -0.399940
C73   C     C_3   0.751704 0.601675 0.947423 -0.399810
C74   C     C_R   0.083647 0.375853 0.545867 -0.115202
C75   C     C_R   0.923516 0.626803 0.422502 -0.117610
C76   C     C_R   0.915857 0.370347 0.454061 -0.116437
C77   C     C_R   0.705089 0.271825 0.670370 0.554419
C78   C     C_R   0.117305 0.622879 0.447190 -0.118196
C79   C     C_R   0.221205 0.769268 0.953245 0.024337
C80   C     C_R   0.778527 0.230316 0.047024 0.024610
C81   C     C_R   0.778158 0.770378 0.047336 0.023743
C82   C     C_R   0.221760 0.229752 0.952749 0.023541
C83   C     C_R   0.721551 0.269816 0.952905 0.024619
C84   C     C_R   0.278082 0.729727 0.047496 0.023872
C85   C     C_R   0.278780 0.269474 0.046696 0.024079
C86   C     C_R   0.721102 0.730638 0.953446 0.024200
C87   C     C_R   0.221598 0.698006 0.978399 -0.106858
C88   C     C_R   0.705090 0.728177 0.670360 0.563582
C89   C     C_R   0.777737 0.301668 0.022520 -0.106652
C90   C     C_R   0.777624 0.699037 0.022707 -0.106870
C91   C     C_R   0.221947 0.300999 0.977992 -0.107153
C92   C     C_R   0.722344 0.198465 0.977405 -0.106455
C93   C     C_R   0.277646 0.800994 0.022417 -0.106847
C94   C     C_R   0.278625 0.198230 0.021398 -0.107358
C95   C     C_R   0.721584 0.801973 0.978167 -0.107145
C96   C     C_R   0.249523 0.677576 0.025818 0.011168
C97   C     C_R   0.749743 0.322092 0.975220 0.012043
C98   C     C_R   0.749590 0.678499 0.975560 0.011628
C99   C     C_R   0.294902 0.271835 0.329647 0.562901
C100  C     C_R   0.249956 0.321518 0.025191 0.011581
C101  C     C_R   0.750328 0.178044 0.024720 0.012174
C102  C     C_R   0.249691 0.821439 0.975069 0.011673
C103  C     C_R   0.250636 0.177721 0.974150 0.010822
C104  C     C_R   0.749579 0.822492 0.025401 0.010995
C105  C     C_R   0.144803 0.830212 0.944045 -0.119866
C106  C     C_R   0.855048 0.169542 0.056085 -0.119678
C107  C     C_R   0.854687 0.831183 0.056348 -0.118417
C108  C     C_R   0.145282 0.168874 0.943687 -0.118914
C109  C     C_R   0.645004 0.330546 0.943872 -0.118919
C110  C     C_R   0.794911 0.228176 0.329630 0.556888
C111  C     C_R   0.354687 0.669004 0.056380 -0.118611
C112  C     C_R   0.355102 0.330534 0.055996 -0.119931
C113  C     C_R   0.644782 0.669622 0.944094 -0.119842
C114  C     C_R   0.117971 0.852085 0.895235 -0.015959
C115  C     C_R   0.881979 0.147839 0.104805 -0.015943
C116  C     C_R   0.881778 0.852506 0.104948 -0.016065
C117  C     C_R   0.118217 0.147502 0.895061 -0.016208
C118  C     C_R   0.618036 0.352182 0.895185 -0.015787
C119  C     C_R   0.381812 0.647610 0.104919 -0.016075
C120  C     C_R   0.381947 0.352266 0.104823 -0.016012
C121  C     C_R   0.205079 0.771802 0.670378 0.563280
C122  C     C_R   0.617993 0.647813 0.895216 -0.015891
C123  C     C_R   0.136609 0.829649 0.807014 -0.138111
C124  C     C_R   0.863392 0.170361 0.192983 -0.139410
C125  C     C_R   0.863267 0.829780 0.193047 -0.139848
C126  C     C_R   0.136744 0.170201 0.806949 -0.139530
C127  C     C_R   0.636600 0.329619 0.807028 -0.140209
C128  C     C_R   0.363324 0.670291 0.193012 -0.139928
C129  C     C_R   0.363310 0.329746 0.193029 -0.138071
C130  C     C_R   0.636659 0.670291 0.806987 -0.137918
C131  C     C_R   0.182697 0.787615 0.766039 -0.016403
C132  C     C_R   0.205119 0.228125 0.670336 0.546199
C133  C     C_R   0.817259 0.212303 0.234001 -0.016013
C134  C     C_R   0.817118 0.787983 0.234101 -0.015646
C135  C     C_R   0.182874 0.212036 0.765911 -0.015849
C136  C     C_R   0.682754 0.287716 0.765991 -0.016063
C137  C     C_R   0.317124 0.712097 0.234109 -0.015709
C138  C     C_R   0.317266 0.287736 0.233975 -0.016290
C139  C     C_R   0.682697 0.712315 0.766056 -0.016391
C140  C     C_R   0.209566 0.765949 0.815053 -0.122282
C141  C     C_R   0.790292 0.233792 0.185084 -0.122306
C142  C     C_R   0.790038 0.766834 0.185309 -0.125848
C143  C     C_R   0.794880 0.771878 0.329666 0.544395
C144  C     C_R   0.209919 0.233253 0.814738 -0.125871
C145  C     C_R   0.709758 0.266295 0.814874 -0.122370
C146  C     C_R   0.289980 0.733298 0.185381 -0.125533
C147  C     C_R   0.290435 0.266157 0.184929 -0.122199
C148  C     C_R   0.709496 0.733934 0.815144 -0.122147
C149  C     C_R   0.200633 0.631111 0.513807 0.555580
C150  C     C_R   0.803086 0.368354 0.473645 0.554096
C151  C     C_R   0.803745 0.631805 0.471318 0.550288
C152  C     C_R   0.197016 0.368565 0.525610 0.551206
C153  C     C_R   0.696671 0.131694 0.527471 0.549734
C154  C     C_R   0.402504 0.999287 0.487392 0.023782
C155  C     C_R   0.303329 0.868306 0.472526 0.549988
C156  C     C_R   0.299291 0.130942 0.486389 0.554400
C157  C     C_R   0.700709 0.869058 0.513610 0.554356
C158  C     C_R   0.190980 0.787917 0.903775 -0.012879
C159  C     C_R   0.808814 0.211730 0.096415 -0.013042
C160  C     C_R   0.808460 0.789040 0.096691 -0.012614
C161  C     C_R   0.191478 0.211076 0.903371 -0.012611
C162  C     C_R   0.691253 0.288388 0.903526 -0.012975
C163  C     C_R   0.308416 0.711126 0.096792 -0.012586
C164  C     C_R   0.308983 0.288188 0.096201 -0.012906
Cu1   Cu    Cu3+1 0.209920 0.785290 0.495070 0.909650
Cu2   Cu    Cu3+1 0.504760 0.500000 0.075850 0.917564
Cu3   Cu    Cu3+1 0.995240 0.000000 0.924150 0.918175
Cu4   Cu    Cu3+1 0.004760 0.000000 0.075850 0.914166
Cu5   Cu    Cu3+1 0.790080 0.214710 0.504930 0.906657
Cu6   Cu    Cu3+1 0.790080 0.785290 0.504930 0.914061
Cu7   Cu    Cu3+1 0.209920 0.214710 0.495070 0.911622
Cu8   Cu    Cu3+1 0.709920 0.285290 0.495070 0.919319
Cu9   Cu    Cu3+1 0.290080 0.714710 0.504930 0.918387
Cu10  Cu    Cu3+1 0.290080 0.285290 0.504930 0.914183
Cu11  Cu    Cu3+1 0.709920 0.714710 0.495070 0.913750
Cu12  Cu    Cu3+1 0.495240 0.500000 0.924150 0.917832
H1    H     H_    0.582611 0.777614 0.377244 0.104972
H2    H     H_    0.730205 0.999826 0.533417 0.159191
H3    H     H_    0.770549 0.500071 0.467578 0.159416
H4    H     H_    0.228100 0.500433 0.537320 0.158064
H5    H     H_    0.644713 0.838171 0.416774 0.143700
H6    H     H_    0.355287 0.161828 0.583225 0.143611
H7    H     H_    0.413724 0.833414 0.395937 0.137380
H8    H     H_    0.586275 0.166583 0.604065 0.137026
H9    H     H_    0.089026 0.329359 0.578726 0.144693
H10   H     H_    0.912685 0.675309 0.400046 0.142961
H11   H     H_    0.908278 0.319164 0.433589 0.152447
H12   H     H_    0.417388 0.222382 0.622761 0.104974
H13   H     H_    0.143685 0.668003 0.419786 0.148167
H14   H     H_    0.199517 0.658434 0.961536 0.111665
H15   H     H_    0.799561 0.341331 0.039813 0.111126
H16   H     H_    0.799675 0.659456 0.039799 0.111732
H17   H     H_    0.199648 0.340510 0.961342 0.111729
H18   H     H_    0.700518 0.158801 0.960116 0.111291
H19   H     H_    0.299717 0.840570 0.039299 0.111732
H20   H     H_    0.300930 0.158721 0.038034 0.111682
H21   H     H_    0.699519 0.841549 0.961100 0.111638
H22   H     H_    0.130863 0.847472 0.012581 0.133088
H23   H     H_    0.497589 0.776013 0.369083 0.106480
H24   H     H_    0.868972 0.152254 0.987565 0.133744
H25   H     H_    0.868529 0.848635 0.987889 0.134661
H26   H     H_    0.131454 0.151403 0.012138 0.134054
H27   H     H_    0.631093 0.347857 0.012380 0.134653
H28   H     H_    0.368508 0.651573 0.987937 0.134734
H29   H     H_    0.369014 0.347882 0.987479 0.132941
H30   H     H_    0.630815 0.652347 0.012650 0.132881
H31   H     H_    0.116375 0.847302 0.768962 0.155684
H32   H     H_    0.883704 0.152848 0.230968 0.153865
H33   H     H_    0.883682 0.846987 0.230931 0.153168
H34   H     H_    0.502409 0.223983 0.630924 0.106423
H35   H     H_    0.116356 0.152945 0.769043 0.153778
H36   H     H_    0.616256 0.347072 0.769070 0.153183
H37   H     H_    0.383780 0.653028 0.230869 0.153350
H38   H     H_    0.383530 0.347299 0.231083 0.155823
H39   H     H_    0.616470 0.652689 0.768904 0.155831
H40   H     H_    0.245934 0.734209 0.783746 0.135225
H41   H     H_    0.753893 0.265468 0.216433 0.135160
H42   H     H_    0.753645 0.735246 0.216707 0.130324
H43   H     H_    0.246298 0.264871 0.783359 0.130370
H44   H     H_    0.746169 0.234643 0.783511 0.134381
H45   H     H_    0.027432 0.260209 0.546035 0.104842
H46   H     H_    0.253535 0.764881 0.216802 0.130444
H47   H     H_    0.254121 0.234409 0.216219 0.134934
H48   H     H_    0.745812 0.765678 0.783863 0.135197
H49   H     H_    0.267058 0.901001 0.872874 0.147024
H50   H     H_    0.211229 0.922465 0.980345 0.131476
H51   H     H_    0.279010 0.930491 0.963685 0.117194
H52   H     H_    0.789157 0.077183 0.018752 0.131678
H53   H     H_    0.733291 0.098118 0.126400 0.147012
H54   H     H_    0.721384 0.068861 0.035467 0.117159
H55   H     H_    0.732095 0.902099 0.127444 0.144035
H56   H     H_    0.993047 0.736327 0.384994 0.105292
H57   H     H_    0.787918 0.923485 0.019941 0.132426
H58   H     H_    0.720118 0.931525 0.036562 0.117580
H59   H     H_    0.212656 0.076589 0.978848 0.132343
H60   H     H_    0.268438 0.098540 0.871537 0.144022
H61   H     H_    0.280466 0.068811 0.962267 0.117585
H62   H     H_    0.766738 0.402045 0.873590 0.147028
H63   H     H_    0.710875 0.422936 0.981261 0.131939
H64   H     H_    0.778651 0.431300 0.964519 0.117047
H65   H     H_    0.287842 0.576532 0.021023 0.132361
H66   H     H_    0.231944 0.598246 0.128321 0.144471
H67   H     H_    0.956471 0.256860 0.499511 0.104390
H68   H     H_    0.220090 0.568575 0.037473 0.117541
H69   H     H_    0.232296 0.400868 0.127588 0.146959
H70   H     H_    0.288030 0.422643 0.020158 0.131651
H71   H     H_    0.220200 0.430456 0.036880 0.117134
H72   H     H_    0.711060 0.577550 0.981558 0.131554
H73   H     H_    0.766843 0.598611 0.873889 0.147298
H74   H     H_    0.778870 0.569380 0.964791 0.117107
H75   H     H_    0.077992 0.734064 0.393901 0.104174
H76   H     H_    0.269796 0.000174 0.466577 0.159187
O1    O     O_R   0.255040 0.869590 0.478480 -0.507436
O2    O     O_R   0.817950 0.203450 0.375560 -0.514345
O3    O     O_R   0.817950 0.796550 0.375560 -0.518896
O4    O     O_R   0.182050 0.203450 0.624440 -0.516900
O5    O     O_R   0.682050 0.296550 0.624440 -0.515327
O6    O     O_R   0.317950 0.703450 0.375560 -0.517661
O7    O     O_R   0.317950 0.296550 0.375560 -0.505380
O8    O     O_R   0.682050 0.703450 0.624440 -0.505027
O9    O     O_R   0.250530 0.763330 0.367210 -0.524826
O10   O     O_R   0.749470 0.236670 0.632790 -0.511564
O11   O     O_R   0.749470 0.763330 0.632790 -0.507364
O12   O     O_R   0.744960 0.130410 0.521520 -0.507524
O13   O     O_R   0.250530 0.236670 0.367210 -0.508252
O14   O     O_R   0.750530 0.263330 0.367210 -0.509614
O15   O     O_R   0.249470 0.736670 0.632790 -0.507696
O16   O     O_R   0.249470 0.263330 0.632790 -0.523601
O17   O     O_R   0.750530 0.736670 0.367210 -0.524077
O18   O     O_R   0.177260 0.690030 0.513710 -0.519086
O19   O     O_R   0.822740 0.309970 0.486290 -0.524350
O20   O     O_R   0.822740 0.690030 0.486290 -0.515576
O21   O     O_R   0.177260 0.309970 0.513710 -0.518841
O22   O     O_R   0.677260 0.190030 0.513710 -0.513065
O23   O     O_R   0.744960 0.869590 0.521520 -0.508933
O24   O     O_R   0.322740 0.809970 0.486290 -0.513142
O25   O     O_R   0.322740 0.190030 0.486290 -0.515629
O26   O     O_R   0.677260 0.809970 0.513710 -0.515700
O27   O     O_R   0.051640 0.926880 0.885090 -0.510091
O28   O     O_R   0.948360 0.073120 0.114910 -0.511058
O29   O     O_R   0.948360 0.926880 0.114910 -0.511652
O30   O     O_R   0.051640 0.073120 0.885090 -0.511210
O31   O     O_R   0.551640 0.426880 0.885090 -0.511598
O32   O     O_R   0.448360 0.573120 0.114910 -0.511718
O33   O     O_R   0.448360 0.426880 0.114910 -0.509968
O34   O     O_R   0.255040 0.130410 0.478480 -0.508973
O35   O     O_R   0.551640 0.573120 0.885090 -0.509830
O36   O     O_R   0.940620 0.926560 0.986760 -0.515054
O37   O     O_R   0.059380 0.073440 0.013240 -0.515750
O38   O     O_R   0.059380 0.926560 0.013240 -0.516383
O39   O     O_R   0.940620 0.073440 0.986760 -0.515912
O40   O     O_R   0.440620 0.426560 0.986760 -0.516614
O41   O     O_R   0.559380 0.573440 0.013240 -0.516567
O42   O     O_R   0.559380 0.426560 0.013240 -0.515140
O43   O     O_R   0.440620 0.573440 0.986760 -0.515089
O44   O     O_R   0.755040 0.369590 0.478480 -0.506799
O45   O     O_R   0.244960 0.630410 0.521520 -0.508555
O46   O     O_R   0.244960 0.369590 0.521520 -0.505844
O47   O     O_R   0.755040 0.630410 0.478480 -0.506548
O48   O     O_R   0.182050 0.796550 0.624440 -0.505601

loop_
_geom_bond_atom_site_label_1
_geom_bond_atom_site_label_2
_ccdc_geom_bond_type
C15   C75   A    
Cu4   O38   S    
C31   C42   A    
C110  O14   A    
C14   C33   A    
C79   C87   A    
C19   C46   A    
C16   C31   A    
C78   H13   S    
C124  C133  A    
C94   H20   S    
C50   C59   A    
Cu12  O31   S    
C92   H18   S    
C52   C61   A    
C49   C78   A    
C72   H70   S    
C129  H38   S    
C153  O12   A    
Cu8   O14   S    
C131  C140  A    
C134  C143  S    
C13   C51   A    
C111  H28   S    
C44   C53   A    
C113  C122  A    
Cu9   O45   S    
Cu11  O47   S    
C79   C102  A    
Cu12  O40   S    
C91   C100  A    
C117  C126  A    
Cu11  O17   S    
C119  C128  A    
C67   H55   S    
C29   H1    S    
C124  H32   S    
C58   C64   A    
C11   O32   A    
Cu1   O48   S    
C22   H67   S    
C109  C118  A    
C112  C164  A    
Cu1   O18   S    
C39   C154  A    
C137  C146  A    
C151  O47   A    
C127  C136  A    
C112  C120  A    
C80   C159  S    
C82   C91   A    
C5    O30   A    
C60   C151  S    
C14   C76   A    
C150  O19   A    
C157  O23   A    
Cu3   O36   S    
C105  C158  A    
C36   C40   A    
C95   H21   S    
C65   H49   S    
C81   C90   A    
C35   C45   A    
Cu3   O27   S    
Cu4   O28   S    
C15   C30   A    
C1    O6    A    
C16   C25   A    
C68   H8    S    
C94   C103  A    
C69   H60   S    
Cu2   O33   S    
C155  O24   A    
C35   H5    S    
C106  C115  A    
C152  O21   A    
C18   C38   A    
C110  O2    A    
C61   H76   S    
Cu7   O13   S    
C84   C93   A    
C86   C95   A    
C132  O4    A    
C2    C40   A    
C5    C117  S    
C85   C164  S    
Cu8   O5    S    
C6    O38   A    
Cu2   O41   S    
C53   C153  S    
C27   C29   A    
C48   C76   A    
Cu11  O26   S    
Cu7   O34   S    
C121  O15   A    
C79   C158  S    
C9    O41   A    
C90   H16   S    
C11   O43   A    
Cu6   O3    S    
C16   C74   A    
C71   H68   S    
C37   C40   A    
C126  H35   S    
C50   C74   A    
C38   C39   A    
C91   H17   S    
Cu4   O29   S    
C106  C159  A    
C121  O48   A    
C65   H51   S    
C111  C119  A    
C53   C62   A    
C6    C114  S    
C140  C158  A    
C20   C35   A    
C141  C159  A    
C2    C44   A    
C22   C25   A    
Cu7   O4    S    
C30   C41   A    
C43   C154  A    
C74   H9    S    
C81   C160  S    
C143  O3    A    
C66   C101  S    
Cu12  O43   S    
C70   H64   S    
Cu6   O23   S    
C73   H73   S    
C69   C103  S    
C2    C45   A    
C24   C50   A    
C73   C98   S    
C139  C148  A    
C9    O35   A    
C120  C129  A    
C27   H23   S    
C125  H33   S    
Cu10  O46   S    
Cu7   O21   S    
C99   O7    A    
C26   H34   S    
C19   C28   A    
C84   C163  S    
C87   H14   S    
C114  C123  A    
C83   C162  S    
C116  C125  A    
C75   H10   S    
C118  C127  A    
C56   C150  S    
C112  H29   S    
C1    C137  S    
C106  H24   S    
C143  O17   A    
C108  C117  A    
C71   H66   S    
Cu8   O22   S    
C108  C161  A    
C46   H6    S    
C69   H59   S    
C54   C157  S    
C145  H44   S    
C149  O45   A    
C55   C61   A    
C99   C138  S    
C147  C164  A    
Cu1   O1    S    
C107  C116  A    
C43   C57   A    
C127  H36   S    
Cu10  O25   S    
C66   H52   S    
C51   C60   A    
C70   H62   S    
C125  C134  A    
C67   H58   S    
C144  C161  A    
C34   C37   A    
C24   C42   A    
C13   C41   A    
C107  C160  A    
C59   C152  S    
C52   C155  S    
C66   H53   S    
C43   C52   A    
C107  H25   S    
C109  C162  A    
C28   H12   S    
C72   C100  S    
C146  H46   S    
C151  O20   A    
C6    O27   A    
Cu3   O39   S    
C80   C89   A    
C141  H41   S    
C7    O39   A    
C67   H57   S    
C77   C136  S    
C152  O46   A    
C70   C97   S    
Cu11  O8    S    
C10   O42   A    
Cu4   O37   S    
C3    C86   S    
C130  C139  A    
Cu6   Cu11  S    
Cu7   Cu10  S    
C77   O10   A    
Cu3   Cu4   S    
C71   C96   S    
C54   C62   A    
C10   O31   A    
C62   H2    S    
C134  C142  A    
Cu9   O24   S    
C18   C57   A    
C9    C122  S    
C130  H39   S    
C76   H11   S    
C92   C101  A    
C8    O33   A    
C105  H22   S    
C126  C135  A    
C21   C23   A    
C7    O28   A    
Cu9   O15   S    
C147  H47   S    
Cu10  O16   S    
Cu8   O44   S    
Cu2   O42   S    
C46   C47   A    
C17   C68   A    
C115  C124  A    
C123  C131  A    
C26   C28   A    
C4    C116  S    
C93   C102  A    
C149  O18   A    
C47   C154  A    
C133  C141  A    
C33   C41   A    
C36   C38   A    
Cu9   O6    S    
C14   C22   A    
Cu5   O10   S    
C65   H50   S    
C86   C98   A    
Cu12  O35   S    
C88   O8    A    
C20   C36   A    
C83   C97   A    
C32   C42   A    
C72   H69   S    
Cu2   O32   S    
C11   C119  S    
C156  O34   A    
C73   H72   S    
C83   C92   A    
C59   C64   A    
C4    O36   A    
C60   C63   A    
C17   C26   A    
C72   H71   S    
C51   C75   A    
C64   H4    S    
C145  C162  A    
Cu1   Cu9   S    
C63   H3    S    
C84   C96   A    
C7    C115  S    
C108  H26   S    
C157  O26   A    
C34   C39   A    
C142  H42   S    
C129  C138  A    
C12   C78   A    
C82   C103  A    
C31   C33   A    
C25   H45   S    
C153  O22   A    
C136  C145  A    
C58   C149  S    
C128  H37   S    
C15   C23   A    
C3    C148  A    
C12   C32   A    
C93   H19   S    
C65   C102  S    
C121  C131  S    
C67   C104  S    
C20   C29   A    
C55   C156  S    
C105  C114  A    
C109  H27   S    
C111  C163  A    
C71   H65   S    
C144  H43   S    
C3    C113  A    
Cu10  O7    S    
C12   C21   A    
Cu5   O12   S    
C49   C58   A    
C89   C97   A    
Cu6   O11   S    
C128  C137  A    
C88   C139  S    
C10   C118  S    
C132  O16   A    
C85   C94   A    
C138  C147  A    
C87   C96   A    
C4    O29   A    
C89   H15   S    
C56   C63   A    
C123  H31   S    
C17   C37   A    
C1    O9    A    
C135  C144  A    
C45   C54   A    
Cu5   O19   S    
Cu6   O20   S    
Cu5   Cu8   S    
Cu1   O9    S    
C44   C68   A    
C70   H63   S    
C57   H7    S    
C95   C104  A    
C8    C120  S    
C47   C55   A    
C73   H74   S    
C8    O40   A    
C24   C49   A    
C48   C56   A    
C99   O13   A    
Cu5   O2    S    
C18   C27   A    
C23   H56   S    
C142  C160  A    
C19   C34   A    
C5    O37   A    
C21   H75   S    
C13   C48   A    
C82   C161  S    
C146  C163  A    
C66   H54   S    
Cu2   Cu12  S    
C80   C101  A    
C150  O44   A    
C113  H30   S    
C148  H48   S    
C156  O25   A    
C85   C100  A    
C30   C32   A    
C155  O1    A    
C132  C135  S    
C90   C98   A    
C140  H40   S    
Cu3   O30   S    
C110  C133  S    
C77   O5    A    
C69   H61   S    
C122  C130  A    
C88   O11   A    
C81   C104  A    
