data_mof_unit_22549.cif
_audit_creation_date              2013-03-05T15:55:27-0500
_audit_creation_method            fapswitch 2.2
_symmetry_space_group_name_H-M    P1
_symmetry_Int_Tables_number       1
_space_group_crystal_system       triclinic
_cell_length_a                    10.75606
_cell_length_b                    12.412828
_cell_length_c                    13.169516
_cell_angle_alpha                 116.933571
_cell_angle_beta                  74.939501
_cell_angle_gamma                 101.007549
_cell_volume                      1508.25261941

loop_
_atom_site_label
_atom_site_type_symbol
_atom_site_description
_atom_site_fract_x
_atom_site_fract_y
_atom_site_fract_z
_atom_type_partial_charge
O1    O     O_R   0.537340 0.972510 0.318130 -0.578013
O2    O     O_R   0.487200 0.806530 0.359650 -0.586730
C1    C     C_R   0.506251 0.855853 0.286982 0.830891
O3    O     O_R   0.707380 0.082980 0.479220 -0.576421
O4    O     O_R   0.657240 0.917000 0.520740 -0.584687
C2    C     C_R   0.740417 0.997536 0.496431 0.785498
Cu1   Cu    Cu3+1 0.529690 0.098270 0.475420 0.974669
Cu2   Cu    Cu3+1 0.470310 0.901730 0.524580 0.951235
O5    O     O_R   0.512800 0.193470 0.640350 -0.562973
O6    O     O_R   0.462660 0.027490 0.681870 -0.573253
O7    O     O_R   0.342760 0.083000 0.479260 -0.588456
O8    O     O_R   0.292620 0.917020 0.520780 -0.611961
C3    C     C_R   0.480401 0.144870 0.714557 0.799309
C4    C     C_R   0.260007 0.001550 0.502419 0.739303
C5    C     C_3   0.969983 0.020346 0.392547 -0.172310
H1    H     H_    0.949485 0.106781 0.396355 0.156514
C6    C     C_3   0.112405 0.032352 0.402639 -0.391914
H2    H     H_    0.172533 0.972553 0.319670 0.159827
H3    H     H_    0.153769 0.126987 0.420109 0.186833
H4    H     H_    0.898334 0.188921 0.616119 0.204450
C7    C     C_3   0.911066 0.099742 0.611719 -0.390560
C8    C     C_3   0.907375 0.874794 0.487865 -0.371362
C9    C     C_3   0.879032 0.997066 0.495931 0.056181
H5    H     H_    0.849918 0.859605 0.564519 0.203778
H6    H     H_    0.881164 0.798154 0.409023 0.175032
C10   C     C_3   0.122031 0.001944 0.502463 0.084199
C11   C     C_3   0.050465 0.094507 0.621111 -0.173229
C12   C     C_3   0.051510 0.874148 0.481280 -0.392173
H7    H     H_    0.095301 0.805876 0.394501 0.176071
H8    H     H_    0.061352 0.845580 0.547508 0.188785
H9    H     H_    0.841766 0.090096 0.686924 0.168327
H10   H     H_    0.044468 0.061950 0.688484 0.137080
C13   C     C_R   0.386401 0.275062 0.044204 -0.211812
H11   H     H_    0.344331 0.243945 0.111553 0.150936
C14   C     C_R   0.461195 0.227789 0.839480 -0.121552
C15   C     C_R   0.578252 0.814511 0.079416 -0.257347
C16   C     C_R   0.623077 0.732681 0.966039 -0.068681
C17   C     C_R   0.600396 0.607053 0.934463 0.290932
C18   C     C_R   0.511607 0.563838 0.012924 -0.032209
C19   C     C_R   0.464555 0.649242 0.127305 0.042903
C20   C     C_R   0.470638 0.438760 0.983764 0.082575
C21   C     C_R   0.406717 0.399881 0.071773 0.094400
C22   C     C_R   0.357804 0.486482 0.183011 -0.037690
C23   C     C_R   0.376394 0.608295 0.205282 -0.208113
C24   C     C_R   0.483157 0.352193 0.868654 -0.149762
C25   C     C_R   0.417496 0.188898 0.929447 -0.032232
C26   C     C_R   0.509941 0.773387 0.162856 -0.099297
H12   H     H_    0.503888 0.382044 0.800456 0.196803
H13   H     H_    0.606810 0.910308 0.104689 0.185619
H14   H     H_    0.322741 0.671008 0.285924 0.163827
C27   C     C_R   0.741425 0.364053 0.364902 -0.128708
H15   H     H_    0.813038 0.583614 0.376913 0.157970
N1    N     N_R   0.574690 0.246280 0.438200 -0.212008
C28   C     C_R   0.311793 0.753946 0.635381 0.059186
C29   C     C_R   0.268916 0.657632 0.666369 -0.073929
C30   C     C_R   0.343905 0.559855 0.621185 -0.190559
C31   C     C_R   0.463217 0.556816 0.544494 -0.007730
C32   C     C_R   0.504233 0.657696 0.514221 0.238253
C33   C     C_R   0.541433 0.455142 0.493159 -0.006366
C34   C     C_R   0.667771 0.465520 0.429752 0.117637
C35   C     C_R   0.714528 0.574010 0.422284 -0.270821
C36   C     C_R   0.629313 0.654615 0.440929 -0.055113
C37   C     C_R   0.500472 0.342637 0.500296 0.040830
C38   C     C_R   0.688142 0.252799 0.365490 0.120333
N2    N     N_R   0.426100 0.754320 0.561190 -0.212878
H16   H     H_    0.410140 0.329342 0.553953 0.138893
H17   H     H_    0.253737 0.829967 0.671267 0.132457
H18   H     H_    0.308504 0.488418 0.648978 0.165250
C39   C     C_1   0.397285 0.062545 0.907944 0.274691
N3    N     N_1   0.381171 0.961486 0.891362 -0.283003
C40   C     C_1   0.283091 0.453466 0.274842 0.240174
N4    N     N_1   0.223677 0.427310 0.348538 -0.275748
N5    N     N_R   0.681579 0.527461 0.831977 0.100967
O9    O     O_R   0.753713 0.459799 0.840196 -0.339269
O10   O     O_R   0.688969 0.527031 0.731549 -0.373281
C41   C     C_1   0.705495 0.779892 0.886993 0.383797
N6    N     N_1   0.771430 0.817796 0.823688 -0.271970
C42   C     C_1   0.951330 0.923294 0.278029 0.277171
N7    N     N_1   0.938471 0.847456 0.187805 -0.217975
C43   C     C_1   0.750227 0.143848 0.285250 0.282791
N8    N     N_1   0.800284 0.057255 0.218677 -0.293602
C44   C     C_1   0.867254 0.370728 0.291811 0.232710
N9    N     N_1   0.967204 0.375866 0.233442 -0.257642
C45   C     C_1   0.147179 0.659249 0.745115 0.274928
N10   N     N_1   0.049350 0.660518 0.808318 -0.187793
C46   C     C_1   0.667381 0.690978 0.347488 0.319596
N11   N     N_1   0.706922 0.713488 0.268101 -0.274942
C47   C     C_1   0.118313 0.217034 0.662208 0.260495
N12   N     N_1   0.170930 0.313304 0.695626 -0.298026

loop_
_geom_bond_atom_site_label_1
_geom_bond_atom_site_label_2
_geom_bond_distance
_ccdc_geom_bond_type
C32   C36   1.433352 A    
C19   C26   1.417777 A    
C29   C30   1.395657 A    
C38   C43   1.440513 S    
N5    O9    1.301518 A    
Cu1   Cu2   2.720244 S    
C18   C20   1.427831 A    
C28   N2    1.357929 A    
Cu1   O7    1.972669 S    
C36   C46   1.434036 S    
C10   C11   1.562204 S    
C11   C47   1.474572 S    
C13   C21   1.407988 A    
C12   H7    1.114194 S    
C3    C14   1.476228 S    
H15   C35   1.086835 S    
C17   C18   1.435671 A    
O7    C4    1.304636 A    
C31   C33   1.447264 A    
C5    C42   1.478202 S    
C5    H1    1.112692 S    
C30   C31   1.406703 A    
C15   C26   1.397607 A    
C5    C6    1.545078 S    
C20   C21   1.419456 A    
O5    C3    1.310435 A    
C25   C39   1.444564 S    
O1    Cu1   1.940507 S    
C8    H6    1.103385 S    
C5    C9    1.565432 S    
C7    C11   1.551949 S    
C37   H16   1.076208 S    
Cu2   N2    2.038241 S    
C8    C12   1.531445 S    
C13   C25   1.396214 A    
N5    O10   1.301817 A    
C39   N3    1.157491 T    
O3    Cu1   1.971856 S    
C13   H11   1.084283 S    
C45   N10   1.157404 T    
O3    C2    1.306169 A    
C18   C19   1.418128 A    
C46   N11   1.157671 T    
C28   H17   1.082305 S    
C30   H18   1.076064 S    
N1    C38   1.355662 A    
C4    C10   1.484869 S    
C34   C35   1.382668 A    
O1    C1    1.313454 A    
C22   C23   1.387647 A    
C16   C17   1.408602 A    
C7    H9    1.113807 S    
C32   N2    1.403596 A    
C19   C23   1.412387 A    
Cu2   O8    1.971854 S    
H4    C7    1.114963 S    
C6    H2    1.115567 S    
C41   N6    1.157597 T    
C27   C44   1.455193 S    
C16   C41   1.444872 S    
O8    C4    1.302669 A    
C7    C9    1.553397 S    
C8    H5    1.113688 S    
C21   C22   1.402590 A    
C6    C10   1.554555 S    
C14   C24   1.399418 A    
C24   H12   1.076812 S    
C23   H14   1.082126 S    
Cu1   O5    1.923255 S    
C28   C29   1.393617 A    
C15   C16   1.390168 A    
C22   C40   1.447238 S    
C11   H10   1.113485 S    
C42   N7    1.157375 T    
C10   C12   1.555356 S    
O2    Cu2   1.923257 S    
C27   C38   1.393114 A    
C43   N8    1.155797 T    
O6    C3    1.308796 A    
O4    Cu2   1.972671 S    
C33   C37   1.419724 A    
C12   H8    1.113620 S    
O2    C1    1.309069 A    
C40   N4    1.157442 T    
C20   C24   1.394393 A    
N1    C37   1.369619 A    
C31   C32   1.439269 A    
O4    C2    1.304531 A    
C2    C9    1.490367 S    
C1    C26   1.479018 S    
C6    H3    1.113352 S    
C35   C36   1.382807 A    
C33   C34   1.414706 A    
C47   N12   1.156167 T    
Cu2   O6    1.940507 S    
C44   N9    1.157362 T    
Cu1   N1    2.050092 S    
C8    C9    1.556137 S    
C27   C34   1.413609 A    
C29   C45   1.440809 S    
C14   C25   1.414168 A    
C15   H13   1.083617 S    
C17   N5    1.438474 S    
