data_mof_unit_35665.cif
_audit_creation_date              2013-03-05T16:41:00-0500
_audit_creation_method            fapswitch 2.2
_symmetry_space_group_name_H-M    P1
_symmetry_Int_Tables_number       1
_space_group_crystal_system       triclinic
_cell_length_a                    18.738704
_cell_length_b                    18.714397
_cell_length_c                    18.713595
_cell_angle_alpha                 109.417394
_cell_angle_beta                  109.460663
_cell_angle_gamma                 109.481476
_cell_volume                      5055.22393616

loop_
_atom_site_label
_atom_site_type_symbol
_atom_site_description
_atom_site_fract_x
_atom_site_fract_y
_atom_site_fract_z
_atom_type_partial_charge
O1    O     O_R   0.408360 0.551710 0.460090 -0.603135
O2    O     O_R   0.408400 0.448280 0.356670 -0.629611
C1    C     C_R   0.381768 0.501893 0.379942 0.865968
O3    O     O_R   0.591600 0.643340 0.551710 -0.605459
O4    O     O_R   0.591630 0.539900 0.448290 -0.627773
C2    C     C_R   0.622116 0.620126 0.502046 0.860929
Zn1   Zn    Zn3+2 0.499980 0.569060 0.569060 0.997409
Zn2   Zn    Zn3+2 0.500020 0.430940 0.430940 0.939607
O5    O     O_R   0.591600 0.551720 0.643330 -0.608178
O6    O     O_R   0.591640 0.448290 0.539910 -0.626731
O7    O     O_R   0.408370 0.460100 0.551710 -0.603889
O8    O     O_R   0.408400 0.356660 0.448290 -0.628292
C3    C     C_R   0.618048 0.498001 0.620137 0.863422
C4    C     C_R   0.378197 0.379892 0.498379 0.869002
H1    H     H_    0.796782 0.818907 0.896199 0.126101
C5    C     C_R   0.791404 0.869565 0.807834 -0.140651
H2    H     H_    0.797830 0.929565 0.851067 0.120108
C6    C     C_R   0.782669 0.854004 0.726136 -0.156708
H3    H     H_    0.781866 0.902294 0.706665 0.118117
C7    C     C_R   0.773610 0.775872 0.669327 0.130445
C8    C     C_R   0.774895 0.714395 0.696161 -0.113433
H4    H     H_    0.769161 0.654385 0.653818 0.095345
C9    C     C_R   0.782286 0.729731 0.777376 -0.117776
H5    H     H_    0.780440 0.681155 0.796671 0.130434
C10   C     C_R   0.790852 0.807271 0.833298 -0.115554
C11   C     C_R   0.825111 0.819789 0.577517 -0.259027
H6    H     H_    0.882217 0.876103 0.637604 0.153512
C12   C     C_R   0.813578 0.810365 0.496605 -0.075880
C13   C     C_R   0.737900 0.739869 0.417663 -0.007131
C14   C     C_R   0.678036 0.676520 0.422260 -0.264931
H7    H     H_    0.620298 0.620653 0.362363 0.152681
C15   C     C_R   0.689704 0.685929 0.503113 -0.081666
C16   C     C_R   0.762365 0.759239 0.582024 -0.009420
C17   C     C_R   0.637145 0.718095 0.274777 -0.167678
H8    H     H_    0.590389 0.718172 0.296631 0.118307
C18   C     C_R   0.616407 0.706008 0.191080 -0.139395
H9    H     H_    0.554174 0.696666 0.148951 0.124406
C19   C     C_R   0.675818 0.705699 0.161676 -0.120264
H10   H     H_    0.659658 0.696169 0.096821 0.119096
C20   C     C_R   0.756072 0.717618 0.215997 -0.120547
H11   H     H_    0.802022 0.717268 0.193155 0.141767
C21   C     C_R   0.776982 0.729830 0.299751 -0.099611
H12   H     H_    0.839207 0.739299 0.341180 0.103161
C22   C     C_R   0.717870 0.730270 0.330028 0.132501
H13   H     H_    0.581961 0.897995 0.590790 0.127069
C23   C     C_R   0.442819 0.810497 0.511595 -0.146111
H14   H     H_    0.427456 0.855510 0.548270 0.121321
C24   C     C_R   0.375610 0.728105 0.440721 -0.153537
H15   H     H_    0.308468 0.709943 0.423538 0.118793
C25   C     C_R   0.395063 0.669096 0.392995 0.132236
C26   C     C_R   0.482576 0.694354 0.416486 -0.122137
H16   H     H_    0.498733 0.650342 0.379711 0.092907
C27   C     C_R   0.549564 0.776363 0.488169 -0.119012
H17   H     H_    0.616859 0.794701 0.507555 0.131615
C28   C     C_R   0.529824 0.834483 0.535520 -0.110988
C29   C     C_R   0.258194 0.576879 0.251179 -0.253652
H18   H     H_    0.263047 0.636952 0.252937 0.155324
C30   C     C_R   0.185438 0.496092 0.183468 -0.063122
C31   C     C_R   0.175636 0.417222 0.182127 0.001077
C32   C     C_R   0.244323 0.421961 0.245982 -0.274715
H19   H     H_    0.239984 0.362320 0.245036 0.152290
C33   C     C_R   0.316775 0.502750 0.313548 -0.077166
C34   C     C_R   0.323226 0.581558 0.318499 -0.011494
C35   C     C_R   0.057434 0.276493 0.148143 -0.159715
H20   H     H_    0.084283 0.299639 0.217553 0.124950
C36   C     C_R   0.983996 0.193221 0.088840 -0.135622
H21   H     H_    0.955101 0.152869 0.112581 0.130786
C37   C     C_R   0.947891 0.162031 0.999006 -0.129164
H22   H     H_    0.891038 0.097624 0.953167 0.117982
C38   C     C_R   0.985031 0.214181 0.968406 -0.125851
H23   H     H_    0.956889 0.190263 0.898806 0.138735
C39   C     C_R   0.058385 0.297430 0.027622 -0.092843
H24   H     H_    0.085304 0.337272 0.003024 0.108828
C40   C     C_R   0.095576 0.329707 0.118107 0.124675
H25   H     H_    0.187039 0.587441 0.502736 0.126274
C41   C     C_R   0.208598 0.518299 0.572116 -0.141446
H26   H     H_    0.205571 0.559258 0.626382 0.139098
C42   C     C_R   0.222613 0.449321 0.571648 -0.138181
H27   H     H_    0.230440 0.437552 0.625954 0.149851
C43   C     C_R   0.226871 0.396069 0.501524 0.127410
C44   C     C_R   0.215838 0.412140 0.431509 -0.124844
H28   H     H_    0.217631 0.370901 0.376396 0.096647
C45   C     C_R   0.201451 0.480983 0.432066 -0.116004
H29   H     H_    0.192444 0.492931 0.377832 0.140585
C46   C     C_R   0.198129 0.534180 0.502422 -0.119457
C47   C     C_R   0.177291 0.255764 0.500077 -0.246222
H30   H     H_    0.121829 0.260540 0.502310 0.159225
C48   C     C_R   0.186038 0.183886 0.497447 -0.076926
C49   C     C_R   0.257583 0.176302 0.495172 -0.007346
C50   C     C_R   0.319288 0.241603 0.494310 -0.263739
H31   H     H_    0.374919 0.236843 0.492592 0.156502
C51   C     C_R   0.310557 0.313502 0.496761 -0.080784
C52   C     C_R   0.239489 0.321644 0.500177 -0.006870
C53   C     C_R   0.340490 0.113354 0.561313 -0.141522
H32   H     H_    0.386482 0.177683 0.618476 0.122938
C54   C     C_R   0.352758 0.042712 0.557434 -0.139748
H33   H     H_    0.407768 0.052543 0.611347 0.125475
C55   C     C_R   0.294405 0.959530 0.483754 -0.128529
H34   H     H_    0.304225 0.904981 0.480596 0.116081
C56   C     C_R   0.223678 0.946863 0.413880 -0.130584
H35   H     H_    0.179427 0.882616 0.356514 0.144483
C57   C     C_R   0.210540 0.017130 0.417874 -0.133242
H36   H     H_    0.155758 0.006700 0.363202 0.102683
C58   C     C_R   0.268926 0.100855 0.491757 0.135859
H37   H     H_    0.410901 0.494399 0.810247 0.133169
C59   C     C_R   0.549152 0.566231 0.858842 -0.141107
H38   H     H_    0.561026 0.620597 0.915010 0.121924
C60   C     C_R   0.618540 0.567089 0.845600 -0.152056
H39   H     H_    0.683887 0.622503 0.891860 0.117072
C61   C     C_R   0.603432 0.496925 0.772565 0.138265
C62   C     C_R   0.518278 0.425501 0.713642 -0.130968
H40   H     H_    0.505685 0.370382 0.657605 0.103100
C63   C     C_R   0.449175 0.424667 0.727501 -0.122230
H41   H     H_    0.383749 0.369318 0.682476 0.142959
C64   C     C_R   0.464522 0.495110 0.799792 -0.104227
C65   C     C_R   0.743163 0.497340 0.821455 -0.263248
H42   H     H_    0.739921 0.497903 0.878459 0.154877
C66   C     C_R   0.813417 0.496959 0.810834 -0.086909
C67   C     C_R   0.819481 0.497331 0.737975 -0.003838
C68   C     C_R   0.753234 0.496594 0.675723 -0.264171
H43   H     H_    0.756606 0.496415 0.618870 0.154459
C69   C     C_R   0.682920 0.496535 0.686078 -0.083793
C70   C     C_R   0.677318 0.497519 0.759525 -0.006995
C71   C     C_R   0.944013 0.562388 0.715039 -0.159943
H44   H     H_    0.936521 0.619474 0.726708 0.120215
C72   C     C_R   0.005841 0.556021 0.691312 -0.135077
H45   H     H_    0.046263 0.608186 0.685478 0.122211
C73   C     C_R   0.014454 0.481662 0.673649 -0.011112
H46   H     H_    0.061437 0.476296 0.653961 0.154052
C74   C     C_R   0.962364 0.414227 0.681224 -0.102612
H47   H     H_    0.968915 0.356542 0.667093 0.161661
C75   C     C_R   0.900941 0.420664 0.705676 -0.160414
H48   H     H_    0.859473 0.367199 0.709329 0.107222
C76   C     C_R   0.891016 0.494594 0.722165 0.143880
O9    O     O_R   0.051730 0.908360 0.460060 -0.615282
O10   O     O_R   0.948280 0.908380 0.356650 -0.625084
C77   C     C_R   0.998232 0.877852 0.380053 0.869489
O11   O     O_R   0.960110 0.908350 0.551690 -0.617820
O12   O     O_R   0.856660 0.908370 0.448270 -0.611827
C78   C     C_R   0.879784 0.877912 0.497968 0.858486
Zn3   Zn    Zn3+2 0.069070 0.999960 0.569030 0.957180
Zn4   Zn    Zn3+2 0.930930 0.999990 0.430930 0.969829
O13   O     O_R   0.051720 0.091580 0.643310 -0.632337
O14   O     O_R   0.948270 0.091600 0.539890 -0.606594
O15   O     O_R   0.143340 0.091590 0.551680 -0.613225
O16   O     O_R   0.039890 0.091610 0.448270 -0.626363
C79   C     C_R   0.998958 0.119122 0.620174 0.870852
C80   C     C_R   0.120109 0.118765 0.498645 0.878221
O17   O     O_R   0.051730 0.460050 0.908360 -0.616088
O18   O     O_R   0.948290 0.356630 0.908390 -0.626946
C81   C     C_R   0.002721 0.380078 0.882410 0.858657
O19   O     O_R   0.143340 0.551690 0.091580 -0.623849
O20   O     O_R   0.039900 0.448270 0.091610 -0.617650
C82   C     C_R   0.119880 0.498026 0.118507 0.863034
Zn5   Zn    Zn3+2 0.069070 0.569030 0.999960 0.973565
Zn6   Zn    Zn3+2 0.930930 0.430930 0.000000 0.953827
O21   O     O_R   0.051710 0.643320 0.091560 -0.612455
O22   O     O_R   0.948270 0.539900 0.091590 -0.625897
O23   O     O_R   0.960100 0.551680 0.908340 -0.601654
O24   O     O_R   0.856660 0.448270 0.908370 -0.625845
C83   C     C_R   0.998571 0.620186 0.118611 0.867565
C84   C     C_R   0.879905 0.498148 0.877946 0.868982
H49   H     H_    0.013372 0.688201 0.590470 0.116256
C85   C     C_R   0.085410 0.760482 0.545750 -0.152914
H50   H     H_    0.146042 0.798358 0.607464 0.119454
C86   C     C_R   0.081982 0.773687 0.475655 -0.089121
H51   H     H_    0.140493 0.821516 0.483622 0.130788
C87   C     C_R   0.003146 0.725693 0.395821 0.111174
C88   C     C_R   0.929240 0.661029 0.385671 -0.194241
H52   H     H_    0.868860 0.620917 0.323499 0.134628
C89   C     C_R   0.932762 0.648271 0.456003 -0.117423
H53   H     H_    0.875200 0.599360 0.448265 0.134744
C90   C     C_R   0.010690 0.698251 0.536127 -0.106337
C91   C     C_R   0.996609 0.675372 0.253606 -0.249131
H54   H     H_    0.997116 0.618867 0.257345 0.158273
C92   C     C_R   0.996941 0.686112 0.183380 -0.078370
C93   C     C_R   0.998488 0.760002 0.178100 -0.005342
C94   C     C_R   0.996884 0.820959 0.243370 -0.281013
H55   H     H_    0.996669 0.877641 0.239899 0.155954
C95   C     C_R   0.998025 0.810990 0.314321 -0.086242
C96   C     C_R   0.999571 0.738545 0.321006 -0.014493
C97   C     C_R   0.070370 0.854690 0.127037 -0.155717
H56   H     H_    0.119656 0.903475 0.194460 0.124410
C98   C     C_R   0.075475 0.870142 0.060282 -0.141665
H57   H     H_    0.127945 0.930535 0.076283 0.131965
C99   C     C_R   0.013353 0.807357 0.972922 -0.114581
H58   H     H_    0.017695 0.818933 0.921171 0.129367
C100  C     C_R   0.945679 0.729474 0.952332 -0.117115
H59   H     H_    0.898565 0.680613 0.884763 0.130924
C101  C     C_R   0.939419 0.714257 0.018840 -0.116704
H60   H     H_    0.885952 0.654068 0.001932 0.094506
C102  C     C_R   0.002662 0.776174 0.106771 0.130690
H61   H     H_    0.390173 0.565379 0.118358 0.123795
C103  C     C_R   0.294088 0.535617 0.994181 -0.236032
H62   H     H_    0.329638 0.600743 0.005129 0.123385
C104  C     C_R   0.215317 0.471509 0.915665 -0.015770
C105  C     C_R   0.170351 0.386881 0.903393 0.049216
C106  C     C_R   0.209575 0.366579 0.966202 -0.216699
H63   H     H_    0.178237 0.301049 0.955934 0.140200
C107  C     C_R   0.287806 0.430916 0.043763 -0.113262
H64   H     H_    0.316084 0.415097 0.092800 0.140476
C108  C     C_R   0.329417 0.515606 0.058226 -0.087365
C109  C     C_R   0.078733 0.251251 0.760211 -0.186513
H65   H     H_    0.138787 0.252730 0.765703 0.158503
C110  C     C_R   0.998017 0.183972 0.686873 -0.090829
C111  C     C_R   0.919189 0.180846 0.678323 -0.006952
C112  C     C_R   0.923498 0.246278 0.744969 -0.280403
H66   H     H_    0.863584 0.244674 0.740172 0.154043
C113  C     C_R   0.004133 0.314378 0.817261 -0.085337
C114  C     C_R   0.083137 0.318034 0.825543 0.027855
C115  C     C_R   0.775775 0.132525 0.553973 -0.154261
H67   H     H_    0.795650 0.200302 0.572586 0.122900
C116  C     C_R   0.694120 0.066790 0.480969 -0.143011
H68   H     H_    0.651345 0.083938 0.444122 0.132258
C117  C     C_R   0.668081 0.978965 0.454986 -0.117301
H69   H     H_    0.605275 0.928021 0.397920 0.129097
C118  C     C_R   0.723278 0.956870 0.502540 -0.113352
H70   H     H_    0.703656 0.888979 0.481474 0.129895
C119  C     C_R   0.804285 0.022328 0.576530 -0.115406
H71   H     H_    0.845903 0.004163 0.613325 0.093040
C120  C     C_R   0.831949 0.110746 0.601855 0.133789
C121  C     C_2   0.184045 0.492927 0.845933 0.920875
O25   O     O_2   0.156148 0.440130 0.770179 -0.640773
O26   O     O_R   0.187661 0.573374 0.865142 -0.781665
H72   H     H_    0.205798 0.610258 0.928410 0.295040

loop_
_geom_bond_atom_site_label_1
_geom_bond_atom_site_label_2
_geom_bond_distance
_ccdc_geom_bond_type
C103  C104  1.406648 A    
C109  H65   1.085350 S    
C101  H60   1.082482 S    
C65   C70   1.384942 A    
Zn5   O21   2.016371 S    
C88   H52   1.083037 S    
Zn4   O16   2.016815 S    
C36   C37   1.396730 A    
C62   H40   1.083016 S    
C12   C78   1.431477 S    
C89   H53   1.082387 S    
O26   H72   1.012815 S    
C94   H55   1.085347 S    
C27   H17   1.078564 S    
C60   H39   1.083541 S    
Zn1   O7    2.015919 S    
C109  C110  1.397932 A    
C12   C13   1.412183 A    
C11   H6    1.085471 S    
C72   H45   1.082324 S    
C97   C102  1.406423 A    
C32   H19   1.085400 S    
C100  C101  1.398042 A    
C18   H9    1.082516 S    
C19   C20   1.396976 A    
C41   C42   1.398416 A    
C6    H3    1.083546 S    
C117  C118  1.396179 A    
C14   H7    1.085494 S    
C43   C44   1.404593 A    
O7    C4    1.277000 A    
C42   C43   1.405301 A    
H1    C10   1.082415 S    
C5    H2    1.082005 S    
C59   H38   1.082401 S    
C111  C120  1.484528 S    
C103  C108  1.396435 A    
C104  C105  1.417800 A    
C98   H57   1.082299 S    
C32   C33   1.394208 A    
C17   H8    1.083556 S    
C79   C110  1.432793 S    
O5    C3    1.276781 A    
C91   H54   1.085658 S    
C51   C52   1.409385 A    
O10   Zn4   2.016324 S    
C105  C114  1.488083 S    
C30   C82   1.432507 S    
O22   C83   1.278387 A    
O1    Zn1   2.016561 S    
C66   C67   1.407473 A    
Zn6   O22   2.016180 S    
H25   C46   1.082500 S    
C66   C84   1.431922 S    
C45   H29   1.081874 S    
C29   C30   1.396571 A    
C107  H64   1.082483 S    
C2    C15   1.430893 S    
C54   C55   1.397499 A    
C23   C28   1.397090 A    
C72   C73   1.396901 A    
C9    H5    1.078685 S    
C109  C114  1.382610 A    
C38   H23   1.082645 S    
C17   C18   1.398441 A    
Zn3   O15   2.015516 S    
C27   C28   1.396778 A    
C103  H62   1.082922 S    
C68   H43   1.085598 S    
C53   C58   1.404469 A    
C31   C32   1.385982 A    
O20   C82   1.273370 A    
C93   C102  1.483863 S    
O18   Zn6   2.016584 S    
C8    H4    1.082495 S    
C73   H46   1.082334 S    
C86   C87   1.404718 A    
C25   C34   1.483056 S    
C88   C89   1.398296 A    
O17   C81   1.273552 A    
C85   H50   1.082270 S    
C57   H36   1.082778 S    
C21   C22   1.403284 A    
C106  C107  1.395849 A    
O14   C79   1.277879 A    
C91   C96   1.381949 A    
C44   C45   1.399017 A    
C68   C69   1.393883 A    
C44   H28   1.082425 S    
O16   C80   1.278378 A    
C116  C117  1.396988 A    
O13   C79   1.278165 A    
C19   H10   1.082436 S    
C23   C24   1.398106 A    
O23   C84   1.277829 A    
C67   C76   1.478858 S    
C47   C48   1.395395 A    
Zn5   O23   2.017295 S    
C112  H66   1.085369 S    
C87   C88   1.404456 A    
Zn6   O24   2.015832 S    
C17   C22   1.407295 A    
C41   H26   1.082517 S    
C39   C40   1.403790 A    
C67   C68   1.382973 A    
C49   C50   1.383376 A    
C119  H71   1.082821 S    
C83   C92   1.430974 S    
C111  C112  1.383091 A    
C75   H48   1.082560 S    
O3    Zn1   2.016183 S    
C118  H70   1.078731 S    
C116  H68   1.082292 S    
O11   Zn3   2.016727 S    
H61   C108  1.082676 S    
C61   C62   1.404889 A    
C100  H59   1.078591 S    
C26   C27   1.398125 A    
Zn3   O13   2.016452 S    
C35   C36   1.398558 A    
C57   C58   1.404249 A    
C117  H69   1.082438 S    
C13   C14   1.384314 A    
C47   C52   1.384567 A    
C61   C70   1.480959 S    
C119  C120  1.405028 A    
C89   C90   1.397503 A    
C11   C16   1.383680 A    
C50   C51   1.396470 A    
C115  H67   1.083324 S    
O19   Zn5   2.015707 S    
Zn2   O8    2.016186 S    
C54   H33   1.082318 S    
C33   C34   1.407541 A    
C56   C57   1.399391 A    
C113  C114  1.411683 A    
C48   C80   1.429823 S    
C29   C34   1.382869 A    
C85   C90   1.397885 A    
C62   C63   1.399032 A    
C5    C6    1.398017 A    
C7    C8    1.403911 A    
O20   Zn6   2.017296 S    
C53   C54   1.398546 A    
C24   C25   1.407035 A    
C31   C40   1.492398 S    
C4    C51   1.431833 S    
C106  H63   1.083281 S    
O11   C78   1.280573 A    
C65   C66   1.397254 A    
C7    C16   1.482966 S    
C35   C40   1.408417 A    
Zn2   O6    2.016564 S    
C92   C93   1.410246 A    
C45   C46   1.397471 A    
O19   C82   1.282727 A    
C93   C94   1.383841 A    
C53   H32   1.083421 S    
C55   C56   1.397181 A    
C8    C9    1.398083 A    
C13   C22   1.487166 S    
C86   H51   1.083184 S    
Zn4   O14   2.016222 S    
C30   C31   1.415789 A    
O3    C2    1.277039 A    
C29   H18   1.085562 S    
C99   C100  1.396138 A    
C18   C19   1.397352 A    
H49   C90   1.082376 S    
O21   C83   1.276442 A    
O15   C80   1.276140 A    
C95   C96   1.411084 A    
C47   H30   1.085482 S    
C71   C72   1.397612 A    
C63   H41   1.081802 S    
C1    C33   1.430117 S    
C5    C10   1.396749 A    
O9    C77   1.273732 A    
C110  C111  1.410530 A    
C23   H14   1.082835 S    
C20   H11   1.082260 S    
C101  C102  1.404184 A    
C81   C113  1.430160 S    
C97   C98   1.398099 A    
C115  C116  1.398279 A    
C121  O26   1.398661 S    
C42   H27   1.083460 S    
H37   C64   1.082518 S    
O2    Zn2   2.016456 S    
O8    C4    1.278511 A    
C39   H24   1.074407 S    
O6    C3    1.278133 A    
C73   C74   1.398223 A    
O4    Zn2   2.015915 S    
C94   C95   1.395222 A    
O12   C78   1.275276 A    
C60   C61   1.404729 A    
C69   C70   1.407506 A    
C118  C119  1.397669 A    
C11   C12   1.396230 A    
C71   C76   1.405006 A    
C59   C64   1.397886 A    
C74   C75   1.398370 A    
C15   C16   1.408551 A    
C85   C86   1.398510 A    
C74   H47   1.081947 S    
C43   C52   1.482160 S    
C26   H16   1.082568 S    
C49   C58   1.480573 S    
C36   H21   1.082359 S    
C35   H20   1.083069 S    
C14   C15   1.394604 A    
C3    C69   1.430550 S    
C50   H31   1.085373 S    
O4    C2    1.277994 A    
C77   C95   1.431441 S    
C59   C60   1.398480 A    
C24   H15   1.083689 S    
C121  O25   1.220480 D    
C20   C21   1.398290 A    
C56   H35   1.081359 S    
O12   Zn4   2.015263 S    
C55   H34   1.082545 S    
C98   C99   1.396699 A    
C65   H42   1.085291 S    
O2    C1    1.278147 A    
C6    C7    1.406278 A    
C9    C10   1.396292 A    
O17   Zn5   2.016393 S    
C105  C106  1.404864 A    
C37   H22   1.082014 S    
C91   C92   1.395629 A    
Zn1   O5    2.016458 S    
O9    Zn3   2.016258 S    
C48   C49   1.407224 A    
H13   C28   1.082480 S    
C75   C76   1.403574 A    
C87   C96   1.481433 S    
C21   H12   1.077298 S    
C112  C113  1.394510 A    
C37   C38   1.396013 A    
C25   C26   1.403698 A    
O18   C81   1.281795 A    
O10   C77   1.282280 A    
C38   C39   1.397632 A    
O1    C1    1.276503 A    
C99   H58   1.082428 S    
C41   C46   1.397830 A    
C107  C108  1.393943 A    
C104  C121  1.483857 S    
C97   H56   1.083359 S    
O24   C84   1.277726 A    
C71   H44   1.083540 S    
C63   C64   1.397445 A    
C115  C120  1.406255 A    
