data_mof_unit_39125.cif
_audit_creation_date              2012-12-10T18:46:16-0500
_audit_creation_method            fapswitch 2.2
_symmetry_space_group_name_H-M    P1
_symmetry_Int_Tables_number       1
_space_group_crystal_system       triclinic
_cell_length_a                    9.921463
_cell_length_b                    10.718282
_cell_length_c                    13.242636
_cell_angle_alpha                 91.949213
_cell_angle_beta                  73.73092
_cell_angle_gamma                 90.869374
_cell_volume                      1351.03954223

loop_
_atom_site_label
_atom_site_type_symbol
_atom_type_description
_atom_site_fract_x
_atom_site_fract_y
_atom_site_fract_z
_atom_type_partial_charge
C1    C     C_R   0.505375 0.738512 0.487928 0.976400
C2    C     C_R   0.449478 0.421415 0.969733 0.031781
C3    C     C_R   0.494915 0.413185 0.859160 -0.117899
C4    C     C_R   0.550933 0.449028 0.024114 -0.018019
C5    C     C_R   0.695914 0.449855 0.968366 -0.069815
C6    C     C_R   0.736896 0.398973 0.865870 0.399246
C7    C     C_R   0.635718 0.379191 0.810818 0.419260
C8    C     C_R   0.513015 0.475447 0.131977 -0.175175
C9    C     C_R   0.755416 0.513945 0.127346 -0.234321
C10   C     C_R   0.393650 0.415979 0.802977 -0.143632
C11   C     C_R   0.638011 0.938217 0.454398 0.281206
C12   C     C_R   0.427562 0.469631 0.696548 0.958897
C13   C     C_R   0.630406 0.065940 0.463737 -0.324958
C14   C     C_R   0.500711 0.125629 0.484589 -0.241165
C15   C     C_R   0.377474 0.058099 0.484179 0.457912
C16   C     C_R   0.389329 0.930325 0.462903 0.369208
C17   C     C_R   0.512876 0.869699 0.466629 -0.310482
C18   C     C_R   0.949161 0.416704 0.438456 -0.191407
C19   C     C_R   0.092566 0.417800 0.436822 0.290170
C20   C     C_R   0.052002 0.589279 0.556810 0.208848
C21   C     C_R   0.908022 0.588938 0.557002 0.286067
C22   C     C_R   0.499431 0.259370 0.497457 0.954847
C23   C     C_R   0.574972 0.502508 0.297737 0.866691
C24   C     C_R   0.795570 0.494841 0.019263 0.357837
C25   C     C_R   0.615553 0.498156 0.184016 -0.105552
C26   C     C_R   0.265120 0.357811 0.849748 0.281419
C27   C     C_R   0.220434 0.349204 0.959102 -0.072468
C28   C     C_R   0.307136 0.392362 0.019727 -0.174658
H1    H     H_    0.833280 0.542913 0.166825 0.197173
H2    H     H_    0.727031 0.118374 0.455096 0.220210
H3    H     H_    0.911940 0.350227 0.388897 0.187511
H4    H     H_    0.404275 0.477432 0.176957 0.187956
H5    H     H_    0.266081 0.386174 0.103845 0.175961
H6    H     H_    0.121062 0.304929 0.996810 0.192879
N1    N     N_R   0.142790 0.500030 0.500030 -0.157281
N2    N     N_R   0.857180 0.499940 0.500010 -0.125517
O1    O     O_R   0.385370 0.683250 0.500010 -0.538573
O2    O     O_R   0.614700 0.683220 0.500010 -0.548710
O3    O     O_R   0.328400 0.499990 0.653620 -0.585518
O4    O     O_R   0.557730 0.499960 0.653620 -0.551918
O5    O     O_R   0.385300 0.316780 0.499990 -0.534288
O6    O     O_R   0.614630 0.316750 0.499990 -0.625284
O7    O     O_R   0.442270 0.500040 0.346380 -0.608267
O8    O     O_R   0.671600 0.500010 0.346380 -0.623449
Zn1   Zn    Zn3+2 0.346870 0.500020 0.500000 1.057826
Zn2   Zn    Zn3+2 0.653130 0.499980 0.500000 1.040552
O9    O     O_3   0.252535 0.120078 0.491781 -0.570476
C29   C     C_3   0.135759 0.065368 0.564206 -0.022503
H7    H     H_    0.078760 0.002005 0.522082 0.223001
H8    H     H_    0.061286 0.140609 0.602057 0.178370
H9    H     H_    0.163796 0.015240 0.627832 0.180927
O10   O     O_3   0.278404 0.865293 0.441480 -0.574103
C30   C     C_3   0.306540 0.849030 0.331468 -0.166527
H10   H     H_    0.402232 0.791714 0.297694 0.130575
H11   H     H_    0.316998 0.940568 0.292556 0.178776
H12   H     H_    0.216830 0.798265 0.314260 0.205179
Br1   Br    Br    0.214304 0.307989 0.336786 -0.481588
Br2   Br    Br    0.112292 0.706369 0.649042 -0.371577
Br3   Br    Br    0.780689 0.704153 0.650130 -0.397813
O11   O     O_3   0.871876 0.354092 0.825747 -0.572032
C31   C     C_3   0.937903 0.418812 0.734710 -0.072144
H13   H     H_    0.900516 0.516354 0.740099 0.164512
H14   H     H_    0.050901 0.428689 0.726946 0.231357
H15   H     H_    0.925860 0.366812 0.663936 0.169214
Br4   Br    Br    0.979340 0.554411 0.947062 -0.472192
Br5   Br    Br    0.190973 0.238769 0.769169 -0.543016
O12   O     O_3   0.672379 0.314673 0.714809 -0.599821
C32   C     C_3   0.645470 0.186531 0.732645 -0.245017
H16   H     H_    0.530684 0.167661 0.760815 0.175746
H17   H     H_    0.699501 0.150858 0.789015 0.193889
H18   H     H_    0.687249 0.133720 0.657213 0.202731
Br6   Br    Br    0.823772 0.868097 0.413535 -0.466972

loop_
_geom_bond_atom_site_label_1
_geom_bond_atom_site_label_2
_ccdc_geom_bond_type
C12   O4    A    
C31   H15   S    
C2    C4    A    
C9    C24   A    
N2    Zn2   S    
C6    C7    A    
C9    H1    S    
C11   C13   A    
C1    C17   S    
O9    C29   S    
C15   O9    S    
C4    C8    A    
C20   Br2   S    
C10   C26   A    
C12   O3    A    
C29   H8    S    
C2    C3    A    
C9    C25   A    
C3    C10   A    
C19   N1    A    
C13   C14   A    
C19   Br1   S    
O4    Zn2   S    
C8    C25   A    
O7    Zn1   S    
C14   C22   S    
C26   C27   A    
C22   O6    A    
C5    C24   A    
C10   C12   S    
C24   Br4   S    
C32   H18   S    
C15   C16   A    
C1    O2    A    
C29   H7    S    
O8    Zn2   S    
C28   H5    S    
C21   Br3   S    
C3    C7    A    
C30   H11   S    
C27   H6    S    
C5    C6    A    
C1    O1    A    
O2    Zn2   S    
C22   O5    A    
C31   H13   S    
O1    Zn1   S    
O12   C32   S    
C26   Br5   S    
C6    O11   S    
C13   H2    S    
C4    C5    A    
C23   C25   S    
C23   O7    A    
C20   C21   A    
C7    O12   S    
C32   H17   S    
C18   C19   A    
O6    Zn2   S    
C30   H12   S    
C27   C28   A    
C21   N2    A    
O5    Zn1   S    
C11   Br6   S    
C16   C17   A    
C2    C28   A    
C18   H3    S    
N1    Zn1   S    
C14   C15   A    
C20   N1    A    
C18   N2    A    
O3    Zn1   S    
C32   H16   S    
C29   H9    S    
C11   C17   A    
C23   O8    A    
C16   O10   S    
C30   H10   S    
O10   C30   S    
O11   C31   S    
C31   H14   S    
C8    H4    S    
