data_mof_unit_18179.cif
_audit_creation_date              2012-12-10T17:35:48-0500
_audit_creation_method            fapswitch 2.2
_symmetry_space_group_name_H-M    P1
_symmetry_Int_Tables_number       1
_space_group_crystal_system       triclinic
_cell_length_a                    10.498174
_cell_length_b                    12.069202
_cell_length_c                    12.743627
_cell_angle_alpha                 94.810281
_cell_angle_beta                  90.379768
_cell_angle_gamma                 86.826194
_cell_volume                      1606.51767636

loop_
_atom_site_label
_atom_site_type_symbol
_atom_type_description
_atom_site_fract_x
_atom_site_fract_y
_atom_site_fract_z
_atom_type_partial_charge
C1    C     C_R   0.496627 0.523305 0.700225 0.954185
C2    C     C_R   0.502929 0.476562 0.299719 0.957589
C3    C     C_R   0.572668 0.478144 0.869546 -0.281287
C4    C     C_R   0.425575 0.522258 0.130655 -0.262418
C5    C     C_R   0.552681 0.470247 0.975564 0.003819
C6    C     C_R   0.443960 0.528275 0.024090 0.002419
C7    C     C_R   0.349887 0.952586 0.435476 0.251678
C8    C     C_R   0.660304 0.045651 0.543973 0.237345
C9    C     C_R   0.370851 0.837219 0.435403 -0.152078
C10   C     C_R   0.639338 0.161130 0.544046 -0.157085
C11   C     C_R   0.569056 0.857765 0.523327 0.653602
C12   C     C_R   0.424302 0.142212 0.491198 0.626691
C13   C     C_R   0.559520 0.975180 0.515882 -0.215182
C14   C     C_R   0.443037 0.023898 0.480028 -0.221466
C15   C     C_R   0.742201 0.500385 0.500064 1.003699
C16   C     C_R   0.257775 0.499626 0.499734 1.009097
C17   C     C_3   0.965006 0.395842 0.518996 -0.482373
C18   C     C_3   0.034713 0.604352 0.480284 -0.423621
C19   C     C_3   0.043217 0.473583 0.593384 0.427790
C20   C     C_3   0.956653 0.526479 0.405940 0.439107
C21   C     C_3   0.122899 0.500275 0.499463 -0.245166
C22   C     C_3   0.877028 0.499885 0.499907 -0.223449
C23   C     C_3   0.044600 0.424603 0.424692 0.445794
C24   C     C_3   0.955402 0.575464 0.574655 0.481157
C25   C     C_R   0.511045 0.459543 0.187826 -0.205757
C26   C     C_R   0.486377 0.539564 0.811964 -0.219481
C27   C     C_R   0.357523 0.592632 0.965514 0.206143
C28   C     C_R   0.637137 0.403452 0.033524 0.206796
C29   C     C_R   0.381107 0.600399 0.858701 0.488842
C30   C     C_R   0.612656 0.394497 0.139816 0.476245
H1    H     H_    0.930783 0.313320 0.534248 0.188606
H2    H     H_    0.067388 0.687424 0.464965 0.203332
H3    H     H_    0.347890 0.569704 0.171897 0.206008
H4    H     H_    0.652051 0.432634 0.828820 0.207185
H5    H     H_    0.717359 0.214021 0.563024 0.188160
H6    H     H_    0.300473 0.782740 0.401131 0.188296
N1    N     N_R   0.523490 0.207800 0.519350 -0.169837
N2    N     N_R   0.476510 0.792200 0.480650 -0.170340
O1    O     O_R   0.506270 0.421700 0.658830 -0.628953
O2    O     O_R   0.493730 0.578300 0.341170 -0.618582
O3    O     O_R   0.491200 0.609310 0.646410 -0.605165
O4    O     O_R   0.508800 0.390690 0.353590 -0.593556
O5    O     O_R   0.693580 0.406210 0.506230 -0.659754
O6    O     O_R   0.306420 0.593790 0.493770 -0.658506
O7    O     O_R   0.678510 0.593830 0.493810 -0.529524
O8    O     O_R   0.321490 0.406170 0.506190 -0.546779
Zn1   Zn    Zn3+2 0.510060 0.374730 0.508290 1.001279
Zn2   Zn    Zn3+2 0.489940 0.625270 0.491710 1.011008
O9    O     O_3   0.101564 0.449560 0.689499 -0.611615
C31   C     C_3   0.010008 0.410884 0.755792 -0.213382
H7    H     H_    0.980248 0.327313 0.725028 0.163685
H8    H     H_    0.925358 0.470322 0.767013 0.186525
H9    H     H_    0.053878 0.402369 0.834334 0.226240
O10   O     O_3   0.898061 0.550580 0.309951 -0.597235
C32   C     C_3   0.990438 0.585382 0.242100 -0.154429
H10   H     H_    0.071244 0.522229 0.228936 0.177783
H11   H     H_    0.026099 0.667015 0.272518 0.176731
H12   H     H_    0.945165 0.596438 0.164505 0.221029
O11   O     O_3   0.105333 0.349439 0.347572 -0.592329
C33   C     C_3   0.014086 0.281821 0.297661 -0.115454
H13   H     H_    0.939270 0.332385 0.258389 0.217159
H14   H     H_    0.970602 0.229384 0.353973 0.174911
H15   H     H_    0.062574 0.224863 0.235740 0.208985
O12   O     O_3   0.894860 0.651158 0.651300 -0.604714
C34   C     C_3   0.987226 0.713273 0.706488 -0.165238
H16   H     H_    0.045806 0.757716 0.652825 0.177985
H17   H     H_    0.048730 0.659392 0.754550 0.232878
H18   H     H_    0.937682 0.777353 0.761514 0.182385
O13   O     O_3   0.697999 0.335334 0.200011 -0.596009
C35   C     C_3   0.662530 0.223968 0.196093 -0.231641
H19   H     H_    0.674539 0.181760 0.115552 0.190293
H20   H     H_    0.562683 0.218058 0.223075 0.174862
H21   H     H_    0.725937 0.178335 0.249774 0.186646
O14   O     O_3   0.292642 0.653370 0.796146 -0.590478
C36   C     C_3   0.303858 0.769936 0.809516 -0.276655
H22   H     H_    0.394209 0.796733 0.848018 0.135888
H23   H     H_    0.221879 0.809064 0.856051 0.214128
H24   H     H_    0.298635 0.803015 0.730847 0.170122
Br1   Br    Br    0.201066 0.661526 0.025511 -0.568284
Br2   Br    Br    0.790672 0.329180 0.973213 -0.564945
O15   O     O_3   0.304726 0.192183 0.479291 -0.536354
C37   C     C_3   0.240538 0.193157 0.576510 -0.136325
H25   H     H_    0.142137 0.228435 0.566971 0.209691
H26   H     H_    0.287837 0.246374 0.639114 0.164625
H27   H     H_    0.232749 0.107695 0.601825 0.128906
O16   O     O_3   0.665665 0.808462 0.580158 -0.521351
C38   C     C_3   0.634809 0.826158 0.688283 -0.181134
H28   H     H_    0.694122 0.767062 0.732466 0.214423
H29   H     H_    0.533543 0.811363 0.704153 0.112643
H30   H     H_    0.655416 0.911902 0.719804 0.158864
Br3   Br    Br    0.197547 0.002420 0.364413 -0.456628
Br4   Br    Br    0.833712 0.992732 0.567654 -0.488700

loop_
_geom_bond_atom_site_label_1
_geom_bond_atom_site_label_2
_ccdc_geom_bond_type
C38   H28   S    
C16   C21   S    
C27   C29   A    
C18   C21   S    
C32   H10   S    
C4    C25   A    
C23   O11   S    
C17   C23   S    
C10   N1    A    
C18   C24   S    
C19   C21   S    
C27   Br1   S    
C5    C6    A    
C11   O16   S    
C33   H14   S    
O8    Zn1   S    
C12   N1    A    
O9    C31   S    
O2    Zn2   S    
C4    H3    S    
C15   C22   S    
C34   H17   S    
C9    H6    S    
C31   H8    S    
C10   H5    S    
C8    Br4   S    
N1    Zn1   S    
C16   O6    A    
N2    Zn2   S    
O11   C33   S    
C24   O12   S    
C13   C14   A    
O15   C37   S    
C7    C14   A    
C31   H9    S    
O14   C36   S    
C20   O10   S    
C16   O8    A    
O16   C38   S    
C29   O14   S    
C3    H4    S    
C33   H13   S    
C11   N2    A    
C36   H22   S    
C5    C28   A    
C19   O9    S    
C6    C27   A    
C20   C23   S    
C34   H18   S    
C7    Br3   S    
C35   H21   S    
C31   H7    S    
C36   H23   S    
C35   H19   S    
C4    C6    A    
C12   C14   A    
C37   H25   S    
C37   H26   S    
C21   C23   S    
C1    C26   S    
C17   H1    S    
C22   C24   S    
C38   H30   S    
C18   H2    S    
C15   O7    A    
C30   O13   S    
O1    Zn1   S    
O7    Zn2   S    
C1    O3    A    
C25   C30   A    
C7    C9    A    
O10   C32   S    
C3    C26   A    
C20   C22   S    
C3    C5    A    
C37   H27   S    
C17   C22   S    
O12   C34   S    
C32   H11   S    
C19   C24   S    
C15   O5    A    
C11   C13   A    
C2    O4    A    
C28   C30   A    
C9    N2    A    
C17   C19   S    
O3    Zn2   S    
C12   O15   S    
C2    C25   S    
C18   C20   S    
O4    Zn1   S    
O13   C35   S    
C28   Br2   S    
C36   H24   S    
C33   H15   S    
C1    O1    A    
C8    C13   A    
C2    O2    A    
C26   C29   A    
C8    C10   A    
C34   H16   S    
C32   H12   S    
C38   H29   S    
C35   H20   S    
O5    Zn1   S    
O6    Zn2   S    
