data_mof_unit_23310.cif
_audit_creation_date              2013-03-05T16:00:16-0500
_audit_creation_method            fapswitch 2.2
_symmetry_space_group_name_H-M    P1
_symmetry_Int_Tables_number       1
_space_group_crystal_system       triclinic
_cell_length_a                    11.708856
_cell_length_b                    14.782932
_cell_length_c                    14.677111
_cell_angle_alpha                 65.125284
_cell_angle_beta                  103.550645
_cell_angle_gamma                 102.980105
_cell_volume                      2217.63662618

loop_
_atom_site_label
_atom_site_type_symbol
_atom_site_description
_atom_site_fract_x
_atom_site_fract_y
_atom_site_fract_z
_atom_type_partial_charge
O1    O     O_R   0.459870 0.022090 0.338120 -0.553287
O2    O     O_R   0.540130 0.977910 0.661880 -0.553282
O3    O     O_R   0.511290 0.160150 0.379180 -0.602250
O4    O     O_R   0.488710 0.839850 0.620820 -0.602252
C1    C     C_R   0.481670 0.119638 0.311968 0.827304
C2    C     C_R   0.518330 0.880362 0.688032 0.827307
O5    O     O_R   0.311490 0.930960 0.479480 -0.528637
O6    O     O_R   0.688510 0.069040 0.520520 -0.528637
O7    O     O_R   0.362910 0.069020 0.520540 -0.591770
O8    O     O_R   0.637090 0.930980 0.479460 -0.591769
C3    C     C_R   0.284142 0.000079 0.499936 0.826012
C4    C     C_R   0.715858 0.999921 0.500063 0.826012
Cu1   Cu    Cu3+1 0.469550 0.918260 0.475690 1.004530
Cu2   Cu    Cu3+1 0.530450 0.081740 0.524310 1.004531
C5    C     C_1   0.162426 0.000127 0.499958 -0.115098
C6    C     C_1   0.837574 0.999873 0.500042 -0.115098
C7    C     C_1   0.059925 0.000060 0.499981 0.041177
C8    C     C_1   0.940075 0.999940 0.500019 0.041177
C9    C     C_R   0.472499 0.187583 0.203535 -0.114587
C10   C     C_R   0.527501 0.812417 0.796465 -0.114586
C11   C     C_R   0.426657 0.216933 0.023242 0.520642
C12   C     C_R   0.573341 0.783066 0.976758 0.520641
C13   C     C_R   0.434167 0.150961 0.126405 -0.262992
C14   C     C_R   0.565832 0.849039 0.873595 -0.262989
C15   C     C_R   0.499882 0.291168 0.177875 -0.222114
C16   C     C_R   0.500117 0.708832 0.822125 -0.222116
C17   C     C_R   0.486016 0.360281 0.076316 0.008875
C18   C     C_R   0.513983 0.639719 0.923684 0.008876
C19   C     C_R   0.457923 0.322328 0.997971 -0.060041
C20   C     C_R   0.542076 0.677672 0.002029 -0.060040
C21   C     C_R   0.501348 0.466111 0.051422 0.042272
C22   C     C_R   0.498651 0.533889 0.948578 0.042273
C23   C     C_R   0.485326 0.494128 0.873792 -0.282942
C24   C     C_R   0.514673 0.505872 0.126208 -0.282943
C25   C     C_R   0.463632 0.390997 0.896592 0.355862
C26   C     C_R   0.536367 0.609003 0.103408 0.355862
H1    H     H_    0.464841 0.683644 0.760871 0.170438
H2    H     H_    0.535158 0.316356 0.239129 0.170438
H3    H     H_    0.590403 0.928973 0.853425 0.205925
H4    H     H_    0.409597 0.071027 0.146575 0.205927
H5    H     H_    0.496800 0.541362 0.796307 0.166205
H6    H     H_    0.503198 0.458638 0.203692 0.166205
N1    N     N_R   0.576230 0.204580 0.560790 -0.242812
N2    N     N_R   0.423770 0.795420 0.439210 -0.242813
C27   C     C_R   0.708255 0.293713 0.656968 -0.291399
C28   C     C_R   0.291746 0.706288 0.343030 -0.291393
C29   C     C_R   0.674612 0.209911 0.631369 0.532367
C30   C     C_R   0.325390 0.790091 0.368628 0.532368
C31   C     C_R   0.511130 0.282751 0.512793 -0.047313
C32   C     C_R   0.488868 0.717248 0.487209 -0.047313
C33   C     C_R   0.543168 0.371490 0.534821 0.004247
C34   C     C_R   0.456831 0.628509 0.465180 0.004245
C35   C     C_R   0.643677 0.374337 0.609332 0.118579
C36   C     C_R   0.356323 0.625663 0.390668 0.118577
C37   C     C_R   0.480428 0.457036 0.486104 0.135072
C38   C     C_R   0.519571 0.542963 0.513898 0.135072
C39   C     C_R   0.619684 0.540235 0.589622 -0.180205
C40   C     C_R   0.380314 0.459764 0.410380 -0.180205
C41   C     C_R   0.680375 0.457739 0.635885 -0.085390
C42   C     C_R   0.319625 0.542261 0.364115 -0.085389
H7    H     H_    0.757233 0.459233 0.693519 0.146594
H8    H     H_    0.242767 0.540767 0.306481 0.146594
H9    H     H_    0.564367 0.725836 0.542515 0.144120
H10   H     H_    0.435630 0.274162 0.457489 0.144120
H11   H     H_    0.786340 0.296064 0.713326 0.178373
H12   H     H_    0.213664 0.703937 0.286670 0.178374
H13   H     H_    0.653829 0.600971 0.615198 0.123173
H14   H     H_    0.346170 0.399028 0.384804 0.123173
N3    N     N_R   0.459263 0.358224 0.816466 0.162248
O9    O     O_R   0.393681 0.398217 0.728902 -0.353792
O10   O     O_R   0.538269 0.305095 0.823804 -0.369647
N4    N     N_R   0.540736 0.641775 0.183534 0.162248
O11   O     O_R   0.606317 0.601783 0.271099 -0.353793
O12   O     O_R   0.461729 0.694905 0.176195 -0.369647
O13   O     O_3   0.373597 0.181958 0.946593 -0.522752
C43   C     C_3   0.420194 0.096644 0.958982 -0.203484
H15   H     H_    0.372355 0.026936 0.010617 0.160936
H16   H     H_    0.517675 0.102255 0.986305 0.135604
H17   H     H_    0.405266 0.091035 0.883935 0.206483
O14   O     O_3   0.626402 0.818042 0.053407 -0.522753
C44   C     C_3   0.579804 0.903356 0.041018 -0.203483
H18   H     H_    0.482323 0.897745 0.013694 0.135605
H19   H     H_    0.627644 0.973064 0.989383 0.160931
H20   H     H_    0.594732 0.908965 0.116065 0.206484
N5    N     N_R   0.252115 0.867915 0.322016 0.138712
O15   O     O_R   0.152784 0.852969 0.354909 -0.343403
O16   O     O_R   0.260668 0.930717 0.229165 -0.381845
N6    N     N_R   0.747890 0.132089 0.677977 0.138714
O17   O     O_R   0.847225 0.147042 0.645087 -0.343405
O18   O     O_R   0.739332 0.069276 0.770823 -0.381840

loop_
_geom_bond_atom_site_label_1
_geom_bond_atom_site_label_2
_geom_bond_distance
_ccdc_geom_bond_type
N2    C30   1.369299 A    
C37   C38   1.441114 A    
C17   C19   1.424011 A    
C24   H6    1.077195 S    
C43   H17   1.109396 S    
O13   C43   1.411041 S    
C44   H18   1.114198 S    
C35   C41   1.394417 A    
C36   C42   1.394417 A    
N5    O15   1.300973 A    
O5    C3    1.298782 A    
O1    C1    1.306473 A    
C43   H16   1.114199 S    
C28   H12   1.084832 S    
O14   C44   1.411039 S    
C39   C41   1.385590 A    
C40   C42   1.385591 A    
C13   H4    1.076848 S    
C14   H3    1.076850 S    
C38   C39   1.408535 A    
C42   H8    1.084413 S    
O4    Cu1   1.935701 S    
N3    O10   1.301062 A    
N2    C32   1.368174 A    
C3    C5    1.425380 S    
C4    C6    1.425380 S    
C31   C33   1.430044 A    
C32   C34   1.430043 A    
C24   C26   1.391943 A    
N5    O16   1.298819 A    
C27   C35   1.391831 A    
C31   H10   1.075412 S    
Cu1   Cu2   2.701192 S    
C32   H9    1.075412 S    
O2    C2    1.306472 A    
C39   H13   1.076497 S    
O2    Cu2   1.951754 S    
C44   H19   1.110251 S    
C34   C36   1.412824 A    
C27   C29   1.390700 A    
C28   C30   1.390701 A    
C41   H7    1.084413 S    
C17   C21   1.427228 A    
C10   C14   1.394426 A    
C18   C22   1.427228 A    
C43   H15   1.110251 S    
N4    O12   1.301061 A    
N1    C31   1.368174 A    
C11   C19   1.421373 A    
C33   C35   1.412824 A    
C9    C13   1.394425 A    
O7    Cu2   1.918038 S    
C15   H2    1.075191 S    
C21   C22   1.415249 A    
O6    C4    1.298785 A    
C28   C36   1.391830 A    
C7    C8    1.403041 S    
C21   C24   1.412792 A    
O7    C3    1.298870 A    
O3    Cu2   1.935699 S    
O8    C4    1.298868 A    
O4    C2    1.302106 A    
N6    O18   1.298816 A    
C11   C13   1.409008 A    
C27   H11   1.084832 S    
C12   C14   1.409009 A    
O1    Cu1   1.951753 S    
C44   H20   1.109397 S    
C40   H14   1.076497 S    
C5    C7    1.200031 T    
C11   O13   1.391555 S    
O6    Cu2   1.917434 S    
C12   C20   1.421373 A    
N4    O11   1.301213 A    
O3    C1    1.302108 A    
O8    Cu1   1.918040 S    
C16   H1    1.075189 S    
C1    C9    1.475403 S    
C15   C17   1.404281 A    
C2    C10   1.475403 S    
C19   C25   1.412222 A    
C16   C18   1.404283 A    
C20   C26   1.412222 A    
C23   H5    1.077196 S    
C29   N6    1.426163 S    
C18   C20   1.424011 A    
C12   O14   1.391554 S    
C22   C23   1.412792 A    
C10   C16   1.392959 A    
C23   C25   1.391943 A    
C33   C37   1.435500 A    
N3    O9    1.301213 A    
C9    C15   1.392960 A    
C26   N4    1.435391 S    
O5    Cu1   1.917434 S    
N6    O17   1.300971 A    
C25   N3    1.435391 S    
C6    C8    1.200031 T    
C37   C40   1.408535 A    
C30   N5    1.426163 S    
N1    C29   1.369299 A    
Cu1   N2    2.029240 S    
C34   C38   1.435499 A    
Cu2   N1    2.029240 S    
