data_mof_unit_13775.cif
_audit_creation_date              2013-03-05T16:19:43-0500
_audit_creation_method            fapswitch 2.2
_symmetry_space_group_name_H-M    P1
_symmetry_Int_Tables_number       1
_space_group_crystal_system       triclinic
_cell_length_a                    10.670268
_cell_length_b                    9.773947
_cell_length_c                    26.867057
_cell_angle_alpha                 90.228968
_cell_angle_beta                  90.545001
_cell_angle_gamma                 90.189153
_cell_volume                      2801.81764956

loop_
_atom_site_label
_atom_site_type_symbol
_atom_site_description
_atom_site_fract_x
_atom_site_fract_y
_atom_site_fract_z
_atom_type_partial_charge
O1    O     O_R   0.314910 0.616040 0.499990 -0.618069
O2    O     O_R   0.314910 0.383960 0.499990 -0.632860
C1    C     C_R   0.258286 0.500165 0.501432 0.857045
O3    O     O_R   0.500140 0.616020 0.428740 -0.611161
O4    O     O_R   0.500140 0.383980 0.428740 -0.565383
C2    C     C_R   0.499394 0.499819 0.405351 0.946136
Zn1   Zn    Zn3+2 0.500150 0.654960 0.499980 0.984290
Zn2   Zn    Zn3+2 0.500150 0.345040 0.499980 0.988846
O5    O     O_R   0.685320 0.616040 0.499970 -0.603082
O6    O     O_R   0.685320 0.383960 0.499970 -0.587112
O7    O     O_R   0.500090 0.616050 0.571230 -0.581151
O8    O     O_R   0.500090 0.383950 0.571230 -0.609197
C3    C     C_R   0.742479 0.500216 0.500475 0.933181
C4    C     C_R   0.496371 0.500680 0.594527 0.886243
C5    C     C_R   0.280148 0.427542 0.180773 0.554104
O9    O     O_2   0.249612 0.315264 0.207188 -0.520371
N1    N     N_R   0.343356 0.532616 0.203285 -0.358253
C6    C     C_R   0.372406 0.650136 0.178529 0.557834
C7    C     C_R   0.495062 0.451793 0.265292 -0.141486
C8    C     C_R   0.537533 0.441205 0.314731 0.271439
C9    C     C_R   0.352060 0.568136 0.340655 -0.260484
C10   C     C_R   0.311200 0.576541 0.291640 -0.085488
C11   C     C_R   0.382611 0.518703 0.253962 0.244097
C12   C     C_R   0.283798 0.551699 0.102880 -0.088558
C13   C     C_R   0.247879 0.435665 0.130301 -0.025108
C14   C     C_R   0.179884 0.330708 0.106976 -0.127542
C15   C     C_R   0.346801 0.661444 0.127079 -0.145942
C16   C     C_R   0.464522 0.501184 0.352744 -0.156737
H1    H     H_    0.295337 0.614035 0.369473 0.160538
H2    H     H_    0.224610 0.629000 0.282812 0.153519
H3    H     H_    0.143305 0.246073 0.128433 0.201210
C17   C     C_R   0.456851 0.505015 0.646297 -0.031465
C18   C     C_R   0.219557 0.431510 0.973661 0.084551
C19   C     C_R   0.267486 0.677356 0.971611 0.045164
C20   C     C_R   0.248567 0.551675 0.946565 0.025038
C21   C     C_R   0.213811 0.306119 0.947622 -0.186516
C22   C     C_R   0.232679 0.299654 0.896643 -0.161928
C23   C     C_R   0.260657 0.417670 0.869814 0.012185
C24   C     C_R   0.265348 0.544980 0.894436 -0.097791
C25   C     C_R   0.291779 0.664553 0.867281 -0.052209
C26   C     C_R   0.326376 0.651104 0.816964 0.541103
N2    N     N_R   0.325846 0.525305 0.794282 -0.362107
C27   C     C_R   0.289619 0.410326 0.819161 0.504248
C28   C     C_R   0.470964 0.431830 0.731981 -0.082622
C29   C     C_R   0.514761 0.426206 0.683209 -0.185122
C30   C     C_R   0.354049 0.587537 0.658241 -0.181848
C31   C     C_R   0.308329 0.590260 0.706402 -0.081034
C32   C     C_R   0.367386 0.513952 0.743760 0.279195
O10   O     O_2   0.283194 0.289024 0.795049 -0.544885
C33   C     C_R   0.209351 0.438910 0.026317 0.053400
C34   C     C_R   0.259580 0.555840 0.050987 0.030948
C35   C     C_R   0.289899 0.674777 0.023711 0.023603
C36   C     C_R   0.157354 0.332699 0.055718 0.067898
H4    H     H_    0.595207 0.363849 0.674776 0.203718
H5    H     H_    0.518386 0.373844 0.760745 0.161976
H6    H     H_    0.230112 0.200725 0.878619 0.173843
H7    H     H_    0.204745 0.209848 0.966331 0.166510
O11   O     O_2   0.425422 0.754802 0.204006 -0.471982
C37   C     C_R   0.383433 0.776492 0.098856 0.333481
H8    H     H_    0.549352 0.408395 0.235287 0.189123
C38   C     C_R   0.267612 0.799360 0.943269 0.031054
C39   C     C_R   0.282558 0.792942 0.891166 0.096073
O12   O     O_2   0.365123 0.761608 0.791315 -0.502710
C40   C     C_R   0.354235 0.781807 0.048257 -0.239244
H9    H     H_    0.307574 0.648119 0.629943 0.165734
H10   H     H_    0.227917 0.653213 0.714888 0.158774
H11   H     H_    0.393816 0.865985 0.027770 0.192457
C41   C     C_3   0.071906 0.649368 0.511890 -0.056621
C42   C     C_3   0.071596 0.397547 0.542098 -0.086239
H12   H     H_    0.101360 0.714927 0.480124 0.149895
H13   H     H_    0.095117 0.291489 0.529872 0.152074
C43   C     C_3   0.928840 0.647329 0.512100 -0.445893
C44   C     C_3   0.927718 0.409050 0.544069 -0.437256
H14   H     H_    0.894688 0.679566 0.549175 0.242502
H15   H     H_    0.897722 0.453581 0.580277 0.197561
H16   H     H_    0.892529 0.723946 0.485152 0.183911
H17   H     H_    0.886285 0.305130 0.542578 0.235407
H18   H     H_    0.110960 0.525796 0.421563 0.161984
H19   H     H_    0.115823 0.352820 0.440715 0.188083
C45   C     C_3   0.075235 0.454208 0.450329 -0.596767
C46   C     C_3   0.122208 0.500951 0.502575 0.143629
C47   C     C_3   0.879340 0.500373 0.500687 0.053740
C48   C     C_3   0.929555 0.447554 0.448980 0.238874
C49   C     C_3   0.373704 0.080836 0.484473 -0.056656
C50   C     C_3   0.377465 0.916942 0.479768 -0.044906
H20   H     H_    0.307625 0.104346 0.515278 0.108364
H21   H     H_    0.301469 0.877405 0.503971 0.137821
H22   H     H_    0.564958 0.107127 0.424240 0.190069
H23   H     H_    0.597764 0.872907 0.429583 0.173150
C51   C     C_3   0.591131 0.080257 0.462945 -0.239304
C52   C     C_3   0.600619 0.920119 0.467200 -0.280350
C53   C     C_3   0.529110 0.082658 0.549562 0.164663
C54   C     C_3   0.513936 0.921446 0.550597 0.169792
N3    N     N_3   0.499750 0.138610 0.498940 -0.116966
N4    N     N_3   0.499750 0.861390 0.498940 -0.101322
H24   H     H_    0.457947 0.124066 0.575705 0.082380
H25   H     H_    0.424696 0.901190 0.570732 0.043346
H26   H     H_    0.684249 0.128948 0.467238 0.227662
H27   H     H_    0.694578 0.892737 0.481493 0.219716
N5    N     N_R   0.457830 0.885442 0.119586 0.248484
O13   O     O_R   0.421685 0.011489 0.113918 -0.368002
O14   O     O_R   0.573021 0.861545 0.133226 -0.318922
N6    N     N_3   0.241211 0.927956 0.966831 -0.468678
H28   H     H_    0.157829 0.966575 0.951877 0.189863
H29   H     H_    0.314107 0.996305 0.959375 0.176507
N7    N     N_3   0.284531 0.916267 0.862392 -0.360870
H30   H     H_    0.198828 0.966133 0.866541 0.181723
H31   H     H_    0.357077 0.979340 0.875447 0.199846
N8    N     N_3   0.123402 0.711139 0.557773 -0.450473
H32   H     H_    0.080095 0.670187 0.589107 0.229384
H33   H     H_    0.102708 0.815685 0.557528 0.188315
N9    N     N_3   0.127105 0.419542 0.591696 -0.461921
H34   H     H_    0.084871 0.351673 0.616501 0.217512
H35   H     H_    0.221251 0.390660 0.590857 0.186148
N10   N     N_3   0.879846 0.533607 0.408379 -0.421884
H36   H     H_    0.918543 0.631830 0.410221 0.163024
H37   H     H_    0.907927 0.493273 0.374142 0.233192
N11   N     N_3   0.887916 0.305408 0.439850 -0.389352
H38   H     H_    0.915654 0.274617 0.404291 0.222659
H39   H     H_    0.932267 0.238288 0.464470 0.171769
N12   N     N_3   0.320713 0.150810 0.440795 -0.383782
H40   H     H_    0.227471 0.119864 0.435961 0.152007
H41   H     H_    0.368183 0.128082 0.408127 0.198283
N13   N     N_3   0.348564 0.863249 0.429762 -0.399659
H42   H     H_    0.254679 0.883178 0.421082 0.154707
H43   H     H_    0.403625 0.909374 0.402675 0.194952
N14   N     N_R   0.652213 0.129193 0.568720 0.261839
O15   O     O_R   0.756339 0.092468 0.547859 -0.420378
O16   O     O_R   0.658860 0.188476 0.612048 -0.395055
N15   N     N_R   0.610917 0.855852 0.581403 0.273414
O17   O     O_R   0.721711 0.829713 0.564528 -0.386184
O18   O     O_R   0.591360 0.840897 0.628830 -0.354563
N16   N     N_3   0.072741 0.233117 0.034924 -0.464444
H44   H     H_    0.107000 0.135730 0.043453 0.205569
H45   H     H_    0.986111 0.243973 0.052353 0.214392
N17   N     N_R   0.655794 0.375760 0.324753 0.197033
O19   O     O_R   0.742293 0.374234 0.290927 -0.378929
O20   O     O_R   0.673363 0.304966 0.365034 -0.418980

loop_
_geom_bond_atom_site_label_1
_geom_bond_atom_site_label_2
_geom_bond_distance
_ccdc_geom_bond_type
C53   N14   1.475988 S    
C26   N2    1.370066 A    
N15   O18   1.301880 A    
C7    C8    1.403699 A    
C12   C15   1.416535 A    
C43   H16   1.111752 S    
N9    H35   1.044799 S    
Zn1   O7    1.953188 S    
C37   C40   1.392996 A    
N1    C11   1.427836 S    
C41   C46   1.568380 S    
C48   N11   1.476124 S    
C21   C22   1.387485 A    
C38   N6    1.435000 S    
C49   H20   1.116064 S    
N8    H33   1.046166 S    
C23   C24   1.407423 A    
C45   C46   1.552516 S    
C42   N9    1.467845 S    
H18   C45   1.113717 S    
C5    C13   1.398530 A    
N7    H30   1.044349 S    
N10   H36   1.044611 S    
C53   H24   1.115178 S    
C18   C21   1.409621 A    
C25   C39   1.411297 A    
C50   N13   1.470025 S    
C5    N1    1.363131 A    
C19   C20   1.411278 A    
C17   C29   1.398658 A    
C42   H13   1.116253 S    
O5    C3    1.287729 A    
N11   H38   1.046210 S    
C53   C54   1.583825 S    
C18   C33   1.421487 A    
C18   C20   1.419123 A    
C22   H6    1.079840 S    
C6    O11   1.348425 S    
C2    C16   1.458266 S    
N10   H37   1.046158 S    
C1    C46   1.452651 S    
C42   C44   1.541094 S    
H23   C52   1.109455 S    
C31   H10   1.082981 S    
C41   C43   1.526676 S    
C12   C34   1.416287 A    
C14   H3    1.083943 S    
C54   N4    1.510809 S    
C9    C10   1.386082 A    
C37   N5    1.433744 S    
C44   H15   1.114320 S    
C45   C48   1.555663 S    
N5    O14   1.301376 A    
N9    H34   1.046203 S    
C51   N3    1.492804 S    
C50   H21   1.113417 S    
C33   C36   1.421461 A    
C34   C35   1.414890 A    
C40   H11   1.078886 S    
C48   N10   1.475791 S    
Zn2   N3    2.017709 S    
C12   C13   1.408920 A    
C30   H9    1.083027 S    
C43   H14   1.108794 S    
C21   H7    1.073080 S    
C35   C40   1.407711 A    
C4    C17   1.457747 S    
C24   C25   1.409334 A    
C7    C11   1.399958 A    
C27   O10   1.349995 S    
N2    C32   1.435906 S    
C8    C16   1.416675 A    
O3    Zn1   1.949990 S    
C49   N12   1.470004 S    
C9    H1    1.083967 S    
C3    C47   1.460302 S    
C19   C38   1.417417 A    
C8    N17   1.440222 S    
O1    C1    1.282776 A    
C20   C24   1.414929 A    
N14   O16   1.299483 A    
C22   C23   1.395590 A    
C31   C32   1.399238 A    
Zn2   O8    1.950207 S    
C53   N3    1.498654 S    
N1    C6    1.365829 A    
C36   N16   1.433464 S    
C33   C34   1.419822 A    
C49   N3    1.504032 S    
C49   C50   1.607028 S    
N12   H40   1.045679 S    
N17   O20   1.299280 A    
C25   C26   1.410494 A    
C9    C16   1.404693 A    
H22   C51   1.107012 S    
C29   H4    1.079653 S    
N16   H44   1.046232 S    
N6    H29   1.044991 S    
O3    C2    1.295750 A    
N2    C27   1.366450 A    
C26   O12   1.349351 S    
C54   N15   1.469420 S    
C14   C36   1.395934 A    
C54   H25   1.117125 S    
C44   C47   1.556142 S    
C28   C29   1.396314 A    
N13   H43   1.042597 S    
Zn1   O5    2.013335 S    
C30   C31   1.387363 A    
C10   H2    1.082936 S    
O1    Zn1   2.011602 S    
C17   C30   1.402585 A    
O2    Zn2   2.014068 S    
C6    C15   1.411341 A    
O8    C4    1.300039 A    
N17   O19   1.301534 A    
O6    C3    1.287803 A    
O4    Zn2   1.952973 S    
N14   O15   1.300124 A    
C39   N7    1.434780 S    
C7    H8    1.083123 S    
Zn1   N4    2.017960 S    
C19   C35   1.418130 A    
N15   O17   1.296036 A    
C13   C14   1.397414 A    
C23   C27   1.400021 A    
C15   C37   1.414835 A    
N8    H32   1.044670 S    
C50   N4    1.502262 S    
C28   H5    1.082798 S    
C51   C52   1.573331 S    
O4    C2    1.297097 A    
N7    H31   1.045092 S    
N5    O13   1.301239 A    
O7    C4    1.292561 A    
O2    C1    1.288863 A    
C41   N8    1.471404 S    
C38   C39   1.411593 A    
N11   H39   1.044717 S    
N12   H41   1.041084 S    
C42   C46   1.567332 S    
C52   N4    1.494129 S    
H19   C45   1.113186 S    
C28   C32   1.405837 A    
Zn2   O6    2.010869 S    
C47   C48   1.579153 S    
N6    H28   1.045046 S    
N16   H45   1.045690 S    
C41   H12   1.116194 S    
C44   H17   1.106841 S    
C10   C11   1.392079 A    
C52   H27   1.104298 S    
C51   H26   1.105119 S    
C43   C47   1.557068 S    
C5    O9    1.349954 S    
N13   H42   1.045515 S    
