data_mof_unit_12698.cif
_audit_creation_date              2012-12-10T19:44:25-0500
_audit_creation_method            fapswitch 2.2
_symmetry_space_group_name_H-M    P1
_symmetry_Int_Tables_number       1
_space_group_crystal_system       triclinic
_cell_length_a                    10.859398
_cell_length_b                    12.439324
_cell_length_c                    13.290799
_cell_angle_alpha                 116.912908
_cell_angle_beta                  76.379726
_cell_angle_gamma                 100.792925
_cell_volume                      1549.14496496

loop_
_atom_site_label
_atom_site_type_symbol
_atom_type_description
_atom_site_fract_x
_atom_site_fract_y
_atom_site_fract_z
_atom_type_partial_charge
C1    C     C_R   0.516587 0.855151 0.286768 0.813416
C2    C     C_R   0.622558 0.841643 0.798032 0.597261
C3    C     C_R   0.034849 0.966529 0.578593 0.337395
C4    C     C_R   0.127662 0.005970 0.504948 -0.149340
C5    C     C_R   0.089169 0.051089 0.437239 0.050883
C6    C     C_R   0.960709 0.045718 0.436949 -0.147960
C7    C     C_R   0.869382 0.000962 0.504904 -0.144646
C8    C     C_R   0.905803 0.961029 0.576567 -0.019621
C9    C     C_R   0.179360 0.231154 0.394113 0.390180
C10   C     C_R   0.270130 0.283398 0.330851 0.529450
C11   C     C_R   0.359783 0.213596 0.241762 -0.351844
C12   C     C_R   0.736546 0.000157 0.501307 0.853811
C13   C     C_R   0.357458 0.090787 0.213797 0.442925
C14   C     C_R   0.266000 0.037094 0.274529 -0.247108
C15   C     C_R   0.178785 0.107233 0.367383 -0.087609
C16   C     C_R   0.321735 0.292608 0.024123 -0.219583
C17   C     C_R   0.452807 0.229694 0.836053 -0.139272
C18   C     C_R   0.646051 0.805495 0.095582 -0.147443
C19   C     C_R   0.696052 0.720158 0.989239 -0.122673
C20   C     C_R   0.645809 0.599632 0.949900 0.597867
C21   C     C_R   0.534504 0.563310 0.013529 -0.023234
C22   C     C_R   0.481345 0.653215 0.121150 0.016832
C23   C     C_R   0.478681 0.145104 0.713595 0.837511
C24   C     C_R   0.475939 0.441557 0.977787 0.093679
C25   C     C_R   0.374155 0.412234 0.053148 0.058170
C26   C     C_R   0.320512 0.503084 0.154531 -0.126702
C27   C     C_R   0.369433 0.622216 0.185249 -0.133833
C28   C     C_R   0.509891 0.348814 0.868107 -0.210813
C29   C     C_R   0.361410 0.200951 0.917276 0.485840
C30   C     C_R   0.542443 0.772331 0.164298 -0.071457
C31   C     C_R   0.706420 0.343586 0.329646 -0.291339
C32   C     C_R   0.335914 0.767589 0.654051 0.143472
C33   C     C_R   0.320481 0.689062 0.704603 -0.118286
C34   C     C_R   0.262496 0.002011 0.501819 0.839864
C35   C     C_R   0.393162 0.591167 0.654931 -0.040361
C36   C     C_R   0.473137 0.562277 0.547366 -0.009805
C37   C     C_R   0.498212 0.654038 0.506381 0.152219
C38   C     C_R   0.537179 0.452008 0.484088 -0.065487
C39   C     C_R   0.637627 0.445258 0.392087 -0.094992
C40   C     C_R   0.669410 0.539452 0.360663 -0.239250
C41   C     C_R   0.601959 0.639950 0.413770 0.609522
C42   C     C_R   0.503891 0.344753 0.502052 0.424245
C43   C     C_R   0.673803 0.245008 0.355079 0.790115
C44   C     C_R   0.638779 0.963484 0.817491 0.652107
C45   C     C_R   0.732954 0.002742 0.746852 -0.310242
C46   C     C_R   0.810148 0.919966 0.654670 0.104417
C47   C     C_R   0.794213 0.797855 0.635421 -0.147231
C48   C     C_R   0.701085 0.759156 0.707562 -0.363974
Cu1   Cu    Cu3+1 0.529370 0.098270 0.475420 1.073355
Cu2   Cu    Cu3+1 0.470630 0.901730 0.524580 1.041392
H1    H     H_    0.431722 0.255209 0.195176 0.217426
H2    H     H_    0.266046 0.941885 0.252530 0.158294
H3    H     H_    0.237660 0.482375 0.208998 0.195252
H4    H     H_    0.246101 0.270827 0.083546 0.182574
H5    H     H_    0.573974 0.368113 0.802339 0.249930
H6    H     H_    0.694292 0.896029 0.127376 0.229204
H7    H     H_    0.780003 0.746330 0.939555 0.188676
H8    H     H_    0.318737 0.689848 0.260974 0.149923
H9    H     H_    0.747877 0.534731 0.291289 0.189155
H10   H     H_    0.784624 0.340101 0.260601 0.187672
H11   H     H_    0.282851 0.845513 0.694555 0.227950
H12   H     H_    0.392258 0.546087 0.707510 0.208496
H13   H     H_    0.256912 0.707590 0.785539 0.196364
H14   H     H_    0.744175 0.097092 0.762336 0.173248
H15   H     H_    0.852968 0.732866 0.564139 0.191785
H16   H     H_    0.688651 0.664915 0.692320 0.211722
H17   H     H_    0.931859 0.076928 0.382547 0.210681
N1    N     N_R   0.573890 0.246290 0.438210 -0.272529
N2    N     N_R   0.426890 0.754320 0.561170 -0.227911
O1    O     O_R   0.536940 0.972510 0.318130 -0.537404
O2    O     O_R   0.487330 0.806530 0.359650 -0.527457
O3    O     O_R   0.705160 0.082990 0.479250 -0.543548
O4    O     O_R   0.655550 0.917010 0.520760 -0.537524
O5    O     O_R   0.512670 0.193470 0.640350 -0.554164
O6    O     O_R   0.463060 0.027490 0.681870 -0.556904
O7    O     O_R   0.344450 0.082990 0.479240 -0.537898
O8    O     O_R   0.294840 0.917010 0.520750 -0.563182
F1    F     F_    0.530204 0.802810 0.865729 -0.617755
Cl1   Cl    Cl    0.472750 0.004751 0.106088 -0.456833
Cl2   Cl    Cl    0.283699 0.055562 0.888392 -0.509876
F2    F     F_    0.714779 0.521116 0.854286 -0.671666
F3    F     F_    0.562639 0.044202 0.903594 -0.593917
F4    F     F_    0.740249 0.146410 0.295071 -0.649672
Cl3   Cl    Cl    0.363866 0.327413 0.594289 -0.573098
F5    F     F_    0.650710 0.721457 0.372227 -0.657758
Cl4   Cl    Cl    0.076270 0.938842 0.685588 -0.571605
Cl5   Cl    Cl    0.072519 0.324630 0.509940 -0.473933
F6    F     F_    0.274091 0.402899 0.357941 -0.645540

loop_
_geom_bond_atom_site_label_1
_geom_bond_atom_site_label_2
_ccdc_geom_bond_type
C13   Cl1   S    
Cu1   N1    S    
C37   N2    A    
C17   C29   A    
C35   C36   A    
C7    C8    A    
C45   C46   A    
C19   H7    S    
C10   F6    S    
C26   C27   A    
C17   C23   S    
C31   C43   A    
C36   C37   A    
Cu2   N2    S    
C32   H11   S    
C38   C42   A    
C44   F3    S    
C34   O8    A    
C38   C39   A    
C43   F4    S    
C18   C19   A    
C20   F2    S    
C14   H2    S    
C19   C20   A    
C2    C44   A    
C43   N1    A    
Cu1   O3    S    
C18   C30   A    
C13   C14   A    
C9    C10   A    
C18   H6    S    
C12   O3    A    
C40   H9    S    
C12   O4    A    
C3    Cl4   S    
C42   N1    A    
C25   C26   A    
C28   H5    S    
C16   H4    S    
C7    C12   S    
C4    C34   S    
C42   Cl3   S    
C24   C25   A    
C3    C8    A    
Cu2   O4    S    
C39   C40   A    
C2    C48   A    
C16   C29   A    
C31   H10   S    
Cu2   O2    S    
C2    F1    S    
C47   C48   A    
C33   H13   S    
Cu1   O7    S    
C1    O2    A    
C6    C7    A    
C40   C41   A    
C22   C27   A    
C23   O5    A    
C3    C4    A    
C26   H3    S    
C44   C45   A    
C16   C25   A    
C46   C47   A    
C6    H17   S    
C22   C30   A    
Cu1   O5    S    
C17   C28   A    
C24   C28   A    
C23   O6    A    
C4    C5    A    
C27   H8    S    
C32   N2    A    
C41   F5    S    
C45   H14   S    
C1    O1    A    
Cu1   O1    S    
C32   C33   A    
C36   C38   A    
C9    C15   A    
Cu2   O6    S    
C9    Cl5   S    
C11   C13   A    
C5    C6    A    
C29   Cl2   S    
C1    C30   S    
C33   C35   A    
C31   C39   A    
C35   H12   S    
C37   C41   A    
C8    C46   S    
C5    C15   S    
C11   H1    S    
C10   C11   A    
C20   C21   A    
Cu1   Cu2   S    
C21   C24   A    
Cu2   O8    S    
C14   C15   A    
C48   H16   S    
C21   C22   A    
C47   H15   S    
C34   O7    A    
