data_mof_unit_63655.cif
_audit_creation_date              2012-12-11T15:59:38-0500
_audit_creation_method            fapswitch 2.2
_symmetry_space_group_name_H-M    P1
_symmetry_Int_Tables_number       1
_space_group_crystal_system       triclinic
_cell_length_a                    6.960738
_cell_length_b                    20.137836
_cell_length_c                    21.720561
_cell_angle_alpha                 92.827266
_cell_angle_beta                  89.144497
_cell_angle_gamma                 90.562884
_cell_volume                      3040.49137021

loop_
_atom_site_label
_atom_site_type_symbol
_atom_type_description
_atom_site_fract_x
_atom_site_fract_y
_atom_site_fract_z
_atom_type_partial_charge
O1    O     O_R   0.505910 0.557140 0.441630 -0.518838
O2    O     O_R   0.175760 0.566370 0.557960 -0.522362
O3    O     O_R   0.005440 0.442860 0.558370 -0.530074
C1    C     C_R   0.344352 0.584136 0.580673 0.717976
O4    O     O_R   0.176200 0.564760 0.442040 -0.520443
O5    O     O_R   0.005880 0.441250 0.441620 -0.519861
C2    C     C_R   0.346867 0.582502 0.419593 0.702777
O6    O     O_R   0.505470 0.558750 0.558380 -0.519125
O7    O     O_3   0.339200 0.459480 0.500000 -0.354083
V1    V     V_3+5 0.064350 0.507520 0.500000 1.411882
O8    O     O_R   0.676160 0.433630 0.442040 -0.522354
C3    C     C_R   0.845504 0.415474 0.419864 0.718169
O9    O     O_R   0.675730 0.435240 0.557960 -0.534950
C4    C     C_R   0.842895 0.420376 0.577585 0.747310
V2    V     V_3+5 0.564340 0.492480 0.500000 1.410413
O10   O     O_3   0.839360 0.540520 0.500000 -0.356390
C5    C     C_3   0.020338 0.314205 0.757750 -0.403076
C6    C     C_3   0.671422 0.281378 0.744451 0.153519
C7    C     C_3   0.691235 0.232285 0.797054 0.216165
H1    H     H_    0.019678 0.288722 0.854371 0.183717
H2    H     H_    0.975423 0.362961 0.779432 0.152049
H3    H     H_    0.590672 0.189200 0.789147 0.105413
C8    C     C_1   0.928711 0.119526 0.883896 -0.186309
C9    C     C_3   0.868694 0.288566 0.710497 0.218832
C10   C     C_3   0.043649 0.263665 0.808114 -0.313273
C11   C     C_3   0.899904 0.205265 0.797374 0.223985
C12   C     C_3   0.945509 0.169985 0.733918 -0.424695
C13   C     C_3   0.932617 0.219914 0.682561 -0.300778
C14   C     C_1   0.918133 0.158541 0.844995 -0.044316
C15   C     C_1   0.856222 0.335101 0.662498 -0.091100
C16   C     C_1   0.848803 0.373911 0.623328 -0.199796
H4    H     H_    0.092342 0.148492 0.733647 0.172918
H5    H     H_    0.161341 0.322139 0.734291 0.169907
H6    H     H_    0.193282 0.244622 0.806616 0.148619
H7    H     H_    0.842268 0.128231 0.724658 0.152443
C17   C     C_1   0.921665 0.130490 0.138379 -0.208945
C18   C     C_1   0.910210 0.173850 0.181158 0.004374
C19   C     C_1   0.895598 0.225034 0.232025 0.002403
C20   C     C_1   0.883054 0.268166 0.274969 0.001851
C21   C     C_1   0.868442 0.319350 0.325837 0.002639
C22   C     C_1   0.856990 0.362708 0.368617 -0.212143
C23   C     C_1   0.354792 0.635396 0.633664 -0.217748
C24   C     C_1   0.366683 0.677010 0.678113 0.002132
C25   C     C_1   0.382497 0.725965 0.731160 -0.001213
C26   C     C_1   0.396172 0.767120 0.775911 -0.001166
C27   C     C_1   0.411987 0.816079 0.828955 0.002255
C28   C     C_1   0.423879 0.857701 0.873398 -0.217519
C29   C     C_1   0.360396 0.633875 0.368145 -0.207875
C30   C     C_1   0.371246 0.675727 0.325704 0.012980
C31   C     C_1   0.384121 0.725697 0.274794 -0.001853
C32   C     C_1   0.394854 0.767424 0.232241 -0.001939
C33   C     C_1   0.407719 0.817395 0.181332 0.012679
C34   C     C_1   0.418546 0.859248 0.138891 -0.207766
O11   O     O_R   0.273200 0.934350 0.948680 -0.519567
O12   O     O_R   0.602630 0.928390 0.064980 -0.520988
O13   O     O_R   0.772790 0.051930 0.065390 -0.519586
C35   C     C_R   0.431997 0.910626 0.087445 0.700981
O14   O     O_R   0.602920 0.926780 0.949060 -0.522907
O15   O     O_R   0.773080 0.050310 0.948640 -0.528088
C36   C     C_R   0.434321 0.908979 0.926374 0.717318
O16   O     O_R   0.272900 0.935970 0.065430 -0.519638
O17   O     O_3   0.439420 0.033650 0.007040 -0.352098
V3    V     V_3+5 0.714330 0.985650 0.007020 1.417580
O18   O     O_R   0.102790 0.057980 0.949020 -0.534614
C37   C     C_R   0.935532 0.072834 0.929422 0.745028
O19   O     O_R   0.102500 0.059590 0.064940 -0.522491
C38   C     C_R   0.933159 0.077724 0.087133 0.719503
V4    V     V_3+5 0.214320 0.000760 0.006970 1.417274
O20   O     O_3   0.939360 0.952680 0.006990 -0.357674
O21   O     O_3   0.529293 0.257366 0.703395 -0.667573
H8    H     H_    0.481897 0.296025 0.681593 0.281905
H9    H     H_    0.627800 0.331091 0.764882 0.094512
O22   O     O_3   0.646178 0.264404 0.854374 -0.656035
H10   H     H_    0.504585 0.269755 0.855994 0.278843
H11   H     H_    0.075467 0.224515 0.659308 0.162906
H12   H     H_    0.829296 0.200966 0.647087 0.177995

loop_
_geom_bond_atom_site_label_1
_geom_bond_atom_site_label_2
_ccdc_geom_bond_type
C6    O21   S    
O19   V4    S    
O22   H10   S    
C4    C16   S    
C1    O6    A    
C17   C38   S    
O11   C36   A    
C26   C27   S    
C25   C26   T    
C11   C12   S    
C18   C19   S    
C6    C9    S    
C8    C14   T    
C17   C18   T    
O5    C3    A    
C19   C20   T    
O11   V4    S    
H1    C10   S    
O14   C36   A    
V2    O10   S    
C6    C7    S    
C7    C11   S    
C28   C36   S    
O8    V2    S    
V3    O20   S    
V4    O20   S    
O12   V3    S    
O21   H8    S    
O1    V2    S    
O7    V1    S    
C10   H6    S    
O19   C38   A    
O9    C4    A    
C5    H5    S    
C6    H9    S    
C5    C9    S    
C32   C33   S    
C7    O22   S    
C7    H3    S    
C20   C21   S    
O4    C2    A    
C34   C35   S    
C12   H7    S    
C10   C11   S    
C5    H2    S    
O2    C1    A    
C24   C25   S    
O17   V3    S    
C31   C32   T    
O13   V3    S    
O3    C4    A    
C21   C22   T    
O6    V2    S    
O12   C35   A    
C23   C24   T    
O2    V1    S    
O18   V4    S    
C33   C34   T    
C3    C22   S    
O14   V3    S    
C27   C28   T    
C29   C30   T    
C12   H4    S    
O1    C2    A    
C9    C13   S    
O5    V1    S    
O8    C3    A    
C35   O16   A    
O13   C38   A    
O15   V3    S    
O17   V4    S    
C5    C10   S    
C2    C29   S    
C8    C37   S    
O9    V2    S    
O7    V2    S    
O4    V1    S    
O3    V1    S    
V1    O10   S    
O18   C37   A    
O16   V4    S    
C15   C16   T    
C1    C23   S    
C9    C15   S    
C11   C14   S    
C30   C31   S    
C12   C13   S    
C13   H11   S    
O15   C37   A    
C13   H12   S    
