data_mof_unit_47834.cif
_audit_creation_date              2012-10-26T18:44:11-0400
_audit_creation_method            fapswitch 2.2
_symmetry_space_group_name_H-M    P1
_symmetry_Int_Tables_number       1
_space_group_crystal_system       triclinic
_cell_length_a                    19.363075
_cell_length_b                    9.095291
_cell_length_c                    7.790713
_cell_angle_alpha                 89.967183
_cell_angle_beta                  90.000055
_cell_angle_gamma                 89.99998
_cell_volume                      1372.04406924

loop_
_atom_site_label
_atom_site_type_symbol
_atom_type_description
_atom_site_fract_x
_atom_site_fract_y
_atom_site_fract_z
_atom_type_partial_charge
C1    C     C_R   0.500000 0.220036 0.500027 0.537619
C2    C     C_R   0.254789 0.387625 0.412671 0.218573
C3    C     C_R   0.182813 0.609186 0.588452 -0.049217
C4    C     C_R   0.817188 0.390837 0.411513 -0.049221
C5    C     C_R   0.817188 0.609165 0.588487 -0.049221
C6    C     C_R   0.182812 0.390822 0.411541 -0.049219
C7    C     C_R   0.146258 0.500004 0.499996 -0.067079
C8    C     C_R   0.853743 0.500001 0.500000 -0.067076
C9    C     C_R   0.291693 0.500002 0.499999 0.009136
C10   C     C_R   0.708307 0.500000 0.500000 0.009133
C11   C     C_R   0.929926 0.500002 0.499999 0.351548
C12   C     C_R   0.500000 0.779964 0.499973 0.537618
C13   C     C_R   0.070074 0.500004 0.499996 0.351548
C14   C     C_R   0.367380 0.500001 0.500000 0.505675
C15   C     C_R   0.632621 0.500000 0.500000 0.505679
C16   C     C_1   0.500000 0.065373 0.500035 -0.020708
C17   C     C_1   0.500000 0.934627 0.499964 -0.020708
C18   C     C_R   0.254789 0.612381 0.587326 0.218573
C19   C     C_R   0.745211 0.387639 0.412642 0.218569
C20   C     C_R   0.745211 0.612361 0.587358 0.218569
Cu1   Cu    Cu3+1 0.500000 0.500000 0.669080 1.070320
Cu2   Cu    Cu3+1 0.500000 0.500000 0.330920 1.070322
H1    H     H_    0.155499 0.695132 0.656649 0.186595
H2    H     H_    0.844501 0.304906 0.343290 0.186593
H3    H     H_    0.844501 0.695096 0.656710 0.186593
H4    H     H_    0.155499 0.304877 0.343343 0.186595
H5    H     H_    0.334758 0.737798 0.632809 0.338918
H6    H     H_    0.665247 0.262211 0.367159 0.338916
H7    H     H_    0.665246 0.737788 0.632842 0.338916
H8    H     H_    0.334756 0.262200 0.367199 0.338918
N1    N     N_1   0.500000 0.500000 0.076820 -0.058361
N2    N     N_1   0.500000 0.500000 0.923180 -0.058361
N3    N     N_R   0.034339 0.395235 0.413465 -0.206896
N4    N     N_R   0.965662 0.604771 0.586530 -0.206896
N5    N     N_R   0.965661 0.395234 0.413466 -0.206897
N6    N     N_R   0.034339 0.604772 0.586528 -0.206896
O1    O     O_R   0.500000 0.288390 0.642760 -0.490356
O2    O     O_3   0.713765 0.271410 0.329222 -0.663251
O3    O     O_3   0.713765 0.728591 0.670778 -0.663251
O4    O     O_3   0.286235 0.271378 0.329283 -0.663255
O5    O     O_R   0.500000 0.711610 0.357240 -0.490356
O6    O     O_R   0.500000 0.711610 0.642760 -0.502047
O7    O     O_R   0.500000 0.288390 0.357240 -0.502046
O8    O     O_R   0.400140 0.500000 0.642830 -0.492594
O9    O     O_R   0.599860 0.500000 0.357170 -0.492585
O10   O     O_R   0.599860 0.500000 0.642830 -0.492585
O11   O     O_R   0.400140 0.500000 0.357170 -0.492590
O12   O     O_3   0.286235 0.728625 0.670717 -0.663255

loop_
_geom_bond_atom_site_label_1
_geom_bond_atom_site_label_2
_ccdc_geom_bond_type
C12   C17   S    
H5    O12   S    
C5    C8    A    
C9    C14   S    
C13   N3    A    
C6    C7    A    
C19   O2    S    
C1    O1    A    
Cu1   O8    S    
C3    H1    S    
N1    N2    T    
H6    O2    S    
C10   C19   A    
C4    C8    A    
H7    O3    S    
C11   N5    A    
Cu2   O11   S    
C6    H4    S    
H8    O4    S    
C1    C16   S    
C2    C6    A    
Cu1   Cu2   S    
C2    C9    A    
C12   O5    A    
C13   N6    A    
C8    C11   S    
C5    H3    S    
N3    N5    A    
C14   O11   A    
C3    C7    A    
C10   C15   S    
C4    H2    S    
Cu1   N2    S    
Cu2   O5    S    
Cu2   N1    S    
C15   O9    A    
Cu1   O6    S    
C2    O4    S    
C9    C18   A    
C7    C13   S    
Cu2   O9    S    
Cu1   O1    S    
N4    N6    A    
C3    C18   A    
C14   O8    A    
Cu1   O10   S    
C5    C20   A    
C20   O3    S    
C12   O6    A    
C15   O10   A    
C4    C19   A    
C1    O7    A    
C11   N4    A    
Cu2   O7    S    
C10   C20   A    
C16   C17   T    
C18   O12   S    
