data_mof_unit_47370.cif
_audit_creation_date              2012-12-11T16:07:33-0500
_audit_creation_method            fapswitch 2.2
_symmetry_space_group_name_H-M    P1
_symmetry_Int_Tables_number       1
_space_group_crystal_system       triclinic
_cell_length_a                    6.938664
_cell_length_b                    14.534905
_cell_length_c                    15.844587
_cell_angle_alpha                 90.136753
_cell_angle_beta                  89.989431
_cell_angle_gamma                 90.160058
_cell_volume                      1597.96050139

loop_
_atom_site_label
_atom_site_type_symbol
_atom_type_description
_atom_site_fract_x
_atom_site_fract_y
_atom_site_fract_z
_atom_type_partial_charge
O1    O     O_R   0.494320 0.415010 0.412140 -0.539552
O2    O     O_R   0.824010 0.404260 0.587250 -0.547835
O3    O     O_R   0.994320 0.584990 0.587860 -0.515640
C1    C     C_R   0.654654 0.382711 0.617058 0.703507
O4    O     O_R   0.824040 0.403870 0.412760 -0.552515
O5    O     O_R   0.994350 0.584590 0.412130 -0.542697
C2    C     C_R   0.654928 0.383351 0.382261 0.703762
O6    O     O_R   0.494300 0.415410 0.587870 -0.508721
O7    O     O_3   0.660800 0.559290 0.500000 -0.365100
V1    V     V_3+5 0.935650 0.489000 0.500000 1.439639
O8    O     O_R   0.324060 0.595740 0.412750 -0.548866
C3    C     C_R   0.154877 0.617418 0.383037 0.658897
O9    O     O_R   0.324040 0.596130 0.587240 -0.541513
C4    C     C_R   0.155158 0.617409 0.616760 0.743481
V2    V     V_3+5 0.435660 0.511000 0.500000 1.453790
O10   O     O_3   0.160640 0.440710 0.500000 -0.365168
C5    C     C_3   0.964103 0.708342 0.740239 0.394005
C6    C     C_3   0.084496 0.706617 0.821633 0.076681
C7    C     C_3   0.121573 0.810944 0.812277 -0.114137
C8    C     C_3   0.997632 0.813020 0.730412 -0.260210
C9    C     C_3   0.181046 0.790921 0.677889 0.081268
C10   C     C_3   0.301553 0.789139 0.759249 0.392250
C11   C     C_3   0.267819 0.684546 0.769137 -0.260530
C12   C     C_3   0.144259 0.686672 0.687306 -0.113984
H1    H     H_    0.887764 0.865404 0.714218 0.141473
H2    H     H_    0.378608 0.633004 0.785993 0.139851
C13   C     C_3   0.227508 0.851639 0.266285 0.268400
H3    H     H_    0.376800 0.870760 0.247412 0.054206
C14   C     C_3   0.243866 0.778139 0.337110 -0.368208
H4    H     H_    0.179624 0.804582 0.396699 0.178159
H5    H     H_    0.398837 0.764723 0.350344 0.123860
H6    H     H_    0.385924 0.745418 0.142638 0.122318
H7    H     H_    0.392301 0.632407 0.241831 0.112034
C15   C     C_3   0.235319 0.725418 0.158647 -0.455486
C16   C     C_3   0.915075 0.777647 0.214912 0.288498
C17   C     C_3   0.120254 0.811497 0.187663 -0.018877
H8    H     H_    0.850181 0.739130 0.160579 0.055440
C18   C     C_3   0.142221 0.687099 0.311304 -0.074520
C19   C     C_3   0.238917 0.650335 0.228714 0.226820
C20   C     C_3   0.928597 0.710719 0.290492 -0.265282
H9    H     H_    0.859023 0.741537 0.347234 0.168494
H10   H     H_    0.846084 0.647028 0.275195 0.136088
H11   H     H_    0.170363 0.697227 0.099827 0.182020
C21   C     C_3   0.504007 0.230787 0.662711 0.237096
H12   H     H_    0.566945 0.198758 0.604751 0.063076
C22   C     C_3   0.490605 0.158024 0.735175 -0.022776
H13   H     H_    0.339181 0.156214 0.758698 0.156641
H14   H     H_    0.398993 0.275268 0.863614 0.156925
C23   C     C_3   0.576394 0.356866 0.774442 0.028522
C24   C     C_3   0.842051 0.268207 0.704773 -0.446223
C25   C     C_3   0.640779 0.312161 0.688165 0.054663
H15   H     H_    0.949767 0.322624 0.719694 0.180578
H16   H     H_    0.893532 0.231991 0.647086 0.159689
C26   C     C_3   0.622955 0.186382 0.811062 0.040540
C27   C     C_3   0.552304 0.281331 0.843463 -0.380247
C28   C     C_3   0.833803 0.199448 0.778995 -0.330037
H17   H     H_    0.897124 0.132686 0.759070 0.155152
H18   H     H_    0.925691 0.225898 0.831362 0.156391
H19   H     H_    0.695673 0.403188 0.795235 0.130934
H20   H     H_    0.635653 0.301769 0.900581 0.147690
C29   C     C_3   0.495710 0.342440 0.239923 0.605060
C30   C     C_3   0.510769 0.273897 0.163256 0.097420
H21   H     H_    0.361982 0.251907 0.145310 0.110223
H22   H     H_    0.442946 0.226777 0.385526 0.158560
H23   H     H_    0.379883 0.146377 0.265252 0.147781
C31   C     C_3   0.576302 0.218759 0.347163 -0.340450
C32   C     C_3   0.845759 0.297168 0.271282 -0.383082
C33   C     C_3   0.642872 0.313014 0.311167 -0.077287
H24   H     H_    0.951016 0.282186 0.322226 0.195726
H25   H     H_    0.900488 0.361107 0.241403 0.149365
C34   C     C_3   0.627219 0.185768 0.188743 -0.015313
C35   C     C_3   0.537598 0.149211 0.274046 -0.059159
C36   C     C_3   0.841409 0.218140 0.204941 0.070161
H26   H     H_    0.896859 0.247375 0.144657 0.175877
H27   H     H_    0.688866 0.192484 0.390941 0.151005
O11   O     O_R   0.771990 0.083520 0.910980 -0.540523
O12   O     O_R   0.442180 0.095020 0.086060 -0.556909
O13   O     O_R   0.271950 0.914280 0.086680 -0.555611
C37   C     C_R   0.611984 0.115826 0.116601 0.713304
O14   O     O_R   0.442270 0.094630 0.911580 -0.546109
O15   O     O_R   0.272040 0.913890 0.910940 -0.516186
C38   C     C_R   0.611691 0.116658 0.882426 0.715329
O16   O     O_R   0.771900 0.083910 0.086710 -0.535617
O17   O     O_3   0.605520 0.939610 0.998840 -0.363785
V3    V     V_3+5 0.330640 0.009880 0.998810 1.404625
O18   O     O_R   0.942330 0.902710 0.911540 -0.539010
C39   C     C_R   0.111203 0.880848 0.882439 0.741744
O19   O     O_R   0.942240 0.903100 0.086030 -0.535257
C40   C     C_R   0.110723 0.881504 0.115908 0.683120
V4    V     V_3+5 0.830640 0.987830 0.998780 1.431961
O20   O     O_3   0.105630 0.058150 0.998800 -0.376806
C41   C     C_3   0.028004 0.657783 0.902677 -0.777771
H28   H     H_    0.002864 0.583686 0.889513 0.221270
H29   H     H_    0.146071 0.664977 0.949393 0.206530
H30   H     H_    0.894497 0.688720 0.928708 0.207686
O21   O     O_3   0.797562 0.852423 0.237622 -0.627232
H31   H     H_    0.686023 0.852544 0.198487 0.267726
O22   O     O_3   0.141668 0.571892 0.198572 -0.632326
H32   H     H_    0.173389 0.520788 0.237174 0.294360
O23   O     O_3   0.318826 0.262643 0.642338 -0.650691
H33   H     H_    0.253227 0.212189 0.611131 0.270804
O24   O     O_3   0.786649 0.663995 0.729800 -0.646363
H34   H     H_    0.712159 0.678488 0.781425 0.294605
C42   C     C_3   0.532401 0.060841 0.701060 -0.866966
H35   H     H_    0.428870 0.044154 0.649896 0.210119
H36   H     H_    0.680220 0.055784 0.674798 0.217139
H37   H     H_    0.514369 0.008850 0.751484 0.253788
C43   C     C_3   0.396688 0.418675 0.770957 -0.735467
H38   H     H_    0.267637 0.380212 0.749850 0.247174
H39   H     H_    0.366211 0.446692 0.834879 0.190624
H40   H     H_    0.421231 0.478495 0.729104 0.207240
O25   O     O_3   0.305824 0.334325 0.271091 -0.675416
H41   H     H_    0.270417 0.391846 0.300673 0.300384
O26   O     O_3   0.525825 0.434504 0.214096 -0.662018
H42   H     H_    0.659759 0.441366 0.193579 0.294521
O27   O     O_3   0.595479 0.315787 0.092189 -0.673506
H43   H     H_    0.494112 0.353465 0.064802 0.306411
C44   C     C_3   0.235493 0.838487 0.595966 -0.789785
H44   H     H_    0.249811 0.913462 0.606997 0.215995
H45   H     H_    0.373956 0.810685 0.572014 0.210344
H46   H     H_    0.120853 0.826247 0.548438 0.205093
C45   C     C_3   0.984221 0.140628 0.228671 -0.714874
H47   H     H_    0.116769 0.148870 0.190649 0.182415
H48   H     H_    0.022893 0.140376 0.296624 0.200549
H49   H     H_    0.929739 0.070934 0.214464 0.238686
C46   C     C_3   0.592814 0.050936 0.300279 -0.743840
H50   H     H_    0.492104 0.026568 0.349999 0.213668
H51   H     H_    0.580997 0.003258 0.246018 0.205159
H52   H     H_    0.739529 0.047228 0.327445 0.253996
O28   O     O_3   0.479993 0.832380 0.769816 -0.650152
H53   H     H_    0.553343 0.818555 0.717719 0.295736
O29   O     O_3   0.132222 0.929621 0.297844 -0.621512
H54   H     H_    0.189198 0.983620 0.268921 0.271030

loop_
_geom_bond_atom_site_label_1
_geom_bond_atom_site_label_2
_ccdc_geom_bond_type
C17   C40   S    
H14   C27   S    
C31   C33   S    
C46   H50   S    
C13   C14   S    
C36   H26   S    
C7    C8    S    
C1    O6    A    
C42   H36   S    
O26   H42   S    
V3    O20   S    
C16   O21   S    
O27   H43   S    
O14   V3    S    
C41   H28   S    
C16   H8    S    
C7    C39   S    
O5    C3    A    
C18   C19   S    
C8    H1    S    
V2    O10   S    
C5    C8    S    
C43   H38   S    
C6    C7    S    
C11   H2    S    
C4    C12   S    
C44   H44   S    
C42   H35   S    
C2    C33   S    
C22   H13   S    
O8    V2    S    
C15   C19   S    
C31   C35   S    
C16   C17   S    
C28   H18   S    
O29   H54   S    
C23   C25   S    
C14   C18   S    
C24   H15   S    
C11   C12   S    
C32   C36   S    
C14   H4    S    
O7    V1    S    
C27   H20   S    
C20   H10   S    
O12   V3    S    
C18   C20   S    
O9    C4    A    
C10   O28   S    
C13   O29   S    
O24   H34   S    
O17   V4    S    
C34   C37   S    
O25   H41   S    
C21   C22   S    
C5    C6    S    
C23   C43   S    
O12   C37   A    
O13   C40   A    
C26   C28   S    
C5    C12   S    
C1    C25   S    
C32   C33   S    
C24   H16   S    
C7    C10   S    
O17   V3    S    
C9    C44   S    
O14   C38   A    
O18   V4    S    
O11   C38   A    
C34   C36   S    
O18   C39   A    
C19   O22   S    
C46   H52   S    
C23   C27   S    
C22   C42   S    
C41   H30   S    
C24   C28   S    
C6    C11   S    
C35   C46   S    
C32   H24   S    
C44   H46   S    
H6    C15   S    
O2    C1    A    
C5    O24   S    
C30   O27   S    
C30   H21   S    
O21   H31   S    
C22   C26   S    
C41   H29   S    
C24   C25   S    
H7    C19   S    
C8    C9    S    
O15   C39   A    
O3    C4    A    
O1    V2    S    
C21   C25   S    
C20   H9    S    
O19   V4    S    
C36   C45   S    
O6    V2    S    
O9    V2    S    
C28   H17   S    
C45   H48   S    
O2    V1    S    
C26   C38   S    
C21   H12   S    
O13   V3    S    
O4    C2    A    
O16   V4    S    
C26   C27   S    
C46   H51   S    
O1    C2    A    
C15   H11   S    
O5    V1    S    
O8    C3    A    
C13   C17   S    
H23   C35   S    
C23   H19   S    
C43   H40   S    
C32   H25   S    
C6    C41   S    
C45   H49   S    
O28   H53   S    
O7    V2    S    
O4    V1    S    
C14   H5    S    
O3    V1    S    
V1    O10   S    
C37   O16   A    
C21   O23   S    
C29   C33   S    
V4    O20   S    
C31   H27   S    
O23   H33   S    
C43   H39   S    
C30   C34   S    
C16   C20   S    
C15   C17   S    
C3    C18   S    
C29   C30   S    
C44   H45   S    
C34   C35   S    
O19   C40   A    
O22   H32   S    
C9    C12   S    
O11   V4    S    
C29   O26   S    
C10   C11   S    
C45   H47   S    
C9    C10   S    
C29   O25   S    
C42   H37   S    
O15   V3    S    
H22   C31   S    
C13   H3    S    
