data_mof_unit_43575.cif
_audit_creation_date              2013-03-05T15:57:47-0500
_audit_creation_method            fapswitch 2.2
_symmetry_space_group_name_H-M    P1
_symmetry_Int_Tables_number       1
_space_group_crystal_system       triclinic
_cell_length_a                    15.631452
_cell_length_b                    15.142673
_cell_length_c                    14.866787
_cell_angle_alpha                 109.77334
_cell_angle_beta                  121.454891
_cell_angle_gamma                 59.132889
_cell_volume                      2564.69960413

loop_
_atom_site_label
_atom_site_type_symbol
_atom_site_description
_atom_site_fract_x
_atom_site_fract_y
_atom_site_fract_z
_atom_type_partial_charge
C1    C     C_R   0.749148 0.997123 0.792176 -0.117940
C2    C     C_R   0.195901 0.062905 0.226916 -0.137145
H1    H     H_    0.758273 0.966232 0.853763 0.096210
H2    H     H_    0.166667 0.120117 0.177741 0.093399
N1    N     N_R   0.705410 0.966550 0.689210 -0.051976
N2    N     N_R   0.294590 0.033450 0.310790 -0.048091
C3    C     C_R   0.242859 0.289054 0.490560 -0.180577
C4    C     C_R   0.799065 0.725965 0.559068 -0.192389
H3    H     H_    0.229986 0.350034 0.456641 0.121941
H4    H     H_    0.824112 0.674318 0.612023 0.116812
N3    N     N_R   0.294590 0.188320 0.465660 -0.063625
N4    N     N_R   0.705410 0.811680 0.534340 -0.062873
C5    C     C_R   0.592418 0.216669 0.489722 -0.100685
C6    C     C_R   0.406202 0.771945 0.440055 -0.112055
H5    H     H_    0.677959 0.194333 0.513363 0.138822
H6    H     H_    0.320758 0.787444 0.388549 0.114367
N5    N     N_R   0.556610 0.157790 0.497330 -0.042402
N6    N     N_R   0.443390 0.842210 0.502670 -0.045390
C7    C     C_R   0.409635 0.977602 0.711145 -0.073988
C8    C     C_R   0.588836 0.947876 0.264685 -0.071122
H7    H     H_    0.327150 0.984806 0.678776 0.159045
H8    H     H_    0.673496 0.903496 0.275929 0.145019
N7    N     N_R   0.443390 0.997080 0.657540 -0.055621
N8    N     N_R   0.556610 0.002920 0.342460 -0.029977
C9    C     C_R   0.409269 0.286859 0.410758 -0.148103
C10   C     C_R   0.590432 0.694765 0.525428 -0.135680
H9    H     H_    0.324759 0.328543 0.356529 0.098103
H10   H     H_    0.674845 0.637886 0.558042 0.102396
N9    N     N_R   0.443390 0.203250 0.451380 -0.042965
N10   N     N_R   0.556610 0.796750 0.548620 -0.040386
C11   C     C_R   0.591506 0.908843 0.788687 -0.134785
C12   C     C_R   0.405122 0.019094 0.193917 -0.146078
H11   H     H_    0.676783 0.860083 0.833090 0.115845
H12   H     H_    0.319608 0.037354 0.144795 0.122838
N11   N     N_R   0.556610 0.951620 0.703500 -0.049306
N12   N     N_R   0.443390 0.048380 0.296500 -0.046845
C13   C     C_R   0.237338 0.198974 0.578261 0.329796
C14   C     C_R   0.804587 0.819260 0.475612 0.295088
N13   N     N_R   0.294590 0.131500 0.522480 -0.089386
N14   N     N_R   0.705410 0.868500 0.477520 -0.091176
C15   C     C_R   0.749711 0.089233 0.702086 -0.086296
C16   C     C_R   0.196464 0.971511 0.316882 -0.135467
H13   H     H_    0.759938 0.144577 0.682405 0.109901
H14   H     H_    0.166496 0.946072 0.350274 0.118086
N15   N     N_R   0.705410 0.023370 0.632390 -0.038347
N16   N     N_R   0.294590 0.976630 0.367610 -0.045587
C17   C     C_R   0.775521 0.075927 0.802778 0.118621
C18   C     C_R   0.132977 0.024879 0.228545 0.146979
C19   C     C_R   0.206800 0.298656 0.562980 -0.005797
C20   C     C_R   0.863396 0.727431 0.522406 -0.000035
C21   C     C_R   0.501002 0.298775 0.435084 0.053884
C22   C     C_R   0.495824 0.677870 0.458072 0.049120
C23   C     C_R   0.500243 0.920405 0.793292 0.033536
C24   C     C_R   0.493882 0.957275 0.169048 0.016130
H15   H     H_    0.983908 0.166045 0.087017 0.128227
H16   H     H_    0.824312 0.059602 0.999462 0.130482
Ni1   Ni    Ni4+2 0.629830 0.882720 0.617850 0.205195
Ni2   Ni    Ni4+2 0.370170 0.117280 0.382150 0.203412
Ni3   Ni    Ni4+2 0.629830 0.013030 0.487540 0.297724
Ni4   Ni    Ni4+2 0.370170 0.986970 0.512460 0.248132
H17   H     H_    0.985670 0.995834 0.157566 0.142879
H18   H     H_    0.858177 0.179318 0.899121 0.129202
H19   H     H_    0.955120 0.550522 0.898015 0.125410
H20   H     H_    0.987867 0.237740 0.937137 0.099959
C25   C     C_R   0.779782 0.602378 0.837906 -0.107025
C26   C     C_R   0.151907 0.211354 0.976806 -0.037266
H21   H     H_    0.774049 0.545058 0.770023 0.122529
H22   H     H_    0.134250 0.292722 0.993550 0.110107
C27   C     C_R   0.684945 0.673714 0.852978 -0.139004
C28   C     C_R   0.256976 0.137547 0.985919 -0.100957
H23   H     H_    0.606250 0.670941 0.795986 0.110125
H24   H     H_    0.320264 0.162304 0.009326 0.121091
C29   C     C_R   0.691595 0.748774 0.940725 0.074398
C30   C     C_R   0.280237 0.031859 0.965298 0.075491
C31   C     C_R   0.794497 0.751157 0.012964 -0.121166
C32   C     C_R   0.196590 0.001015 0.931679 -0.119661
H25   H     H_    0.800551 0.810128 0.079271 0.172826
H26   H     H_    0.212755 0.919910 0.912750 0.123610
C33   C     C_R   0.889142 0.679873 0.997322 -0.069315
C34   C     C_R   0.091517 0.075050 0.921783 -0.074109
H27   H     H_    0.968082 0.682828 0.052323 0.143264
H28   H     H_    0.027680 0.050325 0.895370 0.125033
C35   C     C_R   0.881818 0.605468 0.910030 -0.128074
C36   C     C_R   0.069260 0.180156 0.944917 -0.055209
C37   C     C_R   0.585733 0.845059 0.050229 -0.225173
C38   C     C_R   0.393634 0.930654 0.873289 -0.217827
H29   H     H_    0.659870 0.806407 0.117223 0.140229
H30   H     H_    0.317533 0.966048 0.806306 0.165007
C39   C     C_R   0.487950 0.916944 0.061571 0.065365
C40   C     C_R   0.495071 0.883540 0.869343 0.028965
C41   C     C_R   0.388800 0.954255 0.968805 0.033751
C42   C     C_R   0.589985 0.826975 0.953438 0.045280
H31   H     H_    0.002525 0.581014 0.657863 0.136140
H32   H     H_    0.171846 0.490716 0.562771 0.142125
C43   C     C_2   0.138140 0.395340 0.604241 -0.125411
C44   C     C_2   0.976035 0.651061 0.539075 -0.076942
C45   C     C_2   0.125697 0.486231 0.594680 -0.140371
C46   C     C_2   0.033233 0.579468 0.606371 -0.144990
H33   H     H_    0.007540 0.646204 0.486580 0.166480
H34   H     H_    0.089720 0.392739 0.634719 0.177595
C47   C     C_2   0.827730 0.130757 0.902248 -0.224017
C48   C     C_2   0.016757 0.046024 0.158202 -0.207415
H35   H     H_    0.080104 0.908024 0.518609 0.211726
H36   H     H_    0.962758 0.065623 0.451621 0.175898
C49   C     C_R   0.251873 0.806850 0.580434 -0.162848
C50   C     C_R   0.794795 0.149746 0.346492 -0.095753
H37   H     H_    0.270224 0.850066 0.657442 0.147620
H38   H     H_    0.800865 0.096750 0.277550 0.167144
C51   C     C_R   0.336150 0.718638 0.560367 -0.147070
C52   C     C_R   0.694833 0.234979 0.336567 -0.165184
H39   H     H_    0.420138 0.695112 0.621770 0.120888
H40   H     H_    0.623628 0.246811 0.260259 0.128376
C53   C     C_R   0.312368 0.663686 0.459538 0.074769
C54   C     C_R   0.687681 0.305100 0.425039 0.075130
C55   C     C_R   0.202857 0.692939 0.382174 -0.346518
C56   C     C_R   0.780784 0.289736 0.523303 -0.361351
H41   H     H_    0.184525 0.648755 0.305261 0.169344
H42   H     H_    0.773859 0.343921 0.591542 0.170432
C57   C     C_R   0.117752 0.780738 0.402365 0.406206
C58   C     C_R   0.879372 0.200903 0.535234 0.407782
C59   C     C_R   0.143725 0.839351 0.501165 -0.102333
C60   C     C_R   0.886396 0.132250 0.445367 -0.069149
C61   C     C_R   0.403310 0.480379 0.419129 -0.241646
C62   C     C_R   0.576849 0.491136 0.421430 -0.245448
H43   H     H_    0.336998 0.478893 0.423483 0.137188
H44   H     H_    0.644256 0.496054 0.422540 0.141734
C63   C     C_R   0.495804 0.390134 0.417590 0.054547
C64   C     C_R   0.488920 0.580778 0.433646 0.053672
C65   C     C_R   0.583390 0.395054 0.417061 0.062697
C66   C     C_R   0.401487 0.575169 0.433547 0.059104
C67   C     C_2   0.856122 0.106503 0.995470 -0.098192
C68   C     C_2   0.953920 0.115618 0.087519 -0.118054
N17   N     N_R   0.005669 0.808273 0.323356 0.237133
O1    O     O_R   0.930968 0.902289 0.324313 -0.425144
O2    O     O_R   0.976386 0.737760 0.252920 -0.457602
N18   N     N_R   0.969939 0.178982 0.638509 0.264080
O3    O     O_R   0.043103 0.084479 0.657698 -0.371276
O4    O     O_R   0.974303 0.251739 0.716520 -0.400467
N19   N     N_R   0.191971 0.171775 0.621182 0.218992
O5    O     O_R   0.183190 0.219852 0.708892 -0.385609
O6    O     O_R   0.149171 0.105365 0.566370 -0.446470
N20   N     N_R   0.854899 0.873477 0.470942 0.243934
O7    O     O_R   0.961713 0.836105 0.510583 -0.418177
O8    O     O_R   0.797321 0.969569 0.450320 -0.420054

loop_
_geom_bond_atom_site_label_1
_geom_bond_atom_site_label_2
_geom_bond_distance
_ccdc_geom_bond_type
C26   H22   1.082368 S    
N10   Ni1   1.859271 S    
C17   C47   1.465332 S    
N5    N9    1.370771 A    
C6    N6    1.317691 A    
C7    N7    1.325927 A    
C34   C36   1.399573 A    
C9    C21   1.378251 A    
C45   C46   1.454255 S    
C22   C64   1.437282 S    
C3    N3    1.335060 A    
C49   H37   1.078977 S    
C57   N17   1.434270 S    
C30   C32   1.401506 A    
C1    N1    1.333436 A    
C12   N12   1.320167 A    
C7    H7    1.072181 S    
C48   C68   1.337736 D    
N12   Ni2   1.848441 S    
C38   C41   1.375068 A    
C51   H39   1.083134 S    
C50   H38   1.081837 S    
C38   H30   1.079170 S    
C25   C35   1.397732 A    
H36   C60   1.078559 S    
C44   H33   1.087255 S    
C16   N16   1.342635 A    
C27   H23   1.083517 S    
N2    Ni2   1.858024 S    
H20   C36   1.081089 S    
C49   C51   1.394145 A    
C5    C21   1.377126 A    
C61   C63   1.394415 A    
C6    C22   1.372028 A    
C8    N8    1.345507 A    
C55   H41   1.083677 S    
C44   C46   1.334659 D    
C28   C30   1.405265 A    
C11   H11   1.076728 S    
C27   C29   1.407462 A    
N6    N10   1.370771 A    
C6    H6    1.076040 S    
C39   C41   1.421691 A    
N3    Ni2   1.848637 S    
C15   H13   1.079682 S    
C51   C53   1.403393 A    
C62   C64   1.394281 A    
H18   C47   1.083858 S    
C7    C23   1.378168 A    
C37   H29   1.082304 S    
N14   Ni3   1.875573 S    
C29   C31   1.404438 A    
C2    N2    1.340258 A    
C16   H14   1.082354 S    
C12   C24   1.380767 A    
C37   C42   1.401631 A    
C58   C60   1.404995 A    
C57   C59   1.405487 A    
C9    N9    1.319242 A    
N7    Ni4   1.834530 S    
C53   C66   1.477145 S    
C3    C19   1.393333 A    
C24   C39   1.475765 S    
C8    C24   1.400906 A    
C38   C40   1.390893 A    
C33   H27   1.082647 S    
C37   C39   1.409682 A    
C43   H34   1.086414 S    
C1    C17   1.388694 A    
H32   C45   1.085927 S    
C2    C18   1.383852 A    
N1    N15   1.394858 A    
C11   C23   1.381296 A    
C56   C58   1.401751 A    
H19   C35   1.082528 S    
C58   N18   1.437307 S    
C12   H12   1.065423 S    
C30   C41   1.471846 S    
N4    N14   1.394860 A    
C2    H2    1.080505 S    
C63   C65   1.412923 A    
C10   C22   1.387291 A    
C13   C19   1.391911 A    
C40   C42   1.408071 A    
C4    N4    1.332075 A    
C18   C48   1.464036 S    
C50   C60   1.399562 A    
C15   C17   1.390914 A    
C49   C59   1.395845 A    
C16   C18   1.377549 A    
C19   C43   1.462453 S    
N3    N13   1.394857 A    
C31   H25   1.082522 S    
N5    Ni3   1.876133 S    
N4    Ni1   1.848633 S    
C47   C67   1.337097 D    
C34   H28   1.079386 S    
C8    H8    1.078640 S    
C10   N10   1.332491 A    
C55   C57   1.399777 A    
C5    H5    1.073203 S    
C61   C66   1.365021 A    
N17   O1    1.299366 A    
C54   C65   1.468354 S    
N20   O8    1.300542 A    
C67   C68   1.460867 S    
H35   C59   1.078504 S    
C4    C20   1.382699 A    
N18   O4    1.301370 A    
C62   H44   1.085159 S    
C50   C52   1.395706 A    
N6    Ni4   1.876134 S    
C3    H3    1.079786 S    
C52   C54   1.398817 A    
N15   Ni3   1.834152 S    
N2    N16   1.394859 A    
N16   Ni4   1.834152 S    
C10   H10   1.080150 S    
C32   C34   1.395035 A    
C29   C42   1.480764 S    
C32   H26   1.083193 S    
N18   O3    1.301374 A    
C64   C66   1.411379 A    
C54   C56   1.403546 A    
N19   O5    1.300435 A    
C43   C45   1.334598 D    
C14   C20   1.392141 A    
C5    N5    1.329431 A    
C9    H9    1.081983 S    
N7    N11   1.370772 A    
C25   H21   1.082887 S    
N1    Ni1   1.858023 S    
N8    N12   1.370770 A    
N11   Ni1   1.848441 S    
C21   C63   1.447113 S    
H17   C48   1.087730 S    
C13   N13   1.339998 A    
C33   C35   1.398100 A    
N19   O6    1.299930 A    
C20   C44   1.465643 S    
C26   C28   1.396997 A    
C14   N14   1.343733 A    
N8    Ni3   1.834530 S    
C25   C27   1.398024 A    
N13   Ni4   1.875573 S    
C56   H42   1.083706 S    
C62   C65   1.386311 A    
C14   N20   1.433670 S    
C11   N11   1.338873 A    
C52   H40   1.083065 S    
H16   C67   1.084810 S    
C61   H43   1.083549 S    
C26   C36   1.397294 A    
N9    Ni2   1.859270 S    
C4    H4    1.079554 S    
H15   C68   1.085188 S    
C13   N19   1.424586 S    
C23   C40   1.471464 S    
N17   O2    1.300360 A    
C15   N15   1.344789 A    
N20   O7    1.297884 A    
C28   H24   1.083191 S    
C1    H1    1.078196 S    
C31   C33   1.399487 A    
H31   C46   1.084809 S    
C53   C55   1.400435 A    
