data_mof_unit_38584.cif
_audit_creation_date              2012-12-10T17:22:08-0500
_audit_creation_method            fapswitch 2.2
_symmetry_space_group_name_H-M    P1
_symmetry_Int_Tables_number       1
_space_group_crystal_system       triclinic
_cell_length_a                    15.898532
_cell_length_b                    10.853997
_cell_length_c                    9.684759
_cell_angle_alpha                 87.992789
_cell_angle_beta                  87.880457
_cell_angle_gamma                 98.828444
_cell_volume                      1648.89490399

loop_
_atom_site_label
_atom_site_type_symbol
_atom_type_description
_atom_site_fract_x
_atom_site_fract_y
_atom_site_fract_z
_atom_type_partial_charge
C1    C     C_R   0.508090 0.264360 0.502606 0.892492
C2    C     C_3   0.931582 0.341999 0.532714 0.019720
C3    C     C_3   0.913569 0.478437 0.496350 -0.260234
C4    C     C_3   0.949699 0.563928 0.616237 0.045660
C5    C     C_3   0.050000 0.581461 0.613222 0.492399
C6    C     C_1   0.822157 0.484526 0.491978 0.209920
C7    C     C_1   0.173674 0.488546 0.510717 0.198930
C8    C     C_1   0.249918 0.494243 0.507515 -0.027993
C9    C     C_R   0.498096 0.098079 0.767448 0.340304
C10   C     C_R   0.446184 0.030242 0.873168 0.364710
C11   C     C_R   0.401053 0.912778 0.848046 0.353772
C12   C     C_R   0.340235 0.498700 0.502304 0.822465
C13   C     C_R   0.413559 0.859938 0.721589 -0.213016
C14   C     C_R   0.465905 0.927482 0.614949 -0.075527
C15   C     C_R   0.495311 0.054973 0.630742 -0.088113
C16   C     C_R   0.520384 0.131923 0.509707 -0.211394
C17   C     C_R   0.539766 0.076292 0.385874 0.379598
C18   C     C_R   0.519139 0.947597 0.374683 0.403540
C19   C     C_R   0.488463 0.871211 0.492664 -0.186554
C20   C     C_R   0.640983 0.658385 0.116449 0.308850
C21   C     C_R   0.708366 0.716286 0.024677 0.336374
C22   C     C_R   0.697166 0.721645 0.883965 0.266377
C23   C     C_R   0.494446 0.736652 0.497617 0.851544
C24   C     C_R   0.623743 0.658140 0.834527 -0.235834
C25   C     C_R   0.563087 0.576920 0.916731 0.048399
C26   C     C_R   0.566172 0.577525 0.065802 0.032681
C27   C     C_R   0.440403 0.424213 0.082880 0.447558
C28   C     C_R   0.437874 0.424651 0.934671 0.415269
C29   C     C_R   0.659239 0.498762 0.497844 0.846172
C30   C     C_3   0.031294 0.337360 0.532043 0.468573
C31   C     C_3   0.057772 0.526886 0.362358 -0.443959
C32   C     C_3   0.960368 0.531390 0.355359 0.625729
C33   C     C_1   0.747752 0.492075 0.493025 0.042835
C34   C     C_3   0.080488 0.481165 0.510499 -0.249098
Cu1   Cu    Cu3+1 0.499990 0.499990 0.640660 1.071558
Cu2   Cu    Cu3+1 0.500010 0.500010 0.359340 1.139103
H1    H     H_    0.907918 0.325167 0.640775 0.211492
H2    H     H_    0.929576 0.656679 0.598998 0.232069
H3    H     H_    0.380176 0.767166 0.706041 0.198513
H4    H     H_    0.617077 0.674672 0.728009 0.248757
H5    H     H_    0.095221 0.618725 0.329991 0.262373
H6    H     H_    0.081147 0.472280 0.279977 0.266417
N1    N     N_R   0.500800 0.501210 0.147910 -0.223302
N2    N     N_R   0.500820 0.501290 0.852040 -0.231463
O1    O     O_R   0.499990 0.319640 0.618810 -0.507690
O2    O     O_R   0.500000 0.319660 0.381240 -0.509465
O3    O     O_R   0.379430 0.499990 0.618840 -0.534388
O4    O     O_R   0.379440 0.500020 0.381260 -0.527150
O5    O     O_R   0.500000 0.680340 0.618760 -0.625196
O6    O     O_R   0.500010 0.680360 0.381190 -0.499056
O7    O     O_R   0.620560 0.499980 0.618740 -0.585699
O8    O     O_R   0.620570 0.500010 0.381160 -0.533287
S1    S     S_3+6 0.861206 0.210234 0.465415 0.170388
O9    O     O_2   0.873415 0.197539 0.312594 -0.067389
O10   O     O_2   0.876875 0.091603 0.537647 -0.151731
O11   O     O_3   0.758485 0.223102 0.499299 -0.503198
H7    H     H_    0.750205 0.211794 0.601103 0.377720
S2    S     S_3+6 0.053802 0.259534 0.695249 0.121830
O12   O     O_2   0.033230 0.120175 0.688085 -0.165452
O13   O     O_2   0.146510 0.290928 0.723867 -0.219983
O14   O     O_3   0.994059 0.297079 0.829832 -0.443043
H8    H     H_    0.008008 0.245150 0.909428 0.433868
Cl1   Cl    Cl    0.599433 0.165493 0.248134 -0.336999
Cl2   Cl    Cl    0.583985 0.209703 0.816944 -0.459623
Cl3   Cl    Cl    0.437699 0.092701 0.036557 -0.358956
Cl4   Cl    Cl    0.334510 0.824906 0.977037 -0.382509
Cl5   Cl    Cl    0.521349 0.888956 0.206782 -0.418938
Cl6   Cl    Cl    0.366000 0.323102 0.189907 -0.411525
S3    S     S_3+6 0.067325 0.237438 0.396057 0.138279
O15   O     O_2   0.035059 0.101518 0.427356 -0.108851
O16   O     O_2   0.038801 0.267147 0.254386 -0.212299
O17   O     O_3   0.174286 0.253861 0.388674 -0.510028
H9    H     H_    0.188507 0.194251 0.319616 0.423347
Cl7   Cl    Cl    0.657146 0.724635 0.278618 -0.435610
Cl8   Cl    Cl    0.805609 0.795364 0.085992 -0.220449
S4    S     S_3+6 0.769601 0.819239 0.767241 0.124499
O18   O     O_2   0.750349 0.791091 0.619750 -0.265742
O19   O     O_2   0.760713 0.952801 0.791184 -0.181332
O20   O     O_3   0.870516 0.799160 0.794632 -0.401538
H10   H     H_    0.906134 0.860729 0.730527 0.418811
S5    S     S_3+6 0.341616 0.342552 0.864821 0.120186
O21   O     O_2   0.295813 0.239022 0.959016 -0.162178
O22   O     O_2   0.282754 0.436911 0.847342 -0.244823
O23   O     O_3   0.354292 0.275556 0.713878 -0.525942
H11   H     H_    0.298680 0.224412 0.697705 0.396020
Cl9   Cl    Cl    0.918253 0.450489 0.209124 -0.315251
Cl10  Cl    Cl    0.943545 0.689200 0.317964 -0.352174
S6    S     S_3+6 0.098234 0.600369 0.782031 0.202096
O24   O     O_2   0.047198 0.675921 0.870104 -0.079658
O25   O     O_2   0.105539 0.482678 0.862174 -0.150710
O26   O     O_3   0.196569 0.684134 0.760963 -0.436711
H12   H     H_    0.235041 0.623656 0.739239 0.353665
Cl11  Cl    Cl    0.086193 0.739652 0.544155 -0.446693
Cl12  Cl    Cl    0.897367 0.514621 0.782427 -0.387106

loop_
_geom_bond_atom_site_label_1
_geom_bond_atom_site_label_2
_ccdc_geom_bond_type
C31   H6    S    
C9    Cl2   S    
Cu1   Cu2   S    
S4    O20   S    
C22   S4    S    
C12   O4    A    
C3    C6    S    
Cu1   O3    S    
C30   S3    S    
S5    O21   D    
C7    C8    T    
S1    O9    D    
S4    O19   D    
C1    O2    A    
C23   O5    A    
S2    O13   D    
C15   C16   A    
C29   C33   S    
O11   H7    S    
C18   C19   A    
S3    O16   D    
C27   Cl6   S    
C5    S6    S    
O23   H11   S    
C10   Cl3   S    
C16   C17   A    
Cu1   O5    S    
Cu2   O2    S    
C9    C10   A    
O14   H8    S    
Cu2   O8    S    
C11   Cl4   S    
S2    O14   S    
C13   C14   A    
S3    O15   D    
C12   O3    A    
C25   N2    A    
S5    O22   D    
C26   N1    A    
S1    O10   D    
C30   C34   S    
C24   C25   A    
C18   Cl5   S    
O26   H12   S    
C4    C5    S    
C23   O6    A    
S2    O12   D    
C32   Cl10  S    
C28   N2    A    
S3    O17   S    
C19   C23   S    
C31   C32   S    
S6    O26   S    
C8    C12   S    
C32   Cl9   S    
C5    C34   S    
C20   C21   A    
C17   C18   A    
C31   C34   S    
C20   Cl7   S    
C1    C16   S    
S4    O18   D    
Cu1   N2    S    
C4    Cl12  S    
S6    O25   D    
Cu1   O7    S    
C7    C34   S    
C22   C24   A    
C3    C4    S    
Cu1   O1    S    
S5    O23   S    
Cu2   O6    S    
C29   O7    A    
S1    O11   S    
C31   H5    S    
C28   S5    S    
C14   C19   A    
C4    H2    S    
O17   H9    S    
C2    S1    S    
C5    Cl11  S    
C21   Cl8   S    
C6    C33   T    
C2    C30   S    
C2    C3    S    
C25   C26   A    
C17   Cl1   S    
C11   C13   A    
C2    H1    S    
C1    O1    A    
C20   C26   A    
C30   S2    S    
C24   H4    S    
Cu2   O4    S    
C9    C15   A    
C3    C32   S    
C13   H3    S    
C10   C11   A    
O20   H10   S    
C27   N1    A    
S6    O24   D    
C27   C28   A    
C14   C15   A    
Cu2   N1    S    
C21   C22   A    
C29   O8    A    
