data_mof_unit_59840.cif
_audit_creation_date              2012-12-11T14:58:22-0500
_audit_creation_method            fapswitch 2.2
_symmetry_space_group_name_H-M    P1
_symmetry_Int_Tables_number       1
_space_group_crystal_system       triclinic
_cell_length_a                    10.936824
_cell_length_b                    10.888352
_cell_length_c                    18.774253
_cell_angle_alpha                 90.010484
_cell_angle_beta                  90.496563
_cell_angle_gamma                 60.195045
_cell_volume                      1939.88358815

loop_
_atom_site_label
_atom_site_type_symbol
_atom_type_description
_atom_site_fract_x
_atom_site_fract_y
_atom_site_fract_z
_atom_type_partial_charge
C1    C     C_R   0.357903 0.774907 0.397815 0.541897
C2    C     C_R   0.610185 0.123954 0.166061 0.051938
C3    C     C_R   0.353630 0.327225 0.164284 0.017708
C4    C     C_R   0.480828 0.241604 0.274475 -0.142225
C5    C     C_R   0.480222 0.235423 0.201131 -0.023683
C6    C     C_R   0.052969 0.702043 0.292461 0.044732
C7    C     C_R   0.935981 0.803900 0.330234 -0.140056
C8    C     C_R   0.671479 0.981952 0.188575 -0.104407
C9    C     C_R   0.786647 0.875450 0.152510 -0.131313
C10   C     C_R   0.235836 0.428943 0.201843 -0.080944
C11   C     C_R   0.239617 0.440954 0.275377 0.005763
C12   C     C_R   0.386402 0.354770 0.387667 0.545210
C13   C     C_R   0.884260 0.765499 0.388558 -0.131176
C14   C     C_R   0.945464 0.624011 0.408620 -0.099460
C15   C     C_R   0.054171 0.519606 0.368440 -0.088812
C16   C     C_R   0.113274 0.556254 0.311559 0.053513
C17   C     C_R   0.362847 0.341606 0.312356 0.004344
C18   C     C_R   0.840426 0.234948 0.293924 -0.146846
C19   C     C_R   0.856876 0.225833 0.220856 -0.151688
C20   C     C_R   0.854752 0.337971 0.182847 0.026290
C21   C     C_R   0.828239 0.461704 0.217717 -0.146616
C22   C     C_R   0.813658 0.469923 0.290215 -0.151986
C23   C     C_R   0.774832 0.380855 0.402033 0.551425
C24   C     C_R   0.820571 0.356494 0.329025 0.027678
C25   C     C_R   0.448739 0.758708 0.277305 -0.093939
C26   C     C_R   0.430672 0.803510 0.206728 -0.077258
C27   C     C_R   0.309510 0.928924 0.186774 0.048925
C28   C     C_R   0.214099 0.014829 0.238651 -0.153554
C29   C     C_R   0.230017 0.968296 0.309094 -0.138673
C30   C     C_R   0.345982 0.838035 0.328009 0.048053
C31   C     C_R   0.364813 0.205391 0.693291 -0.127918
C32   C     C_R   0.349612 0.191447 0.765041 -0.127623
C33   C     C_R   0.299008 0.309914 0.809986 0.025358
C34   C     C_R   0.345404 0.768580 0.604826 0.541180
C35   C     C_R   0.253748 0.444382 0.782620 -0.171426
C36   C     C_R   0.268832 0.458549 0.710533 -0.137145
C37   C     C_R   0.327581 0.338278 0.666310 0.061323
C38   C     C_R   0.926026 0.380890 0.705010 0.009631
C39   C     C_R   0.955595 0.366974 0.777678 -0.161346
C40   C     C_R   0.920104 0.284750 0.820651 0.015277
C41   C     C_R   0.860440 0.209308 0.789992 -0.143707
C42   C     C_R   0.823813 0.227750 0.718000 -0.163796
C43   C     C_R   0.849172 0.319473 0.675869 0.039967
C44   C     C_R   0.194324 0.856300 0.710071 -0.140266
C45   C     C_R   0.370335 0.351212 0.595995 0.568267
C46   C     C_R   0.182598 0.867803 0.783225 -0.141201
C47   C     C_R   0.298903 0.844653 0.825117 0.028596
C48   C     C_R   0.428142 0.806415 0.793204 -0.145834
C49   C     C_R   0.440375 0.793486 0.719916 -0.145064
C50   C     C_R   0.323756 0.817035 0.677986 0.027722
C51   C     C_R   0.909545 0.315813 0.111567 0.542158
C52   C     C_R   0.328301 0.293808 0.092620 0.534316
C53   C     C_R   0.272609 0.963726 0.111931 0.564203
C54   C     C_R   0.947919 0.280918 0.896998 0.577024
C55   C     C_R   0.293679 0.286745 0.884738 0.541257
C56   C     C_R   0.770764 0.372440 0.608621 0.582813
C57   C     C_R   0.275122 0.893808 0.897981 0.550449
C58   C     C_R   0.841043 0.908988 0.093348 -0.113463
C59   C     C_R   0.780913 0.049351 0.070431 -0.094743
C60   C     C_R   0.667862 0.157025 0.107335 -0.062158
Cr1   Cr    Cr6+3 0.601770 0.606860 0.505860 1.016986
Cr2   Cr    Cr6+3 0.291380 0.601660 0.495070 1.047706
Cr3   Cr    Cr6+3 0.606880 0.291510 0.499120 1.011534
Cr4   Cr    Cr6+3 0.062440 0.063090 0.008210 0.981734
Cr5   Cr    Cr6+3 0.062880 0.375170 0.998920 0.999491
Cr6   Cr    Cr6+3 0.374700 0.061720 0.992470 1.018867
H1    H     H_    0.578338 0.169502 0.301825 0.138655
H2    H     H_    0.797252 0.845892 0.418638 0.113916
H3    H     H_    0.907746 0.595062 0.455133 0.173266
H4    H     H_    0.096898 0.409747 0.383761 0.112038
H5    H     H_    0.842230 0.148174 0.322833 0.116931
H6    H     H_    0.881485 0.127354 0.195275 0.136045
H7    H     H_    0.824379 0.550320 0.189545 0.125365
H8    H     H_    0.789863 0.568845 0.315013 0.143483
H9    H     H_    0.537070 0.656759 0.291383 0.126235
H10   H     H_    0.505867 0.736155 0.167269 0.131328
H11   H     H_    0.125697 0.115557 0.223798 0.112429
H12   H     H_    0.833112 0.766656 0.170101 0.103679
H13   H     H_    0.151188 0.031570 0.348054 0.111989
H14   H     H_    0.410108 0.112577 0.659583 0.123754
H15   H     H_    0.380456 0.087259 0.785890 0.142861
H16   H     H_    0.212448 0.536078 0.817001 0.122818
H17   H     H_    0.241029 0.562275 0.690061 0.144238
H18   H     H_    0.005780 0.421664 0.801192 0.122480
H19   H     H_    0.834753 0.142895 0.822200 0.132487
H20   H     H_    0.766670 0.178163 0.696672 0.136997
H21   H     H_    0.103265 0.873518 0.678887 0.133210
H22   H     H_    0.887153 0.914703 0.315974 0.084405
H23   H     H_    0.080767 0.900608 0.806564 0.130827
H24   H     H_    0.518313 0.790652 0.824736 0.131497
H25   H     H_    0.542257 0.760369 0.696521 0.137608
H26   H     H_    0.929499 0.826135 0.065127 0.122187
H27   H     H_    0.821768 0.074653 0.023903 0.150763
H28   H     H_    0.622533 0.265444 0.089008 0.116425
H29   H     H_    0.628250 0.953148 0.233053 0.106300
H30   H     H_    0.137700 0.498255 0.174189 0.143857
O1    O     O_R   0.748800 0.497470 0.428000 -0.536967
O2    O     O_R   0.300070 0.471040 0.567100 -0.490747
O3    O     O_R   0.491670 0.258900 0.574910 -0.528052
O4    O     O_R   0.718780 0.304180 0.577850 -0.513711
O5    O     O_3   0.500010 0.500010 0.500020 -0.254904
O6    O     O_R   0.186690 0.923650 0.086970 -0.489917
O7    O     O_R   0.957250 0.194250 0.084630 -0.534858
O8    O     O_R   0.934970 0.407490 0.085330 -0.521432
O9    O     O_R   0.203780 0.365190 0.067090 -0.510727
O10   O     O_R   0.417600 0.174890 0.067840 -0.508980
O11   O     O_R   0.375320 0.946260 0.070860 -0.497098
O12   O     O_R   0.476420 0.724060 0.429470 -0.514032
O13   O     O_R   0.160600 0.919630 0.926660 -0.531998
O14   O     O_R   0.933060 0.190520 0.936020 -0.522351
O15   O     O_R   0.908880 0.403460 0.925020 -0.509848
O16   O     O_R   0.179600 0.361450 0.918490 -0.523744
O17   O     O_R   0.391510 0.170860 0.907530 -0.518873
O18   O     O_R   0.351130 0.942530 0.922260 -0.504809
O19   O     O_3   0.166667 0.166667 0.999870 -0.291566
O20   O     O_R   0.264580 0.744340 0.416750 -0.495253
O21   O     O_R   0.309380 0.472470 0.418200 -0.482353
O22   O     O_R   0.501710 0.260430 0.414300 -0.534634
O23   O     O_R   0.728090 0.305600 0.428960 -0.504576
O24   O     O_R   0.738760 0.495930 0.588610 -0.485654
O25   O     O_R   0.467110 0.722640 0.578360 -0.511781
O26   O     O_R   0.254530 0.742800 0.577360 -0.529343
C61   C     C_2   0.974194 0.463138 0.662414 0.238194
H31   H     H_    0.984667 0.547412 0.687296 0.091303
O27   O     O_2   0.008120 0.433996 0.600232 -0.510395
C62   C     C_2   0.109342 0.755974 0.236399 0.216452
H32   H     H_    0.045298 0.863419 0.216682 0.112590
O28   O     O_2   0.228399 0.685271 0.213548 -0.503013

loop_
_geom_bond_atom_site_label_1
_geom_bond_atom_site_label_2
_ccdc_geom_bond_type
C33   C55   S    
Cr4   O7    S    
C62   H32   S    
Cr6   O17   S    
C55   O16   A    
C56   O24   A    
C41   C42   A    
C35   C36   A    
Cr6   O11   S    
Cr3   O5    S    
C31   H14   S    
C46   H23   S    
Cr4   O6    S    
C32   H15   S    
C28   C29   A    
C26   C27   A    
Cr3   O4    S    
C18   C24   A    
C36   C37   A    
Cr6   O10   S    
C39   H18   S    
C18   C19   A    
C20   C51   S    
C45   O2    A    
C23   O23   A    
C38   C39   A    
C2    C60   A    
C61   O27   D    
C36   H17   S    
C51   O7    A    
C15   C16   A    
C21   H7    S    
C18   H5    S    
C54   O14   A    
Cr1   O25   S    
C9    C58   A    
Cr1   O12   S    
Cr5   O15   S    
Cr2   O21   S    
Cr3   O3    S    
Cr2   O2    S    
C57   O13   A    
C19   C20   A    
C8    C9    A    
C12   C17   S    
C26   H10   S    
C23   C24   S    
C42   H20   S    
C1    O20   A    
C44   H21   S    
C38   C61   S    
Cr2   O5    S    
C52   O10   A    
C59   C60   A    
C34   O26   A    
Cr4   O19   S    
C48   H24   S    
C21   C22   A    
Cr1   O24   S    
Cr5   O19   S    
C19   H6    S    
C8    H29   S    
C49   H25   S    
Cr5   O9    S    
C35   H16   S    
C44   C46   A    
Cr1   O1    S    
C34   C50   S    
Cr6   O19   S    
C47   C48   A    
C61   H31   S    
C6    C62   S    
C45   O3    A    
C39   C40   A    
Cr3   O22   S    
C55   O17   A    
C51   O8    A    
C31   C37   A    
C25   H9    S    
Cr1   O5    S    
Cr5   O16   S    
Cr2   O20   S    
C29   C30   A    
C47   C57   S    
Cr3   O23   S    
C11   C16   S    
C53   O11   A    
Cr4   O14   S    
C7    H22   S    
C29   H13   S    
C10   H30   S    
C53   O6    A    
C28   H11   S    
C57   O18   A    
C12   O22   A    
C4    C17   A    
C40   C41   A    
C23   O1    A    
C52   O9    A    
C34   O25   A    
C40   C54   S    
C14   H3    S    
C22   C24   A    
C58   C59   A    
C2    C5    S    
C42   C43   A    
C22   H8    S    
C37   C45   S    
Cr2   O26   S    
C44   C50   A    
C25   C30   A    
C15   H4    S    
C46   C47   A    
C11   C17   A    
C62   O28   D    
Cr6   O18   S    
C31   C32   A    
C2    C8    A    
C4    C5    A    
C3    C5    A    
C4    H1    S    
C3    C52   S    
C27   C53   S    
C6    C7    A    
C41   H19   S    
C32   C33   A    
C25   C26   A    
C38   C43   A    
C3    C10   A    
Cr4   O13   S    
C48   C49   A    
C1    C30   S    
C33   C35   A    
C54   O15   A    
C9    H12   S    
C10   C11   A    
C1    O12   A    
C6    C16   A    
C12   O21   A    
C43   C56   S    
C7    C13   A    
C20   C21   A    
C49   C50   A    
C27   C28   A    
C56   O4    A    
C14   C15   A    
C59   H27   S    
Cr5   O8    S    
C13   C14   A    
C58   H26   S    
C13   H2    S    
C60   H28   S    
