data_mof_unit_65167.cif
_audit_creation_date              2012-10-26T19:16:13-0400
_audit_creation_method            fapswitch 2.2
_symmetry_space_group_name_H-M    P1
_symmetry_Int_Tables_number       1
_space_group_crystal_system       triclinic
_cell_length_a                    14.759881
_cell_length_b                    15.649556
_cell_length_c                    16.014481
_cell_angle_alpha                 89.921598
_cell_angle_beta                  89.935214
_cell_angle_gamma                 69.355304
_cell_volume                      3461.57075088

loop_
_atom_site_label
_atom_site_type_symbol
_atom_type_description
_atom_site_fract_x
_atom_site_fract_y
_atom_site_fract_z
_atom_type_partial_charge
C1    C     C_R   0.500015 0.500022 0.340925 0.556096
C2    C     C_R   0.499988 0.500128 0.087436 -0.020219
C3    C     C_R   0.420677 0.491561 0.956446 0.138152
C4    C     C_R   0.579134 0.508799 0.043569 0.138066
C5    C     C_1   0.499802 0.500177 0.822886 -0.060391
C6    C     C_1   0.500065 0.500078 0.177124 -0.062111
C7    C     C_1   0.500079 0.500048 0.252027 0.001324
C8    C     C_1   0.499849 0.500101 0.747980 0.002508
C9    C     C_R   0.936606 0.541194 0.565647 0.115949
C10   C     C_R   0.063290 0.459181 0.433624 0.077295
C11   C     C_R   0.902788 0.500179 0.500023 -0.003354
C12   C     C_R   0.499970 0.500012 0.659075 0.561529
C13   C     C_R   0.097112 0.500052 0.499491 -0.019133
C14   C     C_R   0.966802 0.459082 0.434030 0.087007
C15   C     C_R   0.032663 0.541222 0.565565 0.092235
C16   C     C_R   0.559233 0.325979 0.498325 0.573387
C17   C     C_R   0.440828 0.673903 0.497640 0.572054
C18   C     C_1   0.802610 0.500054 0.500008 0.231368
C19   C     C_1   0.197377 0.500001 0.499703 0.192247
C20   C     C_R   0.598058 0.225042 0.488998 -0.009544
C21   C     C_R   0.402359 0.774472 0.486279 -0.011870
C22   C     C_R   0.722902 0.081608 0.444948 0.121816
C23   C     C_R   0.612944 0.897525 0.452779 0.111087
C24   C     C_R   0.281414 0.916178 0.434185 0.121511
C25   C     C_R   0.691139 0.177512 0.454587 0.048491
C26   C     C_R   0.312066 0.820744 0.446877 0.045095
C27   C     C_R   0.538140 0.175435 0.509127 0.101920
C28   C     C_R   0.460779 0.824553 0.508861 0.100334
C29   C     C_R   0.559999 0.086306 0.478073 -0.003285
C30   C     C_R   0.441675 0.912514 0.475750 -0.005240
C31   C     C_R   0.656961 0.034825 0.456672 0.060913
C32   C     C_R   0.346662 0.963217 0.448371 0.060446
C33   C     C_R   0.487503 0.047099 0.468593 0.033777
C34   C     C_R   0.391343 0.100121 0.444868 0.104923
C35   C     C_R   0.514920 0.951334 0.469998 0.034022
C36   C     C_R   0.683379 0.939213 0.444878 0.128267
C37   C     C_R   0.321616 0.058217 0.433456 0.125956
C38   C     C_R   0.579032 0.508894 0.956161 0.135955
C39   C     C_R   0.420749 0.491526 0.043855 0.135263
C40   C     C_R   0.499822 0.500233 0.912578 -0.019193
Cu1   Cu    Cu3+1 0.589210 0.500030 0.500000 1.079977
Cu2   Cu    Cu3+1 0.410790 0.499970 0.500000 1.071210
H1    H     H_    0.807998 0.834698 0.472845 0.250324
H2    H     H_    0.658159 0.794908 0.367538 0.230085
H3    H     H_    0.307748 0.235059 0.452357 0.268823
H4    H     H_    0.353709 0.199298 0.355926 0.250031
H5    H     H_    0.690444 0.460215 0.125031 0.245542
H6    H     H_    0.635572 0.575348 0.125082 0.238933
H7    H     H_    0.309410 0.540000 0.874927 0.241743
H8    H     H_    0.364335 0.424872 0.874992 0.246171
H9    H     H_    0.635172 0.575730 0.874367 0.254376
H10   H     H_    0.690176 0.460614 0.874381 0.246756
H11   H     H_    0.364496 0.424796 0.125659 0.248836
H12   H     H_    0.783978 0.851120 0.368722 0.237615
H13   H     H_    0.309616 0.539925 0.125632 0.251502
H14   H     H_    0.123505 0.534874 0.661860 0.244921
H15   H     H_    0.085738 0.635408 0.609296 0.248464
H16   H     H_    0.938967 0.449075 0.311363 0.266691
H17   H     H_    0.977134 0.348336 0.364108 0.274456
H18   H     H_    0.195038 0.164115 0.451768 0.250201
H19   H     H_    0.228512 0.142718 0.349783 0.249798
H20   H     H_    0.831621 0.055408 0.359717 0.262951
H21   H     H_    0.868125 0.045099 0.461600 0.263926
H22   H     H_    0.179024 0.939152 0.343619 0.263813
H23   H     H_    0.135251 0.953497 0.443390 0.263495
H24   H     H_    0.696097 0.762977 0.466676 0.258695
I1    I     I_    0.556553 0.781398 0.614081 -0.272860
I2    I     I_    0.433695 0.221401 0.608321 -0.308334
I3    I     I_    0.217945 0.751993 0.403142 -0.336062
I4    I     I_    0.788486 0.244526 0.414191 -0.330655
I5    I     I_    0.842993 0.603934 0.666829 -0.250153
I6    I     I_    0.157895 0.397654 0.332361 -0.398918
N1    N     N_1   0.276700 0.500030 0.499980 -0.157281
N2    N     N_3   0.339407 0.482700 0.913114 -0.550708
N3    N     N_3   0.660199 0.517864 0.912540 -0.544378
N4    N     N_3   0.339535 0.482658 0.087479 -0.544058
N5    N     N_3   0.063747 0.583743 0.633509 -0.566799
N6    N     N_3   0.932901 0.417144 0.367376 -0.589635
N7    N     N_1   0.723300 0.499970 0.500020 -0.155289
N8    N     N_3   0.781714 0.883755 0.425971 -0.565745
N9    N     N_3   0.225396 0.112839 0.407594 -0.565776
N10   N     N_3   0.820604 0.032715 0.418964 -0.553013
N11   N     N_3   0.185834 0.964161 0.402857 -0.553050
N12   N     N_3   0.637754 0.803014 0.430372 -0.606414
N13   N     N_3   0.368809 0.193632 0.419854 -0.597256
N14   N     N_3   0.660450 0.517566 0.086901 -0.553291
O1    O     O_R   0.575310 0.500040 0.380310 -0.488486
O2    O     O_R   0.424690 0.499960 0.619690 -0.493358
O3    O     O_R   0.424640 0.500000 0.380310 -0.472801
O4    O     O_R   0.575360 0.500000 0.619690 -0.478265
O5    O     O_R   0.617590 0.370200 0.500000 -0.469394
O6    O     O_R   0.382410 0.629800 0.500000 -0.472804
O7    O     O_R   0.466910 0.370160 0.500000 -0.461939
O8    O     O_R   0.533090 0.629840 0.500000 -0.467264

loop_
_geom_bond_atom_site_label_1
_geom_bond_atom_site_label_2
_ccdc_geom_bond_type
C1    O1    A    
C30   C32   A    
C21   C26   A    
C11   C18   S    
C27   C29   A    
C34   C37   A    
Cu1   Cu2   S    
C2    C4    A    
H10   N3    S    
C16   O7    A    
C30   C35   A    
C22   N10   S    
C12   O4    A    
C24   N11   S    
C24   C26   A    
H8    N2    S    
C11   C14   A    
H23   N11   S    
C4    N14   S    
C20   C25   A    
Cu2   O7    S    
C29   C33   A    
C3    N2    S    
C27   I2    S    
C2    C39   A    
C18   N7    T    
C22   C25   A    
C31   C36   A    
C16   C20   S    
H4    N13   S    
Cu1   O4    S    
H20   N10   S    
C3    C39   A    
C37   N9    S    
C2    C6    S    
C17   O6    A    
H17   N6    S    
H12   N8    S    
C38   N3    S    
Cu1   O1    S    
C22   C31   A    
C12   O2    A    
H21   N10   S    
H5    N14   S    
H15   N5    S    
C19   N1    T    
C28   I1    S    
C36   N8    S    
C13   C19   S    
C23   N12   S    
H1    N8    S    
C32   C37   A    
C17   C21   S    
H14   N5    S    
C34   N13   S    
H3    N13   S    
C24   C32   A    
H22   N11   S    
H18   N9    S    
Cu1   O8    S    
C8    C12   S    
C33   C34   A    
C39   N4    S    
C9    C11   A    
H13   N4    S    
Cu1   O5    S    
C21   C28   A    
C4    C38   A    
C3    C40   A    
C23   C35   A    
C13   C15   A    
C10   C14   A    
H6    N14   S    
H11   N4    S    
Cu2   O2    S    
Cu2   N1    S    
C1    O3    A    
C1    C7    S    
C9    I5    S    
H9    N3    S    
H2    N12   S    
C10   C13   A    
Cu1   N7    S    
C5    C8    T    
C6    C7    T    
C25   I4    S    
C20   C27   A    
Cu2   O3    S    
C28   C30   A    
C9    C15   A    
C29   C31   A    
H19   N9    S    
C38   C40   A    
C15   N5    S    
C33   C35   A    
Cu2   O6    S    
C14   N6    S    
H16   N6    S    
H24   N12   S    
C16   O5    A    
C23   C36   A    
C5    C40   S    
C26   I3    S    
H7    N2    S    
C17   O8    A    
C10   I6    S    
