data_mof_unit_44451.cif
_audit_creation_date              2012-12-11T16:12:50-0500
_audit_creation_method            fapswitch 2.2
_symmetry_space_group_name_H-M    P1
_symmetry_Int_Tables_number       1
_space_group_crystal_system       orthorhombic
_cell_length_a                    6.965801
_cell_length_b                    21.318953
_cell_length_c                    23.598274
_cell_angle_alpha                 90.0
_cell_angle_beta                  90.0
_cell_angle_gamma                 90.0
_cell_volume                      3504.4282682

loop_
_atom_site_label
_atom_site_type_symbol
_atom_type_description
_atom_site_fract_x
_atom_site_fract_y
_atom_site_fract_z
_atom_type_partial_charge
O1    O     O_R   0.615270 0.806540 0.192260 -0.533027
O2    O     O_R   0.384730 0.193460 0.807740 -0.533027
O3    O     O_R   0.384730 0.193460 0.692260 -0.533027
O4    O     O_R   0.615270 0.806540 0.307740 -0.533027
O5    O     O_R   0.115270 0.693460 0.307740 -0.533027
O6    O     O_R   0.884730 0.306540 0.692260 -0.533027
O7    O     O_R   0.884730 0.306540 0.807740 -0.533027
O8    O     O_R   0.115270 0.693460 0.192260 -0.533027
O9    O     O_R   0.285500 0.813970 0.307340 -0.537232
O10   O     O_R   0.714500 0.186030 0.692660 -0.537232
O11   O     O_R   0.714500 0.186030 0.807340 -0.537232
O12   O     O_R   0.285500 0.813970 0.192660 -0.537232
O13   O     O_R   0.785500 0.686030 0.192660 -0.537232
O14   O     O_R   0.214500 0.313970 0.807340 -0.537232
O15   O     O_R   0.214500 0.313970 0.692660 -0.537232
O16   O     O_R   0.785500 0.686030 0.307340 -0.537232
C1    C     C_R   0.454312 0.829121 0.326725 0.721678
C2    C     C_R   0.545688 0.170879 0.673275 0.721678
C3    C     C_R   0.545688 0.170879 0.826725 0.721678
C4    C     C_R   0.454312 0.829121 0.173275 0.721678
C5    C     C_R   0.954312 0.670879 0.173275 0.721678
C6    C     C_R   0.045688 0.329121 0.826725 0.721678
C7    C     C_R   0.045688 0.329121 0.673275 0.721678
C8    C     C_R   0.954312 0.670879 0.326725 0.721678
O17   O     O_3   0.448760 0.710460 0.250000 -0.368082
O18   O     O_3   0.551240 0.289540 0.750000 -0.368082
O19   O     O_3   0.948760 0.789540 0.250000 -0.368082
O20   O     O_3   0.051240 0.210460 0.750000 -0.368082
V1    V     V_3+5 0.173900 0.757330 0.250000 1.460725
V2    V     V_3+5 0.826100 0.242670 0.750000 1.460725
V3    V     V_3+5 0.673900 0.742670 0.250000 1.460725
V4    V     V_3+5 0.326100 0.257330 0.750000 1.460725
C9    C     C_3   0.047858 0.530580 0.548303 -0.263823
C10   C     C_3   0.952142 0.469419 0.451697 -0.263821
C11   C     C_3   0.952142 0.469419 0.048303 -0.263821
C12   C     C_3   0.047858 0.530580 0.951697 -0.263822
C13   C     C_3   0.547860 0.969419 0.951697 -0.263831
C14   C     C_3   0.452140 0.030581 0.048302 -0.263821
C15   C     C_3   0.452142 0.030581 0.451697 -0.263822
C16   C     C_3   0.547858 0.969419 0.548303 -0.263821
C17   C     C_3   0.863633 0.543144 0.512481 -0.221609
C18   C     C_3   0.136367 0.456856 0.487519 -0.221607
C19   C     C_3   0.136367 0.456856 0.012481 -0.221609
C20   C     C_3   0.863633 0.543144 0.987519 -0.221610
C21   C     C_3   0.363635 0.956855 0.987518 -0.221606
C22   C     C_3   0.636365 0.043144 0.012482 -0.221600
C23   C     C_3   0.636367 0.043144 0.487519 -0.221609
C24   C     C_3   0.363633 0.956856 0.512481 -0.221608
H1    H     H_    0.750991 0.578176 0.522550 0.143689
H2    H     H_    0.249009 0.421824 0.477450 0.143689
H3    H     H_    0.249009 0.421824 0.022550 0.143689
H4    H     H_    0.750990 0.578175 0.977450 0.143689
H5    H     H_    0.250993 0.921824 0.977449 0.143687
H6    H     H_    0.749007 0.078176 0.022551 0.143688
H7    H     H_    0.749009 0.078175 0.477450 0.143689
H8    H     H_    0.250991 0.921824 0.522550 0.143689
H9    H     H_    0.091030 0.555705 0.587482 0.137063
H10   H     H_    0.908970 0.444295 0.412518 0.137064
H11   H     H_    0.908970 0.444295 0.087482 0.137063
H12   H     H_    0.091029 0.555705 0.912518 0.137063
H13   H     H_    0.591034 0.944295 0.912519 0.137062
H14   H     H_    0.408966 0.055705 0.087481 0.137064
H15   H     H_    0.408970 0.055705 0.412518 0.137063
H16   H     H_    0.591030 0.944295 0.587482 0.137063
C25   C     C_1   0.963996 0.625069 0.372177 -0.174248
C26   C     C_1   0.036004 0.374931 0.627822 -0.174247
C27   C     C_1   0.036004 0.374931 0.872177 -0.174248
C28   C     C_1   0.963996 0.625069 0.127823 -0.174248
C29   C     C_1   0.463996 0.874931 0.127823 -0.174248
C30   C     C_1   0.536004 0.125069 0.872177 -0.174247
C31   C     C_1   0.536004 0.125069 0.627822 -0.174247
C32   C     C_1   0.463996 0.874931 0.372177 -0.174248
C33   C     C_3   0.165155 0.528334 0.492894 0.414495
C34   C     C_3   0.834845 0.471666 0.507106 0.414495
C35   C     C_3   0.834845 0.471666 0.992894 0.414495
C36   C     C_3   0.165155 0.528334 0.007106 0.414494
C37   C     C_3   0.665156 0.971666 0.007106 0.414494
C38   C     C_3   0.334844 0.028334 0.992894 0.414497
C39   C     C_3   0.334845 0.028334 0.507106 0.414494
C40   C     C_3   0.665155 0.971666 0.492894 0.414494
C41   C     C_3   0.985173 0.541017 0.457500 0.093904
C42   C     C_3   0.014827 0.458983 0.542500 0.093903
C43   C     C_3   0.014827 0.458983 0.957500 0.093904
C44   C     C_3   0.985173 0.541017 0.042500 0.093903
C45   C     C_3   0.485173 0.958983 0.042500 0.093902
C46   C     C_3   0.514827 0.041017 0.957500 0.093904
C47   C     C_3   0.514827 0.041017 0.542500 0.093903
C48   C     C_3   0.485173 0.958983 0.457500 0.093904
C49   C     C_1   0.973161 0.587089 0.410504 0.029603
C50   C     C_1   0.026839 0.412911 0.589496 0.029603
C51   C     C_1   0.026839 0.412911 0.910504 0.029603
C52   C     C_1   0.973161 0.587089 0.089496 0.029603
C53   C     C_1   0.473161 0.912911 0.089496 0.029603
C54   C     C_1   0.526840 0.087089 0.910504 0.029603
C55   C     C_1   0.526839 0.087089 0.589496 0.029603
C56   C     C_1   0.473161 0.912911 0.410504 0.029603
O21   O     O_3   0.660135 0.440860 0.515490 -0.645590
H17   H     H_    0.583256 0.450128 0.481192 0.288775
O22   O     O_3   0.339865 0.559140 0.484510 -0.645590
H18   H     H_    0.416742 0.549873 0.518809 0.288773
O23   O     O_3   0.339865 0.559140 0.015490 -0.645590
H19   H     H_    0.416743 0.549872 0.981192 0.288774
O24   O     O_3   0.660135 0.440860 0.984510 -0.645590
H20   H     H_    0.583256 0.450128 0.018808 0.288774
O25   O     O_3   0.160134 0.059139 0.984509 -0.645589
H21   H     H_    0.083252 0.049869 0.018806 0.288780
O26   O     O_3   0.839866 0.940861 0.015491 -0.645591
H22   H     H_    0.916736 0.950121 0.981190 0.288772
O27   O     O_3   0.839865 0.940860 0.484510 -0.645590
H23   H     H_    0.916744 0.950128 0.518808 0.288775
O28   O     O_3   0.160135 0.059140 0.515490 -0.645590
H24   H     H_    0.083258 0.049873 0.481191 0.288774

loop_
_geom_bond_atom_site_label_1
_geom_bond_atom_site_label_2
_ccdc_geom_bond_type
O17   V3    S    
C48   C56   S    
O18   V4    S    
O23   H19   S    
O12   V1    S    
O19   V1    S    
C19   C43   S    
O28   H24   S    
C18   C42   S    
C24   H8    S    
C19   H3    S    
C36   C44   S    
C39   C47   S    
O21   H17   S    
O15   V4    S    
C26   C50   T    
O16   V3    S    
C25   C49   T    
O11   C3    A    
C24   C39   S    
C38   O25   S    
O8    V1    S    
C15   C48   S    
C7    C26   S    
C11   H11   S    
C30   C54   T    
C46   C54   S    
C29   C53   T    
C31   C55   T    
C16   C40   S    
C12   C43   S    
O1    V3    S    
O3    C2    A    
O2    V4    S    
C17   H1    S    
C16   C24   S    
C12   C36   S    
C17   C34   S    
C45   C53   S    
C36   O23   S    
O11   V2    S    
C10   C18   S    
O1    C4    A    
C47   C55   S    
C40   O27   S    
O26   H22   S    
C24   C48   S    
C21   C38   S    
C10   C41   S    
C11   C19   S    
C9    C42   S    
O9    V1    S    
C41   C49   S    
C38   C46   S    
O15   C7    A    
C23   H7    S    
C37   C45   S    
O16   C8    A    
O7    V2    S    
C35   O24   S    
O12   C4    A    
C23   C40   S    
C34   C42   S    
C33   C41   S    
C34   O21   S    
O5    V1    S    
O17   V1    S    
C14   C45   S    
O19   V3    S    
C13   C46   S    
C37   O26   S    
C14   C38   S    
C12   H12   S    
C13   C37   S    
C23   C47   S    
C20   C35   S    
C21   C45   S    
O10   V2    S    
O22   H18   S    
O20   V4    S    
C17   C41   S    
C22   H6    S    
C27   C51   T    
O8    C5    A    
O13   C5    A    
C8    C25   S    
C18   H2    S    
O4    C1    A    
O9    C1    A    
O6    V2    S    
C10   C34   S    
O18   V2    S    
C5    C28   S    
C4    C29   S    
C12   C20   S    
C13   C21   S    
C15   H15   S    
C16   C47   S    
C15   C23   S    
C9    C33   S    
C2    C31   S    
C33   O22   S    
C18   C33   S    
C9    H9    S    
O2    C3    A    
O13   V3    S    
C11   C35   S    
O14   V4    S    
C20   C44   S    
C16   H16   S    
C20   H4    S    
C22   C37   S    
C13   H13   S    
C11   C44   S    
O7    C6    A    
C43   C51   S    
O25   H21   S    
C42   C50   S    
C39   O28   S    
C9    C17   S    
O14   C6    A    
O20   V2    S    
C40   C48   S    
O27   H23   S    
C35   C43   S    
O5    C8    A    
O10   C2    A    
O6    C7    A    
C28   C52   T    
O3    V4    S    
C6    C27   S    
C14   C22   S    
O4    V3    S    
C21   H5    S    
C32   C56   T    
C1    C32   S    
O24   H20   S    
C10   H10   S    
C19   C36   S    
C3    C30   S    
C44   C52   S    
C14   H14   S    
C15   C39   S    
C22   C46   S    
