data_mof_unit_33846.cif
_audit_creation_date              2012-12-11T14:36:18-0500
_audit_creation_method            fapswitch 2.2
_symmetry_space_group_name_H-M    P1
_symmetry_Int_Tables_number       1
_space_group_crystal_system       triclinic
_cell_length_a                    13.579205
_cell_length_b                    13.541613
_cell_length_c                    27.507724
_cell_angle_alpha                 90.460155
_cell_angle_beta                  89.332288
_cell_angle_gamma                 60.145632
_cell_volume                      4386.12237513

loop_
_atom_site_label
_atom_site_type_symbol
_atom_type_description
_atom_site_fract_x
_atom_site_fract_y
_atom_site_fract_z
_atom_type_partial_charge
C1    C     C_R   0.618648 0.099813 0.570645 0.550073
C2    C     C_1   0.640065 0.718252 0.659935 0.056395
C3    C     C_2   0.861921 0.525915 0.703928 0.617072
C4    C     C_2   0.834137 0.700039 0.389377 0.627625
C5    C     C_2   0.979255 0.576075 0.307248 0.617769
C6    C     C_2   0.499368 0.643233 0.389029 0.585342
C7    C     C_2   0.146985 0.026760 0.391192 0.586732
C8    C     C_2   0.200701 0.326448 0.120830 0.688819
C9    C     C_2   0.722554 0.022228 0.111418 0.598363
C10   C     C_2   0.404103 0.042964 0.738047 0.564701
C11   C     C_3   0.117305 0.114003 0.741501 -0.076425
C12   C     C_R   0.597814 0.781781 0.569087 0.561430
C13   C     C_3   0.216073 0.056800 0.778251 -0.118625
C14   C     C_1   0.106300 0.197179 0.904017 0.079488
C15   C     C_1   0.229281 0.140184 0.617997 0.055795
C16   C     C_3   0.062978 0.223681 0.773559 0.080180
C17   C     C_3   0.160121 0.166881 0.809700 -0.010217
C18   C     C_3   0.127974 0.271462 0.744855 -0.146620
C19   C     C_3   0.183639 0.161200 0.713539 -0.028438
C20   C     C_1   0.624491 0.740821 0.617552 0.065712
C21   C     C_3   0.225072 0.214205 0.781513 0.027853
C22   C     C_3   0.280952 0.105363 0.749681 0.067299
C23   C     C_1   0.138331 0.177099 0.862279 0.062144
C24   C     C_R   0.277542 0.122136 0.569754 0.560047
C25   C     C_1   0.202370 0.152310 0.660543 0.034968
C26   C     C_3   0.690707 0.227227 0.736027 0.044881
C27   C     C_3   0.592014 0.274793 0.773674 0.208552
C28   C     C_1   0.694626 0.207271 0.902901 0.059633
C29   C     C_1   0.629846 0.125660 0.619952 0.060092
C30   C     C_3   0.766185 0.131872 0.771312 0.252852
C31   C     C_3   0.682345 0.571891 0.767296 -0.042387
C32   C     C_3   0.667366 0.179215 0.808783 -0.015151
C33   C     C_3   0.723756 0.055223 0.749787 0.245050
C34   C     C_3   0.648137 0.150428 0.715014 -0.056951
C35   C     C_3   0.625461 0.101258 0.787821 -0.115201
C36   C     C_R   0.622407 0.098762 0.431456 0.545775
C37   C     C_3   0.548600 0.197843 0.752257 -0.100559
C38   C     C_1   0.679148 0.194274 0.860853 0.063894
C39   C     C_1   0.637856 0.138042 0.662738 0.037136
C40   C     C_R   0.749804 0.683209 0.362007 0.021439
C41   C     C_R   0.763871 0.658687 0.311137 -0.030928
C42   C     C_3   0.679388 0.656674 0.806021 -0.049309
C43   C     C_R   0.767729 0.655592 0.208050 -0.014711
C44   C     C_R   0.863681 0.636476 0.234007 -0.095612
C45   C     C_R   0.865670 0.630105 0.284690 0.040730
C46   C     C_R   0.771506 0.648253 0.156873 0.217039
C47   C     C_R   0.684686 0.640361 0.132511 -0.007110
C48   C     C_R   0.604268 0.772444 0.431119 0.549397
C49   C     C_R   0.574774 0.673722 0.361168 0.031990
C50   C     C_R   0.575241 0.675049 0.310216 -0.067365
C51   C     C_R   0.669379 0.669455 0.285064 -0.016661
C52   C     C_R   0.482898 0.684425 0.283921 -0.089847
C53   C     C_3   0.577440 0.671792 0.744166 0.273301
C54   C     C_R   0.481268 0.690630 0.233626 0.215466
C55   C     C_R   0.576609 0.679533 0.208075 -0.001635
C56   C     C_R   0.671016 0.668953 0.233747 -0.020229
C57   C     C_R   0.583805 0.667925 0.157597 -0.135001
C58   C     C_R   0.648801 0.700895 0.385981 -0.029236
C59   C     C_R   0.191857 0.081824 0.357962 0.013889
C60   C     C_R   0.286830 0.117823 0.428701 0.596184
C61   C     C_R   0.172159 0.087412 0.307254 -0.045755
C62   C     C_R   0.133008 0.100517 0.205967 0.033784
C63   C     C_R   0.086200 0.050984 0.237065 0.285074
C64   C     C_3   0.654905 0.697097 0.712125 0.009604
C65   C     C_R   0.106072 0.045082 0.286711 -0.053727
C66   C     C_R   0.117362 0.106872 0.155608 0.233910
C67   C     C_R   0.124677 0.192694 0.129676 -0.041537
C68   C     C_R   0.288607 0.192672 0.346239 0.185413
C69   C     C_R   0.278238 0.188218 0.295977 -0.001236
C70   C     C_R   0.215869 0.140521 0.276483 -0.007681
C71   C     C_R   0.331225 0.229540 0.264578 -0.042416
C72   C     C_3   0.759660 0.599653 0.735050 0.067481
C73   C     C_R   0.310913 0.238812 0.215296 0.246080
C74   C     C_R   0.232794 0.209246 0.196047 -0.003336
C75   C     C_3   0.573795 0.755503 0.783387 -0.064888
C76   C     C_R   0.194023 0.149822 0.226142 -0.058875
C77   C     C_R   0.188259 0.240083 0.148865 0.012394
C78   C     C_R   0.250554 0.134326 0.377484 0.005647
C79   C     C_R   0.619965 0.227926 0.367482 -0.078971
C80   C     C_R   0.625727 0.248455 0.318128 0.029598
C81   C     C_R   0.637975 0.287633 0.219133 0.044708
C82   C     C_R   0.615825 0.373088 0.253727 -0.089601
C83   C     C_R   0.609609 0.353746 0.302976 -0.092773
C84   C     C_3   0.758521 0.682025 0.774500 -0.104917
C85   C     C_R   0.647421 0.306360 0.170342 -0.090842
C86   C     C_3   0.652933 0.780539 0.750828 -0.112045
C87   C     C_R   0.678316 0.218744 0.135956 0.028692
C88   C     C_R   0.657088 0.037146 0.347143 -0.077877
C89   C     C_R   0.662033 0.056456 0.298080 0.017720
C90   C     C_R   0.647507 0.161962 0.283266 0.060526
C91   C     C_R   0.679510 0.972442 0.263755 -0.102884
C92   C     C_R   0.686874 0.990854 0.214578 -0.063456
C93   C     C_R   0.678101 0.093677 0.198786 0.044665
C94   C     C_R   0.654438 0.181058 0.233650 0.073692
C95   C     C_R   0.691939 0.112275 0.149325 0.083864
C96   C     C_1   0.699377 0.606675 0.900171 0.032912
C97   C     C_1   0.690441 0.633081 0.858090 -0.007197
C98   C     C_R   0.637243 0.121860 0.381649 0.038770
C99   C     C_R   0.051524 0.235200 0.950582 0.562424
C100  C     C_R   0.712436 0.562114 0.948159 0.550238
C101  C     C_R   0.723486 0.225634 0.950801 0.559721
C102  C     C_R   0.051589 0.242207 0.087017 0.559642
C103  C     C_R   0.707337 0.576182 0.086203 0.553357
C104  C     C_R   0.718207 0.234529 0.089042 0.569200
C105  C     C_2   0.281956 0.271965 0.805369 0.579679
C106  C     C_2   0.940191 0.293562 0.786737 0.625783
C107  C     C_2   0.723904 0.289986 0.701001 0.673202
Cl1   Cl    Cl    0.504793 0.420333 0.791277 -0.499945
Cl2   Cl    Cl    0.455746 0.667794 0.723443 -0.430118
Cl3   Cl    Cl    0.816873 0.910826 0.731857 -0.519111
Cl4   Cl    Cl    0.910044 0.076529 0.787823 -0.515109
Cl5   Cl    Cl    0.885281 0.646662 0.123749 -0.464502
Cl6   Cl    Cl    0.358931 0.707201 0.204408 -0.469580
Cl7   Cl    Cl    0.111862 0.995126 0.123803 -0.389151
Cl8   Cl    Cl    0.984963 0.013262 0.218477 -0.469768
Cl9   Cl    Cl    0.395306 0.277926 0.180085 -0.551670
Cl10  Cl    Cl    0.345498 0.278000 0.368332 -0.591155
Cr1   Cr    Cr6+3 0.417550 0.169090 0.500530 1.121028
Cr2   Cr    Cr6+3 0.669180 0.913420 0.499920 1.094519
Cr3   Cr    Cr6+3 0.413260 0.917540 0.499520 1.117818
Cr4   Cr    Cr6+3 0.909170 0.177380 0.020380 1.152230
Cr5   Cr    Cr6+3 0.912710 0.429210 0.018220 1.135320
Cr6   Cr    Cr6+3 0.657170 0.432570 0.019030 1.098176
H1    H     H_    0.833313 0.686034 0.787858 0.204554
H2    H     H_    0.390727 0.254261 0.277677 0.203841
H3    H     H_    0.639254 0.387014 0.159507 0.131827
H4    H     H_    0.601529 0.293665 0.394635 0.155939
H5    H     H_    0.605016 0.454258 0.242630 0.128914
H6    H     H_    0.592924 0.420711 0.329147 0.150451
H7    H     H_    0.496703 0.817976 0.804057 0.178369
H8    H     H_    0.699168 0.923791 0.189415 0.169756
H9    H     H_    0.687857 0.892160 0.274979 0.126706
H10   H     H_    0.664994 0.957054 0.358602 0.141014
H11   H     H_    0.687628 0.489885 0.776089 0.215296
H12   H     H_    0.095618 0.358251 0.731132 0.211768
H13   H     H_    0.253710 0.968591 0.791881 0.171920
H14   H     H_    0.072780 0.073991 0.723625 0.220225
H15   H     H_    0.291878 0.414806 0.812911 0.389373
H16   H     H_    0.817806 0.362863 0.838923 0.329014
H17   H     H_    0.830355 0.278176 0.646604 0.364350
H18   H     H_    0.932659 0.406034 0.650989 0.333933
H19   H     H_    0.934250 0.659589 0.447934 0.349193
H20   H     H_    0.086804 0.461335 0.354734 0.379649
H21   H     H_    0.340297 0.682286 0.408601 0.370185
H22   H     H_    0.056412 0.040390 0.452030 0.350581
H23   H     H_    0.459737 0.225605 0.742491 0.192014
H24   H     H_    0.255284 0.364257 0.059018 0.363100
H25   H     H_    0.690733 0.981145 0.045078 0.355098
H26   H     H_    0.529021 0.988866 0.686868 0.326781
H27   H     H_    0.604039 0.048833 0.811636 0.212531
H28   H     H_    0.941863 0.615765 0.214860 0.229373
H29   H     H_    0.515180 0.667953 0.138014 0.215779
H30   H     H_    0.409402 0.689644 0.301851 0.219251
H31   H     H_    0.647745 0.862306 0.742590 0.210431
H32   H     H_    0.064804 0.010748 0.309171 0.196973
O1    O     O_R   0.301710 0.195650 0.554160 -0.492599
O2    O     O_R   0.635520 0.542770 0.964420 -0.489071
O3    O     O_R   0.665950 0.325030 0.970100 -0.486837
O4    O     O_R   0.522390 0.158990 0.550460 -0.493180
O5    O     O_R   0.816620 0.158530 0.074540 -0.456280
O6    O     O_R   0.004460 0.188870 0.069750 -0.453036
O7    O     O_R   0.025800 0.341780 0.072300 -0.474381
O8    O     O_R   0.807650 0.528950 0.067500 -0.441261
O9    O     O_R   0.633420 0.550490 0.071810 -0.519409
O10   O     O_R   0.664000 0.332180 0.069640 -0.494733
O11   O     O_3   0.826350 0.346390 0.019210 -0.303092
O12   O     O_R   0.658900 0.818120 0.449760 -0.485400
O13   O     O_R   0.694390 0.003530 0.554040 -0.488915
O14   O     O_R   0.657700 0.819660 0.549320 -0.490111
O15   O     O_R   0.501930 0.803280 0.552920 -0.479463
O16   O     O_R   0.318170 0.023580 0.549580 -0.484577
O17   O     O_R   0.303010 0.193990 0.446760 -0.436862
O18   O     O_R   0.523600 0.157450 0.450900 -0.459247
O19   O     O_R   0.695690 0.001860 0.446640 -0.493926
O20   O     O_2   0.355239 0.221285 0.835431 -0.485046
O21   O     O_R   0.249380 0.384185 0.793678 -0.648326
O22   O     O_2   0.871912 0.329095 0.754294 -0.497475
O23   O     O_R   0.503220 0.801620 0.445520 -0.473235
O24   O     O_R   0.903525 0.316967 0.835276 -0.696514
O25   O     O_2   0.665087 0.393066 0.697265 -0.415347
O26   O     O_R   0.819317 0.228365 0.670790 -0.648666
O27   O     O_2   0.944580 0.538944 0.705673 -0.495121
O28   O     O_R   0.858993 0.449637 0.670371 -0.648600
O29   O     O_2   0.863761 0.766482 0.374724 -0.494933
O30   O     O_R   0.878125 0.640773 0.432391 -0.635015
O31   O     O_2   0.050395 0.600520 0.293549 -0.417505
O32   O     O_R   0.006553 0.493165 0.342618 -0.662521
O33   O     O_2   0.541742 0.560611 0.415491 -0.502188
O34   O     O_R   0.319370 0.022040 0.450020 -0.483029
O35   O     O_R   0.381364 0.711602 0.387321 -0.641366
O36   O     O_2   0.169190 0.928709 0.383459 -0.460664
O37   O     O_R   0.081176 0.086909 0.431927 -0.675241
O38   O     O_2   0.163995 0.422462 0.137806 -0.394894
O39   O     O_R   0.252400 0.298210 0.074680 -0.639430
O40   O     O_2   0.803475 0.926758 0.116998 -0.415932
O41   O     O_R   0.661096 0.048591 0.068445 -0.666929
O42   O     O_2   0.469768 0.009662 0.771613 -0.568090
O43   O     O_R   0.443426 0.026652 0.689852 -0.708942
O44   O     O_3   0.499990 0.000010 0.499990 -0.301638
O45   O     O_R   0.818720 0.150820 0.967160 -0.481969
O46   O     O_R   0.006410 0.181720 0.970200 -0.486859
O47   O     O_R   0.027890 0.334070 0.964920 -0.487777
O48   O     O_R   0.809600 0.521790 0.967960 -0.486192

loop_
_geom_bond_atom_site_label_1
_geom_bond_atom_site_label_2
_ccdc_geom_bond_type
C61   C70   A    
C4    O30   S    
C55   C56   A    
C63   C65   A    
C36   O19   A    
C93   C94   A    
Cr5   O11   S    
C31   C42   S    
C46   Cl5   S    
C107  O25   D    
C34   C37   S    
C73   C74   A    
C54   C55   A    
C79   C98   A    
C67   C77   A    
C62   C76   A    
C48   O23   A    
C81   C82   A    
Cr1   O4    S    
C101  O45   A    
C14   C99   S    
C10   C22   S    
Cr4   O11   S    
C60   C78   S    
C42   C75   S    
C17   C23   S    
C73   Cl9   S    
C74   C76   A    
C12   C20   S    
C107  O26   S    
Cr2   O44   S    
C35   C37   S    
C84   C86   S    
C88   H10   S    
C83   H6    S    
C31   H11   S    
Cr2   O19   S    
C53   C64   S    
C15   C25   T    
C18   C21   S    
C57   H29   S    
C6    O33   D    
Cr3   O44   S    
H24   O39   S    
C18   C19   S    
C64   C86   S    
C69   C71   A    
C24   O16   A    
Cr3   O23   S    
C11   C19   S    
C104  O10   A    
C68   C69   A    
Cr6   O11   S    
C28   C101  S    
H25   O41   S    
C4    C40   S    
Cr1   O18   S    
C52   C54   A    
C16   C17   S    
C105  O21   S    
C87   C95   A    
C50   C52   A    
Cr1   O1    S    
C35   H27   S    
C32   C38   S    
C37   H23   S    
C89   C91   A    
C66   Cl7   S    
C9    C95   S    
C106  O22   D    
C75   H7    S    
C16   C106  S    
H26   O43   S    
C63   Cl8   S    
Cr6   O9    S    
C66   C67   A    
C9    O41   S    
C36   O18   A    
C93   C95   A    
C21   C22   S    
C99   O46   A    
C80   C90   A    
C7    O36   D    
C85   H3    S    
C53   C75   S    
C5    O31   D    
C104  O5    A    
C80   C83   A    
C19   C25   S    
Cr1   O44   S    
C10   O43   S    
C59   C78   A    
C7    C59   S    
C3    O27   D    
C14   C23   T    
C2    C64   S    
C33   C34   S    
C85   C87   A    
C68   C78   A    
C59   C61   A    
C44   H28   S    
C47   C103  S    
C62   C66   A    
C2    C20   T    
C34   C39   S    
C60   O17   A    
C32   C35   S    
C1    O4    A    
C19   C22   S    
C40   C58   A    
C42   C97   S    
C91   C92   A    
C71   C73   A    
C60   O34   A    
C12   O15   A    
C91   H9    S    
Cr6   O2    S    
C1    O13   A    
C52   H30   S    
C100  O2    A    
C5    C45   S    
C74   C77   A    
C4    O29   D    
C49   C58   A    
C79   C80   A    
H18   O28   S    
Cr5   O48   S    
C43   C44   A    
Cr4   O45   S    
C62   C63   A    
C68   Cl10  S    
C47   C57   A    
C11   C16   S    
C75   C86   S    
Cr1   O17   S    
C102  O7    A    
Cr4   O6    S    
C96   C97   T    
C92   H8    S    
C1    C29   S    
C50   C51   A    
C26   C27   S    
C42   C84   S    
C18   H12   S    
C15   C24   S    
C31   C53   S    
C8    O39   S    
C82   H5    S    
C72   C84   S    
Cr2   O14   S    
C16   C18   S    
C40   C41   A    
C101  O3    A    
C26   C30   S    
C100  O48   A    
C55   C57   A    
H22   O37   S    
H15   O21   S    
C8    C77   S    
C13   H13   S    
C54   Cl6   S    
C5    O32   S    
C70   C76   A    
C89   C90   A    
C10   O42   D    
Cr2   O12   S    
C106  O24   S    
C6    O35   S    
C44   C45   A    
C53   Cl2   S    
C29   C39   T    
H19   O30   S    
C79   H4    S    
C46   C47   A    
C31   C72   S    
Cr4   O5    S    
C30   C33   S    
C26   C34   S    
C27   C32   S    
H20   O32   S    
C51   C56   A    
C26   C107  S    
C48   C58   S    
C9    O40   D    
Cr3   O16   S    
C103  O9    A    
C12   O14   A    
Cr6   O3    S    
C84   H1    S    
C103  O8    A    
H17   O26   S    
Cr5   O7    S    
C13   C17   S    
C30   Cl4   S    
Cr5   O47   S    
C3    C72   S    
C11   H14   S    
Cr4   O46   S    
C88   C98   A    
C99   O47   A    
C8    O38   D    
Cr3   O34   S    
C30   C32   S    
C81   C94   A    
C11   C13   S    
Cr3   O15   S    
C48   O12   A    
H21   O35   S    
C27   Cl1   S    
C27   C37   S    
C102  O6    A    
C96   C100  S    
C90   C94   A    
C92   C93   A    
C33   C35   S    
C13   C22   S    
C64   C72   S    
C6    C49   S    
C86   H31   S    
C69   C70   A    
C7    O37   S    
C43   C46   A    
C81   C85   A    
H16   O24   S    
Cr5   O8    S    
C87   C104  S    
Cr6   O10   S    
C61   C65   A    
C43   C56   A    
C88   C89   A    
C65   H32   S    
C49   C50   A    
C105  O20   D    
C41   C45   A    
C71   H2    S    
C36   C98   S    
C33   Cl3   S    
C82   C83   A    
C28   C38   T    
C3    O28   S    
Cr2   O13   S    
C41   C51   A    
C21   C105  S    
C24   O1    A    
C67   C102  S    
C17   C21   S    
