data_mof_unit_13564.cif
_audit_creation_date              2012-12-11T15:57:54-0500
_audit_creation_method            fapswitch 2.2
_symmetry_space_group_name_H-M    P1
_symmetry_Int_Tables_number       1
_space_group_crystal_system       triclinic
_cell_length_a                    10.657032
_cell_length_b                    10.749843
_cell_length_c                    16.928277
_cell_angle_alpha                 99.490018
_cell_angle_beta                  99.432612
_cell_angle_gamma                 61.784563
_cell_volume                      1677.2421187

loop_
_atom_site_label
_atom_site_type_symbol
_atom_type_description
_atom_site_fract_x
_atom_site_fract_y
_atom_site_fract_z
_atom_type_partial_charge
C1    C     C_R   0.354243 0.775490 0.401218 0.570734
C2    C     C_2   0.253214 0.246385 0.792670 0.340855
C3    C     C_2   0.353630 0.155786 0.743454 -0.019658
C4    C     C_R   0.369233 0.346248 0.357374 0.540157
C5    C     C_2   0.348774 0.188889 0.661755 0.368763
C6    C     C_1   0.816535 0.342487 0.708824 0.042193
C7    C     C_1   0.842803 0.313847 0.776602 0.023508
C8    C     C_1   0.359239 0.761767 0.713797 0.014783
C9    C     C_1   0.326614 0.809411 0.780818 0.008555
C10   C     C_R   0.893393 0.308255 0.086246 0.540328
C11   C     C_R   0.319399 0.299865 0.119522 0.547313
C12   C     C_2   0.831852 0.333112 0.160257 -0.102777
C13   C     C_R   0.248765 0.971340 0.092866 0.605151
C14   C     C_R   0.884396 0.297284 0.858928 0.549902
C15   C     C_R   0.271032 0.244276 0.880148 0.574816
C16   C     C_R   0.696224 0.420973 0.394564 0.578062
C17   C     C_R   0.280981 0.880067 0.857431 0.551044
C18   C     C_R   0.381690 0.712728 0.631419 0.564438
C19   C     C_R   0.365978 0.345779 0.580573 0.578218
C20   C     C_R   0.773296 0.381141 0.629622 0.566370
C21   C     C_1   0.342949 0.336200 0.273926 0.034427
C22   C     C_1   0.331866 0.326657 0.202894 0.031276
C23   C     C_2   0.748322 0.278711 0.174463 -0.017337
C24   C     C_2   0.689226 0.418274 0.307394 -0.052623
C25   C     C_1   0.717283 0.181064 0.115042 0.338277
C26   C     C_1   0.657088 0.550064 0.277414 0.129937
C27   C     C_1   0.473358 0.959938 0.376647 0.249060
C28   C     C_1   0.478633 0.030203 0.769738 0.235112
C29   C     C_2   0.708884 0.299509 0.256902 0.340217
C30   C     C_2   0.329400 0.837712 0.326549 0.372184
C31   C     C_2   0.250837 0.984283 0.180499 0.396027
C32   C     C_2   0.369422 0.961262 0.231612 0.358970
C33   C     C_2   0.382164 0.924291 0.314154 -0.009616
C34   C     C_2   0.316297 0.321277 0.648228 0.415942
Cr1   Cr    Cr6+3 0.608020 0.610770 0.522990 1.112338
Cr2   Cr    Cr6+3 0.289390 0.599570 0.488050 1.110688
Cr3   Cr    Cr6+3 0.602610 0.289690 0.489020 1.138799
Cr4   Cr    Cr6+3 0.053780 0.052210 0.965970 1.097994
Cr5   Cr    Cr6+3 0.060060 0.372530 0.992430 1.114610
Cr6   Cr    Cr6+3 0.372600 0.061970 0.991430 1.108727
F1    F     F_    0.406874 0.078622 0.604275 -0.630796
F2    F     F_    0.125506 0.345373 0.760661 -0.588195
F3    F     F_    0.265765 0.433194 0.705589 -0.603489
F4    F     F_    0.711119 0.185765 0.283746 -0.548544
F5    F     F_    0.487687 0.952999 0.205604 -0.587679
F6    F     F_    0.125508 0.018090 0.209653 -0.598722
F7    F     F_    0.262354 0.786505 0.264288 -0.568991
H1    H     H_    0.869396 0.391721 0.207998 0.122227
N1    N     N_1   0.694863 0.101920 0.067179 -0.190987
N2    N     N_1   0.634037 0.653665 0.252724 -0.193862
N3    N     N_1   0.547243 0.986168 0.427081 -0.153130
N4    N     N_1   0.578891 0.929824 0.790383 -0.221466
O1    O     O_R   0.749250 0.499990 0.439200 -0.495331
O2    O     O_R   0.411120 0.181190 0.091480 -0.457360
O3    O     O_R   0.364220 0.944920 0.062310 -0.453203
O4    O     O_R   0.477870 0.725740 0.440280 -0.534570
O5    O     O_R   0.158740 0.906940 0.874970 -0.476851
O6    O     O_R   0.930920 0.176940 0.885610 -0.501794
O7    O     O_R   0.910730 0.394510 0.895320 -0.474600
O8    O     O_R   0.185840 0.361180 0.920280 -0.424450
O9    O     O_R   0.399210 0.173040 0.915160 -0.527227
O10   O     O_R   0.353170 0.937370 0.898860 -0.520938
O11   O     O_3   0.162150 0.162240 0.983280 -0.368658
O12   O     O_R   0.299400 0.468710 0.556310 -0.491986
O13   O     O_R   0.260770 0.742210 0.412610 -0.438182
O14   O     O_R   0.297990 0.466320 0.394220 -0.501415
O15   O     O_R   0.487720 0.253870 0.385870 -0.443724
O16   O     O_R   0.721940 0.304340 0.422320 -0.407306
O17   O     O_R   0.750770 0.502570 0.614050 -0.473004
O18   O     O_R   0.479280 0.728140 0.602370 -0.450327
O19   O     O_R   0.262290 0.744790 0.587460 -0.475381
O20   O     O_R   0.489240 0.256450 0.560730 -0.481191
O21   O     O_R   0.723350 0.306730 0.584410 -0.507023
O22   O     O_3   0.500010 0.500010 0.500020 -0.358963
O23   O     O_R   0.170650 0.915100 0.051290 -0.443246
O24   O     O_R   0.941960 0.184500 0.049060 -0.495084
O25   O     O_R   0.922640 0.402670 0.071640 -0.488672
O26   O     O_R   0.196880 0.368740 0.083740 -0.493643

loop_
_geom_bond_atom_site_label_1
_geom_bond_atom_site_label_2
_ccdc_geom_bond_type
C18   O18   A    
Cr3   O22   S    
Cr1   O22   S    
Cr1   O1    S    
C15   O8    A    
C12   H1    S    
Cr4   O24   S    
C27   C33   S    
C14   O7    A    
C12   C23   D    
Cr6   O11   S    
Cr5   O25   S    
C3    C28   S    
C1    O4    A    
C24   C26   S    
C26   N2    T    
Cr2   O14   S    
Cr3   O16   S    
Cr6   O10   S    
C32   F5    S    
C24   C29   D    
Cr3   O21   S    
Cr4   O6    S    
C10   O24   A    
C7    C14   S    
C13   O23   A    
Cr1   O18   S    
C8    C9    T    
C31   F6    S    
C1    O13   A    
C16   O16   A    
Cr2   O19   S    
C16   C24   S    
C21   C22   T    
C19   O20   A    
C10   O25   A    
C27   N3    T    
Cr4   O23   S    
C14   O6    A    
Cr5   O26   S    
C30   F7    S    
Cr2   O13   S    
C8    C18   S    
Cr6   O9    S    
C11   O26   A    
C17   O10   A    
Cr4   O5    S    
C31   C32   D    
C19   O12   A    
Cr6   O3    S    
Cr5   O7    S    
C5    C34   D    
C15   O9    A    
C2    C15   S    
C11   O2    A    
C10   C12   S    
C9    C17   S    
Cr6   O2    S    
C29   F4    S    
C20   O17   A    
C23   C29   S    
Cr5   O11   S    
Cr4   O11   S    
C18   O19   A    
C5    F1    S    
Cr2   O22   S    
C30   C33   D    
Cr1   O4    S    
C13   C31   S    
C34   F3    S    
C3    C5    S    
C19   C34   S    
C4    O15   A    
C6    C7    T    
C6    C20   S    
C11   C22   S    
C32   C33   S    
C2    C3    D    
C4    O14   A    
C4    C21   S    
C28   N4    T    
C2    F2    S    
Cr5   O8    S    
Cr3   O15   S    
C16   O1    A    
C1    C30   S    
C20   O21   A    
C23   C25   S    
C25   N1    T    
Cr1   O17   S    
Cr3   O20   S    
Cr2   O12   S    
C17   O5    A    
C13   O3    A    
