data_mof_unit_48853.cif
_audit_creation_date              2012-12-10T18:02:48-0500
_audit_creation_method            fapswitch 2.2
_symmetry_space_group_name_H-M    P1
_symmetry_Int_Tables_number       1
_space_group_crystal_system       triclinic
_cell_length_a                    10.821995
_cell_length_b                    9.489432
_cell_length_c                    27.798417
_cell_angle_alpha                 89.780778
_cell_angle_beta                  90.140785
_cell_angle_gamma                 89.849822
_cell_volume                      2854.70752511

loop_
_atom_site_label
_atom_site_type_symbol
_atom_type_description
_atom_site_fract_x
_atom_site_fract_y
_atom_site_fract_z
_atom_type_partial_charge
C1    C     C_R   0.261984 0.500108 0.499691 0.769936
C2    C     C_R   0.738012 0.499897 0.499767 0.769427
C3    C     C_R   0.516123 0.523313 0.102538 -0.133976
C4    C     C_R   0.488620 0.496893 0.899732 -0.138694
C5    C     C_R   0.421667 0.590913 0.128567 -0.076110
C6    C     C_R   0.579462 0.422541 0.874031 -0.094342
C7    C     C_R   0.334231 0.672275 0.104061 -0.277737
C8    C     C_R   0.660315 0.333199 0.898826 -0.235353
C9    C     C_R   0.617639 0.465512 0.127454 -0.176320
C10   C     C_R   0.393055 0.566521 0.874428 -0.179405
C11   C     C_R   0.506282 0.501991 0.354652 -0.306434
C12   C     C_R   0.497465 0.499993 0.646457 -0.317985
C13   C     C_R   0.399179 0.570523 0.976515 -0.121707
C14   C     C_R   0.603941 0.445291 0.025909 -0.079318
C15   C     C_R   0.587787 0.425147 0.975507 0.023204
C16   C     C_R   0.412164 0.587827 0.027100 -0.002499
C17   C     C_R   0.492868 0.499514 0.950754 -0.063589
C18   C     C_R   0.510323 0.517722 0.051695 -0.067143
C19   C     C_R   0.290826 0.610702 0.950750 0.415776
C20   C     C_R   0.715489 0.407569 0.050527 0.404749
C21   C     C_R   0.292956 0.622899 0.900435 0.393852
C22   C     C_R   0.722285 0.422405 0.101255 0.381260
C23   C     C_R   0.501186 0.500337 0.407496 0.885377
C24   C     C_R   0.499848 0.499830 0.592889 0.883605
C25   C     C_R   0.336639 0.681869 0.054130 0.537866
C26   C     C_R   0.656418 0.324362 0.948786 0.554516
C27   C     C_R   0.064200 0.371966 0.499415 -0.189432
C28   C     C_R   0.935775 0.628034 0.498454 -0.192515
C29   C     C_R   0.936441 0.371846 0.499500 -0.190647
C30   C     C_R   0.063539 0.628157 0.498441 -0.192031
C31   C     C_R   0.871789 0.499878 0.499224 -0.014379
C32   C     C_R   0.128195 0.500130 0.499146 -0.012636
C33   C     C_R   0.416153 0.075073 0.473040 0.001648
C34   C     C_R   0.583984 0.924956 0.526877 -0.011328
C35   C     C_R   0.584377 0.073961 0.526660 -0.018988
C36   C     C_R   0.416266 0.926032 0.472991 -0.006565
C37   C     C_R   0.422222 0.584138 0.178890 0.621150
C38   C     C_R   0.580945 0.430046 0.823755 0.642183
C39   C     C_R   0.614760 0.461830 0.178210 0.592925
C40   C     C_R   0.397137 0.569315 0.823652 0.587626
C41   C     C_R   0.577255 0.611495 0.280635 -0.290489
C42   C     C_R   0.506260 0.627466 0.722472 -0.266761
C43   C     C_R   0.575909 0.606698 0.330790 0.410886
C44   C     C_R   0.504833 0.628790 0.672136 0.401443
C45   C     C_R   0.441789 0.399913 0.327579 0.303924
C46   C     C_R   0.485560 0.372031 0.672705 0.313405
C47   C     C_R   0.449357 0.401876 0.277081 0.389968
C48   C     C_R   0.473254 0.375054 0.722961 0.392636
C49   C     C_R   0.514356 0.510220 0.253892 0.143222
C50   C     C_R   0.490244 0.501966 0.747927 0.113832
Cu1   Cu    Cu3+1 0.500000 0.640660 0.500000 0.972010
Cu2   Cu    Cu3+1 0.500000 0.359340 0.500000 0.971127
H1    H     H_    0.349201 0.131860 0.451409 0.137989
H2    H     H_    0.651004 0.868233 0.548487 0.137733
H3    H     H_    0.652325 0.129910 0.547747 0.112729
H4    H     H_    0.349414 0.870122 0.451323 0.120743
H5    H     H_    0.269349 0.737613 0.123600 0.199212
H6    H     H_    0.720425 0.261680 0.879504 0.201384
H7    H     H_    0.518817 0.725112 0.741922 0.189545
H8    H     H_    0.628100 0.693915 0.262350 0.178295
H9    H     H_    0.112559 0.271865 0.499756 0.147988
H10   H     H_    0.887404 0.728126 0.498008 0.149300
H11   H     H_    0.888598 0.271715 0.499946 0.148281
H12   H     H_    0.111385 0.728285 0.498015 0.146714
N1    N     N_R   0.516602 0.517647 0.202461 -0.425885
N2    N     N_R   0.490774 0.502861 0.799627 -0.433025
N3    N     N_R   0.500000 0.852070 0.500000 -0.158785
N4    N     N_R   0.500000 0.147930 0.500000 -0.157318
O1    O     O_R   0.319640 0.618740 0.500000 -0.603292
O2    O     O_R   0.680360 0.381260 0.500000 -0.601051
O3    O     O_R   0.680360 0.618740 0.500000 -0.588929
O4    O     O_R   0.319640 0.381260 0.500000 -0.591831
O5    O     O_R   0.500020 0.618770 0.430260 -0.544279
O6    O     O_R   0.499980 0.381230 0.569740 -0.540385
O7    O     O_R   0.499980 0.618770 0.569740 -0.540697
O8    O     O_R   0.500020 0.381230 0.430260 -0.547981
O9    O     O_2   0.329516 0.643687 0.204142 -0.547858
O10   O     O_2   0.671665 0.364695 0.799076 -0.527985
O11   O     O_2   0.307909 0.635956 0.798286 -0.514616
O12   O     O_2   0.707828 0.401179 0.203241 -0.509934
O13   O     O_3   0.374213 0.295590 0.350235 -0.561400
C51   C     C_3   0.252158 0.344583 0.356346 -0.247549
H13   H     H_    0.206738 0.365717 0.321070 0.193290
H14   H     H_    0.249096 0.440444 0.379285 0.128609
H15   H     H_    0.198183 0.261485 0.374928 0.169303
O14   O     O_3   0.478651 0.243817 0.649384 -0.552402
C52   C     C_3   0.595540 0.177908 0.652405 -0.217820
H16   H     H_    0.621586 0.153661 0.690278 0.204112
H17   H     H_    0.668323 0.243320 0.635062 0.133638
H18   H     H_    0.591581 0.076300 0.632995 0.173320
O15   O     O_3   0.386157 0.303918 0.249861 -0.587620
C53   C     C_3   0.458354 0.180095 0.246307 0.081855
H19   H     H_    0.446477 0.115149 0.279377 0.189156
H20   H     H_    0.558669 0.203272 0.241474 0.161224
C54   C     C_3   0.414694 0.095909 0.202728 -0.325513
H21   H     H_    0.315663 0.068048 0.207199 0.241260
H22   H     H_    0.424019 0.161839 0.169777 0.219811
C55   C     C_3   0.490136 0.961136 0.196501 -0.888834
H23   H     H_    0.589484 0.986453 0.191615 0.254571
H24   H     H_    0.457237 0.904009 0.164163 0.258024
H25   H     H_    0.479299 0.891643 0.228443 0.278058
O16   O     O_3   0.451453 0.251195 0.747938 -0.581563
C56   C     C_3   0.325532 0.244876 0.761530 0.081148
H26   H     H_    0.274888 0.179363 0.734951 0.161731
H27   H     H_    0.278826 0.349972 0.763016 0.152584
C57   C     C_3   0.316155 0.176147 0.811230 -0.341128
H28   H     H_    0.349542 0.065475 0.809274 0.223879
H29   H     H_    0.375638 0.233892 0.837073 0.221785
C58   C     C_3   0.183629 0.178149 0.829843 -0.914895
H30   H     H_    0.148976 0.288215 0.832193 0.282544
H31   H     H_    0.180701 0.130803 0.866392 0.239475
H32   H     H_    0.122567 0.116636 0.805626 0.264567
O17   O     O_3   0.519195 0.755813 0.648230 -0.565874
C59   C     C_3   0.406550 0.830869 0.650177 -0.240600
H33   H     H_    0.389619 0.872106 0.686975 0.174075
H34   H     H_    0.327051 0.765478 0.638010 0.150708
H35   H     H_    0.412195 0.922383 0.625365 0.194648
O18   O     O_3   0.639214 0.708471 0.356297 -0.546049
C60   C     C_3   0.760923 0.660124 0.364210 -0.261091
H36   H     H_    0.811238 0.646615 0.329647 0.162524
H37   H     H_    0.762217 0.559966 0.385218 0.137520
H38   H     H_    0.811164 0.740139 0.385631 0.183352
O19   O     O_3   0.188817 0.672386 0.876795 -0.514531
C61   C     C_3   0.186944 0.820667 0.879978 -0.187507
H39   H     H_    0.272831 0.867687 0.864945 0.137418
H40   H     H_    0.173152 0.856180 0.917675 0.175881
H41   H     H_    0.108080 0.860968 0.858350 0.190186
O20   O     O_3   0.833509 0.401204 0.124888 -0.549040
C62   C     C_3   0.896924 0.530902 0.126883 -0.228397
H42   H     H_    0.844219 0.610675 0.147795 0.159383
H43   H     H_    0.917466 0.572106 0.090225 0.161557
H44   H     H_    0.986539 0.513754 0.145487 0.198023
O21   O     O_3   0.178378 0.629170 0.973418 -0.518905
C63   C     C_3   0.126457 0.495725 0.982579 -0.239961
H45   H     H_    0.184006 0.433499 0.008242 0.125669
H46   H     H_    0.111988 0.435764 0.948677 0.164668
H47   H     H_    0.034852 0.511672 0.999416 0.224618
O22   O     O_3   0.822680 0.386289 0.023724 -0.583356
C64   C     C_3   0.891959 0.268168 0.039859 -0.150650
H48   H     H_    0.835124 0.187002 0.058582 0.169555
H49   H     H_    0.969682 0.302734 0.063027 0.168366
H50   H     H_    0.934445 0.216782 0.008139 0.180737
O23   O     O_3   0.270706 0.791046 0.033153 -0.529227
C65   C     C_3   0.353256 0.901134 0.021960 -0.354262
H51   H     H_    0.421656 0.868140 0.994369 0.149878
H52   H     H_    0.401537 0.939992 0.054744 0.155225
H53   H     H_    0.299649 0.990518 0.006653 0.185216
O24   O     O_3   0.710776 0.207889 0.970041 -0.562096
C66   C     C_3   0.617617 0.110532 0.982339 -0.385799
H54   H     H_    0.562225 0.079479 0.950275 0.161563
H55   H     H_    0.556180 0.152705 0.010923 0.155214
H56   H     H_    0.662212 0.013858 0.996818 0.198909

loop_
_geom_bond_atom_site_label_1
_geom_bond_atom_site_label_2
_ccdc_geom_bond_type
C52   H16   S    
C29   H11   S    
C30   H12   S    
C27   C29   A    
C8    C26   A    
C14   C18   A    
C54   H21   S    
C23   O8    A    
O20   C62   S    
C63   H47   S    
O13   C51   S    
C36   N3    A    
O19   C61   S    
C47   C49   A    
C34   N3    A    
C49   N1    S    
C36   H4    S    
C19   C21   A    
Cu1   O7    S    
C62   H42   S    
Cu2   O6    S    
C58   H31   S    
C64   H50   S    
C9    C22   A    
C5    C37   A    
O23   C65   S    
C9    C39   A    
C33   C36   A    
C3    C18   A    
C10   C40   A    
C34   C35   A    
C20   O22   S    
C11   C23   S    
O18   C60   S    
C27   H9    S    
C8    H6    S    
C52   H18   S    
C38   N2    A    
C37   N1    A    
C6    C38   A    
C11   C43   A    
Cu2   N4    S    
C62   H44   S    
C48   C50   A    
C40   N2    A    
C41   C43   A    
C25   O23   S    
C42   C44   A    
C23   O5    A    
C65   H53   S    
C41   C49   A    
Cu1   O3    S    
C59   H33   S    
C45   C47   A    
C10   C21   A    
C33   H1    S    
C46   C48   A    
C54   C55   S    
C1    O4    A    
C13   C19   A    
C35   H3    S    
Cu1   Cu2   S    
C14   C20   A    
Cu2   O2    S    
O24   C66   S    
C65   H52   S    
C58   H32   S    
O15   C53   S    
C5    C7    A    
O14   C52   S    
C15   C26   A    
C6    C8    A    
C38   O10   S    
C3    C5    A    
C37   O9    S    
C51   H13   S    
C53   C54   S    
C1    O1    A    
C2    C31   S    
C21   O19   S    
C63   H46   S    
C3    C9    A    
C22   O20   S    
C64   H48   S    
C48   O16   S    
Cu2   O4    S    
C53   H20   S    
C40   O11   S    
C56   H27   S    
Cu1   N3    S    
C26   O24   S    
C50   N2    S    
C60   H37   S    
C42   C50   A    
C61   H41   S    
C4    C17   A    
C12   C46   A    
C20   C22   A    
C44   O17   S    
C34   H2    S    
C55   H24   S    
C52   H17   S    
O21   C63   S    
C66   H56   S    
C4    C6    A    
C4    C10   A    
C2    O3    A    
C51   H15   S    
C61   H40   S    
O17   C59   S    
C60   H38   S    
C16   C25   A    
C15   C17   A    
C12   C24   S    
C27   C32   A    
C47   O15   S    
C28   C31   A    
C45   O13   S    
Cu1   O5    S    
C41   H8    S    
C65   H51   S    
Cu2   O8    S    
C42   H7    S    
C59   H34   S    
C60   H36   S    
C54   H22   S    
C24   O7    A    
C63   H45   S    
C19   O21   S    
C55   H25   S    
C39   N1    A    
C51   H14   S    
C7    C25   A    
C13   C17   A    
C39   O12   S    
C66   H55   S    
C29   C31   A    
C2    O2    A    
C66   H54   S    
C30   C32   A    
C64   H49   S    
C24   O6    A    
C57   H29   S    
C35   N4    A    
C28   C30   A    
C53   H19   S    
C56   C57   S    
C1    C32   S    
O16   C56   S    
C59   H35   S    
C11   C45   A    
O22   C64   S    
C43   O18   S    
C16   C18   A    
C55   H23   S    
C57   H28   S    
C13   C16   A    
C56   H26   S    
C14   C15   A    
C12   C44   A    
Cu1   O1    S    
C46   O14   S    
C58   H30   S    
C7    H5    S    
C33   N4    A    
C61   H39   S    
C62   H43   S    
C57   C58   S    
C28   H10   S    
