data_mof_unit_9417.cif
_audit_creation_date              2012-12-10T19:08:06-0500
_audit_creation_method            fapswitch 2.2
_symmetry_space_group_name_H-M    P1
_symmetry_Int_Tables_number       1
_space_group_crystal_system       triclinic
_cell_length_a                    9.09983
_cell_length_b                    10.907585
_cell_length_c                    9.589446
_cell_angle_alpha                 92.521083
_cell_angle_beta                  90.142828
_cell_angle_gamma                 90.528048
_cell_volume                      950.855614769

loop_
_atom_site_label
_atom_site_type_symbol
_atom_type_description
_atom_site_fract_x
_atom_site_fract_y
_atom_site_fract_z
_atom_type_partial_charge
C1    C     C_R   0.500005 0.262717 0.497298 0.797034
C2    C     C_R   0.459987 0.930825 0.379949 -0.236849
C3    C     C_R   0.491367 0.872318 0.504705 -0.139840
C4    C     C_R   0.534349 0.945285 0.622361 0.089681
C5    C     C_3   0.466904 0.961149 0.766493 0.427268
C6    C     C_3   0.486929 0.099638 0.755541 -0.517947
C7    C     C_R   0.622459 0.535863 0.076136 0.228321
C8    C     C_R   0.387170 0.449217 0.071253 -0.120629
C9    C     C_R   0.385814 0.451331 0.922938 -0.089270
C10   C     C_R   0.624044 0.531320 0.928150 0.207361
C11   C     C_3   0.702993 0.649561 0.921641 -0.521083
C12   C     C_R   0.220772 0.499923 0.499944 0.841972
C13   C     C_3   0.686157 0.662567 0.079392 -0.231079
C14   C     C_R   0.495508 0.737969 0.502510 0.795049
C15   C     C_R   0.779228 0.500418 0.500184 0.849041
C16   C     C_1   0.065519 0.500031 0.500185 -0.181265
C17   C     C_1   0.934460 0.500288 0.500407 -0.181192
C18   C     C_R   0.543916 0.071646 0.613782 0.027402
C19   C     C_R   0.506341 0.129907 0.493090 -0.077141
C20   C     C_R   0.467057 0.058480 0.373971 -0.236838
Cu1   Cu    Cu3+1 0.499990 0.499980 0.640670 0.935452
Cu2   Cu    Cu3+1 0.500010 0.500020 0.359330 0.931155
H1    H     H_    0.436042 0.101081 0.278497 0.158681
H2    H     H_    0.640164 0.714514 0.861526 0.267294
H3    H     H_    0.599850 0.728693 0.111294 0.161381
H4    H     H_    0.425690 0.877637 0.287906 0.149088
H5    H     H_    0.384283 0.153742 0.759820 0.166951
H6    H     H_    0.576017 0.142264 0.820970 0.211954
H7    H     H_    0.294868 0.408955 0.123980 0.140916
H8    H     H_    0.291776 0.413976 0.865962 0.139840
H9    H     H_    0.816258 0.634005 0.883510 0.175397
N1    N     N_R   0.500920 0.500930 0.147930 -0.196341
N2    N     N_R   0.500930 0.500890 0.852020 -0.181880
O1    O     O_R   0.500000 0.319640 0.618810 -0.580446
O2    O     O_R   0.500020 0.319680 0.381230 -0.585338
O3    O     O_R   0.288380 0.499980 0.618770 -0.588016
O4    O     O_R   0.288400 0.500020 0.381190 -0.593329
O5    O     O_R   0.499980 0.680320 0.618770 -0.574334
O6    O     O_R   0.500000 0.680360 0.381190 -0.598434
O7    O     O_R   0.711600 0.499980 0.618810 -0.583372
O8    O     O_R   0.711620 0.500020 0.381230 -0.568813
C21   C     C_R   0.827303 0.683633 0.160778 0.214891
C22   C     C_R   0.832676 0.778956 0.264348 -0.156520
C23   C     C_R   0.964828 0.811609 0.330520 -0.160362
C24   C     C_R   0.093192 0.749429 0.294562 -0.092506
C25   C     C_R   0.088884 0.653528 0.193411 -0.136462
C26   C     C_R   0.956240 0.618141 0.129174 -0.160209
H10   H     H_    0.735306 0.830704 0.291325 0.138657
H11   H     H_    0.968097 0.887080 0.407112 0.132726
H12   H     H_    0.195723 0.775338 0.345217 0.134108
H13   H     H_    0.188883 0.607769 0.163694 0.153396
H14   H     H_    0.955683 0.542897 0.051744 0.106985
C27   C     C_R   0.308711 0.911971 0.769215 0.056926
C28   C     C_R   0.195572 0.969160 0.695348 -0.204671
C29   C     C_R   0.053328 0.920653 0.692227 -0.129525
C30   C     C_R   0.022893 0.811014 0.755547 -0.096309
C31   C     C_R   0.133770 0.751277 0.826348 -0.131150
C32   C     C_R   0.275505 0.801891 0.834595 -0.095605
H15   H     H_    0.216467 0.050106 0.637167 0.133129
H16   H     H_    0.966974 0.967028 0.638140 0.128525
H17   H     H_    0.913590 0.772325 0.747041 0.137259
H18   H     H_    0.110557 0.664933 0.873388 0.124521
H19   H     H_    0.359739 0.752855 0.888492 0.150273
O9    O     O_3   0.561356 0.913491 0.867306 -0.607723
C33   C     C_3   0.539004 0.967163 0.002718 0.049099
H20   H     H_    0.489822 0.897266 0.067898 0.135344
H21   H     H_    0.461578 0.045729 0.008815 0.136270
C34   C     C_3   0.687570 0.008835 0.062452 -0.793898
H22   H     H_    0.729207 0.089258 0.007166 0.233729
H23   H     H_    0.678342 0.035024 0.174864 0.213111
H24   H     H_    0.768564 0.933927 0.048904 0.268190

loop_
_geom_bond_atom_site_label_1
_geom_bond_atom_site_label_2
_ccdc_geom_bond_type
C23   H11   S    
C7    C10   A    
C27   C32   A    
C26   H14   S    
C30   H17   S    
C14   O5    A    
C22   H10   S    
C28   C29   A    
C19   C20   A    
Cu1   O1    S    
C20   H1    S    
C29   C30   A    
C33   C34   S    
C4    C18   A    
O9    C33   S    
C2    C3    A    
C11   H9    S    
C31   H18   S    
C2    H4    S    
Cu1   O3    S    
C12   O4    A    
C27   C28   A    
C30   C31   A    
C9    N2    A    
Cu2   O2    S    
C11   C13   S    
C13   H3    S    
C31   C32   A    
C4    C5    S    
C3    C14   S    
Cu2   N1    S    
C24   H12   S    
C34   H24   S    
C12   C16   S    
C8    H7    S    
C9    H8    S    
Cu1   Cu2   S    
C13   C21   S    
C1    O1    A    
C33   H20   S    
C10   N2    A    
C28   H15   S    
C22   C23   A    
C5    C6    S    
C6    C18   S    
C15   O7    A    
C1    C19   S    
Cu2   O8    S    
C12   O3    A    
C21   C22   A    
Cu2   O6    S    
C2    C20   A    
C3    C4    A    
C8    N1    A    
C24   C25   A    
C11   H2    S    
C7    C13   S    
C21   C26   A    
Cu1   N2    S    
C23   C24   A    
C15   O8    A    
C34   H23   S    
C18   C19   A    
C10   C11   S    
C5    C27   S    
C32   H19   S    
C15   C17   S    
C1    O2    A    
C25   C26   A    
C16   C17   T    
C7    N1    A    
C14   O6    A    
C29   H16   S    
Cu2   O4    S    
C25   H13   S    
C34   H22   S    
C6    H6    S    
Cu1   O5    S    
C6    H5    S    
C5    O9    S    
C8    C9    A    
C33   H21   S    
Cu1   O7    S    
