data_mof_unit_7804.cif
_audit_creation_date              2012-12-10T18:10:21-0500
_audit_creation_method            fapswitch 2.2
_symmetry_space_group_name_H-M    P1
_symmetry_Int_Tables_number       1
_space_group_crystal_system       triclinic
_cell_length_a                    10.730034
_cell_length_b                    9.59601
_cell_length_c                    15.838836
_cell_angle_alpha                 90.499499
_cell_angle_beta                  91.853884
_cell_angle_gamma                 89.715695
_cell_volume                      1629.9204471

loop_
_atom_site_label
_atom_site_type_symbol
_atom_type_description
_atom_site_fract_x
_atom_site_fract_y
_atom_site_fract_z
_atom_type_partial_charge
C1    C     C_R   0.260124 0.500336 0.499940 0.729236
C2    C     C_3   0.612005 0.565495 0.953223 -0.512775
C3    C     C_3   0.613545 0.565182 0.051018 -0.405575
C4    C     C_1   0.494531 0.500110 0.824390 -0.100134
C5    C     C_1   0.495677 0.497602 0.175260 -0.102196
C6    C     C_1   0.497608 0.498291 0.250941 -0.203699
C7    C     C_3   0.070003 0.652210 0.498522 -0.382317
C8    C     C_3   0.075899 0.427810 0.580255 -0.381767
C9    C     C_3   0.927601 0.652219 0.500720 -0.376398
C10   C     C_3   0.931952 0.426073 0.579920 -0.381955
C11   C     C_3   0.068065 0.422385 0.420984 -0.393039
C12   C     C_3   0.121704 0.500808 0.500006 0.183107
C13   C     C_3   0.877691 0.500449 0.500314 0.173760
C14   C     C_R   0.499481 0.499488 0.340685 0.813198
C15   C     C_3   0.924121 0.424250 0.420432 -0.376882
C16   C     C_3   0.626412 0.081979 0.519555 -0.276467
C17   C     C_3   0.629088 0.917419 0.506773 -0.267016
C18   C     C_3   0.407220 0.077551 0.561494 0.183941
C19   C     C_3   0.434764 0.917485 0.576123 0.184680
C20   C     C_3   0.458388 0.083106 0.416361 0.126971
C21   C     C_3   0.446619 0.915284 0.419815 0.101804
C22   C     C_R   0.739512 0.499964 0.500279 0.747687
C23   C     C_R   0.499911 0.500510 0.659347 0.829490
C24   C     C_3   0.378584 0.579900 0.048398 -0.381079
C25   C     C_3   0.484815 0.345682 0.048683 -0.378805
C26   C     C_3   0.490118 0.343755 0.950599 0.054825
C27   C     C_3   0.379439 0.586982 0.950273 0.056735
C28   C     C_1   0.497532 0.501263 0.748892 -0.217631
C29   C     C_3   0.493395 0.497182 0.082966 0.266255
C30   C     C_3   0.490365 0.497109 0.916655 0.322907
Cu1   Cu    Cu3+1 0.499860 0.642410 0.500040 0.889284
Cu2   Cu    Cu3+1 0.499860 0.357590 0.500040 0.896083
H1    H     H_    0.888822 0.709799 0.444964 0.159896
H2    H     H_    0.899094 0.316268 0.581122 0.160692
H3    H     H_    0.101077 0.471661 0.362454 0.141269
H4    H     H_    0.101221 0.312440 0.420999 0.164272
H5    H     H_    0.887350 0.477644 0.362635 0.146344
H6    H     H_    0.889073 0.315252 0.418007 0.158635
H7    H     H_    0.659027 0.110753 0.584579 0.162067
H8    H     H_    0.688253 0.869385 0.557229 0.165463
H9    H     H_    0.694824 0.127530 0.476598 0.149281
H10   H     H_    0.679946 0.891832 0.448362 0.123784
H11   H     H_    0.532188 0.106898 0.370691 0.120019
H12   H     H_    0.503842 0.875937 0.367167 0.140065
H13   H     H_    0.313070 0.078781 0.530736 0.109459
H14   H     H_    0.344314 0.862638 0.581330 0.124182
H15   H     H_    0.291957 0.529953 0.070095 0.168324
H16   H     H_    0.397339 0.297418 0.070230 0.169001
H17   H     H_    0.563401 0.282300 0.075679 0.138646
H18   H     H_    0.379760 0.687657 0.075067 0.139587
H19   H     H_    0.581236 0.296021 0.934135 0.138979
H20   H     H_    0.398384 0.697304 0.933426 0.139880
H21   H     H_    0.621251 0.674134 0.075266 0.170037
H22   H     H_    0.697034 0.506964 0.075315 0.169511
H23   H     H_    0.619687 0.674638 0.930697 0.172288
H24   H     H_    0.695456 0.508466 0.930763 0.171307
H25   H     H_    0.097809 0.704364 0.439724 0.164329
H26   H     H_    0.111190 0.318692 0.582749 0.159048
H27   H     H_    0.108562 0.713278 0.553395 0.159780
H28   H     H_    0.112641 0.482999 0.637872 0.146265
H29   H     H_    0.897886 0.708705 0.558461 0.156384
H30   H     H_    0.898893 0.478845 0.637976 0.144362
N1    N     N_3   0.500250 0.143650 0.501830 -0.126879
N2    N     N_3   0.500250 0.856350 0.501830 -0.141444
O1    O     O_R   0.317570 0.620260 0.500050 -0.594326
O2    O     O_R   0.317570 0.379740 0.500050 -0.594180
O3    O     O_R   0.499890 0.620310 0.379470 -0.588507
O4    O     O_R   0.499890 0.379690 0.379470 -0.582807
O5    O     O_R   0.682190 0.620260 0.500020 -0.595733
O6    O     O_R   0.682190 0.379740 0.500020 -0.593413
O7    O     O_R   0.499870 0.620210 0.620600 -0.573629
O8    O     O_R   0.499870 0.379790 0.620600 -0.571160
C31   C     C_3   0.249709 0.555860 0.910018 -0.903524
H31   H     H_    0.207201 0.462116 0.936797 0.240918
H32   H     H_    0.185996 0.644462 0.923209 0.220924
H33   H     H_    0.253369 0.543889 0.840420 0.241793
C32   C     C_3   0.391017 0.245802 0.910242 -0.904195
H34   H     H_    0.298157 0.261790 0.936992 0.240783
H35   H     H_    0.383773 0.257658 0.840669 0.247590
H36   H     H_    0.418161 0.136019 0.923329 0.220340
C33   C     C_3   0.373634 0.153315 0.644313 -0.818918
H37   H     H_    0.455076 0.175941 0.686678 0.250757
H38   H     H_    0.317624 0.248513 0.632110 0.249376
H39   H     H_    0.310917 0.086126 0.680660 0.177753
C34   C     C_3   0.506678 0.896115 0.663593 -0.803626
H40   H     H_    0.581704 0.817886 0.664544 0.246488
H41   H     H_    0.559885 0.988698 0.684921 0.194700
H42   H     H_    0.440046 0.870138 0.713290 0.210228
C35   C     C_3   0.336895 0.148946 0.374951 -0.792733
H43   H     H_    0.249953 0.115034 0.404138 0.195797
H44   H     H_    0.327530 0.261506 0.373482 0.269996
H45   H     H_    0.331443 0.118351 0.307143 0.183701
C36   C     C_3   0.314614 0.858426 0.396340 -0.826850
H46   H     H_    0.248174 0.879707 0.446986 0.202868
H47   H     H_    0.276885 0.902298 0.336375 0.195096
H48   H     H_    0.315160 0.747286 0.379817 0.267432

loop_
_geom_bond_atom_site_label_1
_geom_bond_atom_site_label_2
_ccdc_geom_bond_type
C36   H46   S    
C31   H31   S    
C24   C27   S    
C20   H11   S    
C33   H37   S    
C19   H14   S    
Cu2   O8    S    
C32   H34   S    
Cu1   O3    S    
C9    H29   S    
C11   H4    S    
C2    H23   S    
C17   N2    S    
C5    C6    T    
C3    H22   S    
C18   N1    S    
C32   H36   S    
C18   C33   S    
C25   C29   S    
C7    C9    S    
C18   C19   S    
C3    C29   S    
C9    C13   S    
C17   H10   S    
C15   H5    S    
C21   N2    S    
C4    C28   T    
C24   C29   S    
C11   C15   S    
C16   C17   S    
C1    O1    A    
C14   O3    A    
C16   N1    S    
C35   H44   S    
C22   O5    A    
Cu2   O4    S    
C8    H26   S    
C34   H41   S    
C36   H47   S    
C27   C30   S    
C9    H1    S    
C31   H32   S    
C10   H30   S    
C1    C12   S    
Cu1   N2    S    
C7    H27   S    
C33   H38   S    
C5    C29   S    
C32   H35   S    
C24   H18   S    
C7    C12   S    
C26   C32   S    
C23   O7    A    
Cu2   O6    S    
C25   C26   S    
C34   H40   S    
C17   H8    S    
C15   H6    S    
C6    C14   S    
C21   H12   S    
Cu1   Cu2   S    
C19   N2    S    
C8    C12   S    
C1    O2    A    
C10   H2    S    
C23   C28   S    
C35   H45   S    
C25   H16   S    
C26   C30   S    
C36   H48   S    
C13   C15   S    
C31   H33   S    
C18   H13   S    
C33   H39   S    
C27   H20   S    
Cu2   O2    S    
C34   H42   S    
Cu1   O1    S    
C24   H15   S    
C23   O8    A    
Cu2   N1    S    
C19   C34   S    
C10   C13   S    
C11   C12   S    
C20   C35   S    
C2    C30   S    
C20   N1    S    
C11   H3    S    
C2    C3    S    
C2    H24   S    
C26   H19   S    
C8    H28   S    
C3    H21   S    
C21   C36   S    
Cu1   O7    S    
C22   O6    A    
C13   C22   S    
C25   H17   S    
C16   H7    S    
Cu1   O5    S    
C20   C21   S    
C8    C10   S    
C14   O4    A    
C35   H43   S    
C27   C31   S    
C16   H9    S    
C7    H25   S    
C4    C30   S    
