data_mof_unit_8805.cif
_audit_creation_date              2012-12-10T17:00:39-0500
_audit_creation_method            fapswitch 2.2
_symmetry_space_group_name_H-M    P1
_symmetry_Int_Tables_number       1
_space_group_crystal_system       triclinic
_cell_length_a                    27.790649
_cell_length_b                    10.909919
_cell_length_c                    9.707891
_cell_angle_alpha                 90.413766
_cell_angle_beta                  89.871177
_cell_angle_gamma                 90.712006
_cell_volume                      2943.06081152

loop_
_atom_site_label
_atom_site_type_symbol
_atom_type_description
_atom_site_fract_x
_atom_site_fract_y
_atom_site_fract_z
_atom_type_partial_charge
C1    C     C_R   0.499066 0.265227 0.498988 0.850069
C2    C     C_R   0.279091 0.435073 0.609828 -0.193737
C3    C     C_R   0.253171 0.491844 0.505343 0.234673
C4    C     C_R   0.101262 0.491297 0.519764 -0.132400
C5    C     C_R   0.125874 0.378939 0.515307 -0.171899
C6    C     C_R   0.099150 0.267721 0.521263 0.372983
C7    C     C_R   0.127458 0.602758 0.519208 0.023611
C8    C     C_R   0.354429 0.496306 0.500700 -0.177567
C9    C     C_R   0.645541 0.502676 0.499464 -0.102869
C10   C     C_R   0.973619 0.387674 0.486963 -0.014548
C11   C     C_R   0.975318 0.604294 0.556837 -0.098722
C12   C     C_R   0.407509 0.499463 0.500128 0.871050
C13   C     C_R   0.949034 0.497393 0.518253 -0.046700
C14   C     C_R   0.947864 0.290535 0.421482 0.434965
C15   C     C_R   0.897124 0.291455 0.416399 0.326617
C16   C     C_R   0.872114 0.395887 0.463405 -0.105840
C17   C     C_R   0.898193 0.500397 0.510187 -0.194833
C18   C     C_R   0.873424 0.608074 0.548558 -0.159533
C19   C     C_R   0.822729 0.607488 0.542066 0.574939
C20   C     C_R   0.821379 0.400292 0.461876 0.676712
C21   C     C_R   0.721187 0.501759 0.623840 -0.173090
C22   C     C_R   0.671063 0.500670 0.624162 -0.196978
C23   C     C_R   0.502285 0.734788 0.501004 0.757867
C24   C     C_R   0.671105 0.507022 0.374436 -0.289417
C25   C     C_R   0.721521 0.510662 0.373861 0.543358
C26   C     C_R   0.746562 0.505663 0.499229 0.239487
C27   C     C_R   0.023923 0.382094 0.512444 -0.036158
C28   C     C_R   0.050370 0.492829 0.523428 -0.000075
C29   C     C_R   0.026038 0.605405 0.538436 0.103148
C30   C     C_R   0.048312 0.270309 0.530837 0.355867
C31   C     C_R   0.102887 0.714047 0.520775 -0.154941
C32   C     C_R   0.949787 0.706392 0.609941 0.278181
C33   C     C_R   0.899732 0.711789 0.595923 0.489594
C34   C     C_R   0.592527 0.500610 0.499851 0.810880
C35   C     C_R   0.052982 0.715382 0.528778 -0.221372
C36   C     C_2   0.494296 0.931170 0.394727 -0.393372
C37   C     C_2   0.509936 0.867329 0.502859 0.300501
C38   C     C_2   0.503209 0.064087 0.384130 0.586752
C39   C     C_2   0.493983 0.133043 0.496651 -0.342070
C40   C     C_2   0.478699 0.415216 0.922066 0.505383
C41   C     C_2   0.470105 0.434419 0.076695 0.549556
C42   C     C_R   0.176712 0.381849 0.508467 0.601442
C43   C     C_R   0.177803 0.600634 0.515377 0.546730
C44   C     C_R   0.277853 0.550213 0.397878 -0.217904
C45   C     C_R   0.328423 0.554682 0.395488 0.312169
C46   C     C_R   0.329338 0.433855 0.606427 0.373028
Cu1   Cu    Cu3+1 0.500010 0.500020 0.638630 0.995165
Cu2   Cu    Cu3+1 0.499990 0.499980 0.361370 1.054213
H1    H     H_    0.257484 0.593687 0.317162 0.156935
H2    H     H_    0.122122 0.800858 0.515547 0.186715
H3    H     H_    0.652189 0.507733 0.277010 0.188154
H4    H     H_    0.035816 0.803589 0.523519 0.193223
H5    H     H_    0.474584 0.886251 0.311553 0.145134
H6    H     H_    0.260147 0.390489 0.693659 0.175764
H7    H     H_    0.481106 0.091099 0.591070 0.130546
H8    H     H_    0.505404 0.583037 0.891642 0.165595
H9    H     H_    0.652354 0.497439 0.722069 0.181423
H10   H     H_    0.740448 0.498789 0.720587 0.170197
N1    N     N_R   0.201396 0.491416 0.509328 -0.450502
N2    N     N_R   0.798193 0.504641 0.500522 -0.470165
N3    N     N_2   0.499480 0.498660 0.846910 -0.307919
N4    N     N_2   0.499460 0.498630 0.153040 -0.028965
O1    O     O_R   0.500010 0.321960 0.617040 -0.532980
O2    O     O_2   0.795052 0.301061 0.423630 -0.443856
O3    O     O_2   0.203075 0.707077 0.519320 -0.538916
O4    O     O_2   0.797787 0.708388 0.577095 -0.494950
O5    O     O_R   0.499990 0.321920 0.382900 -0.500662
O6    O     O_R   0.430270 0.500040 0.617060 -0.538015
O7    O     O_R   0.430260 0.500000 0.382910 -0.507796
O8    O     O_R   0.500010 0.678080 0.617100 -0.600655
O9    O     O_R   0.499990 0.678040 0.382960 -0.613422
O10   O     O_R   0.569740 0.500000 0.617090 -0.579411
O11   O     O_R   0.569730 0.499960 0.382940 -0.560548
O12   O     O_2   0.201474 0.276504 0.499904 -0.494399
O13   O     O_3   0.353707 0.374096 0.709574 -0.564250
C47   C     C_3   0.358535 0.250129 0.670324 -0.244751
H11   H     H_    0.380838 0.241097 0.575456 0.141296
H12   H     H_    0.322826 0.204595 0.655408 0.167188
H13   H     H_    0.377157 0.201007 0.753964 0.200012
O14   O     O_3   0.971598 0.797853 0.687440 -0.707185
H14   H     H_    0.998599 0.761156 0.738684 0.333020
O15   O     O_3   0.876311 0.814943 0.643861 -0.511678
C48   C     C_3   0.879822 0.906876 0.542674 -0.124946
H15   H     H_    0.858908 0.987238 0.577863 0.210188
H16   H     H_    0.864196 0.875241 0.442815 0.136397
H17   H     H_    0.917715 0.938163 0.527710 0.181098
O16   O     O_3   0.746561 0.511531 0.250770 -0.560323
C49   C     C_3   0.747226 0.632166 0.199652 -0.291990
H18   H     H_    0.764246 0.697382 0.274336 0.178239
H19   H     H_    0.710388 0.662722 0.172638 0.153700
H20   H     H_    0.769133 0.634013 0.104035 0.207368
O17   O     O_3   0.541551 0.922876 0.596508 -0.569755
C50   C     C_3   0.527004 0.902648 0.734037 -0.308894
H21   H     H_    0.544011 0.818748 0.774548 0.190243
H22   H     H_    0.487141 0.898097 0.746806 0.137100
H23   H     H_    0.540277 0.980537 0.798078 0.169644
O18   O     O_3   0.516822 0.119478 0.260522 -0.552988
C51   C     C_3   0.543885 0.040069 0.175935 -0.331093
H24   H     H_    0.520032 0.971530 0.124182 0.139634
H25   H     H_    0.572886 0.994080 0.234496 0.181579
H26   H     H_    0.561628 0.095101 0.094309 0.187083
O19   O     O_3   0.459286 0.312875 0.856893 -0.547152
C52   C     C_3   0.479988 0.206420 0.911342 -0.314813
H27   H     H_    0.467813 0.189593 0.018608 0.217799
H28   H     H_    0.520000 0.210558 0.905520 0.167519
H29   H     H_    0.467803 0.126667 0.848592 0.158764
O20   O     O_3   0.431876 0.375538 0.141699 -0.577134
C53   C     C_3   0.388182 0.403311 0.075750 -0.249740
H30   H     H_    0.382163 0.342369 0.985381 0.215757
H31   H     H_    0.386122 0.501425 0.045215 0.157016
H32   H     H_    0.358261 0.385433 0.148993 0.196304
O21   O     O_3   0.542795 0.523294 0.095720 -0.539314
C54   C     C_3   0.553043 0.648920 0.117189 -0.193840
H33   H     H_    0.571482 0.664737 0.216723 0.193528
H34   H     H_    0.520431 0.707019 0.109976 0.118852
H35   H     H_    0.578217 0.679918 0.035339 0.128113
O22   O     O_3   0.122591 0.156608 0.525994 -0.543110
C55   C     C_3   0.119674 0.100628 0.394666 -0.239525
H36   H     H_    0.135749 0.160297 0.313647 0.169084
H37   H     H_    0.081894 0.075921 0.367493 0.161768
H38   H     H_    0.140500 0.014587 0.396417 0.196957
O23   O     O_3   0.871551 0.193385 0.360620 -0.673421
H39   H     H_    0.893138 0.123431 0.343375 0.347732
O24   O     O_3   0.972060 0.197715 0.353489 -0.560256
C56   C     C_3   0.984347 0.238469 0.220296 -0.326942
H40   H     H_    0.009409 0.318731 0.224419 0.155081
H41   H     H_    0.951703 0.260959 0.159717 0.184005
H42   H     H_    0.003139 0.163451 0.165355 0.199510
O25   O     O_3   0.022046 0.167429 0.569488 -0.678832
H43   H     H_    0.043965 0.101261 0.597353 0.357335
O26   O     O_3   0.352925 0.618101 0.293934 -0.723203
H44   H     H_    0.329413 0.653109 0.228857 0.320783

loop_
_geom_bond_atom_site_label_1
_geom_bond_atom_site_label_2
_ccdc_geom_bond_type
C44   H1    S    
C10   C27   A    
C21   C26   A    
C50   H21   S    
C15   O23   S    
C47   H13   S    
Cu2   O7    S    
C12   O7    A    
C22   H9    S    
O18   C51   S    
C2    C46   A    
C12   O6    A    
C35   H4    S    
C36   C37   D    
C47   H12   S    
C54   H33   S    
C38   O18   S    
Cu1   O1    S    
C5    C6    A    
C9    C22   A    
C15   C16   A    
C51   H24   S    
C25   O16   S    
C53   H30   S    
C19   O4    S    
C18   C19   A    
C55   H36   S    
C46   O13   S    
C36   H5    S    
C8    C45   A    
C39   H7    S    
C48   H15   S    
C16   C17   A    
C56   H42   S    
O20   C53   S    
C7    C43   A    
C20   N2    A    
C33   O15   S    
C6    O22   S    
C43   O3    S    
C54   H35   S    
C24   H3    S    
C50   H22   S    
C21   C22   A    
C27   C30   A    
C23   O8    A    
C41   N4    D    
C4    C7    A    
C1    O1    A    
O21   C54   S    
C4    C28   A    
C8    C46   A    
C38   C39   D    
C3    C44   A    
C42   O12   S    
C14   O24   S    
C23   O9    A    
C7    C31   A    
C24   C25   A    
C2    H6    S    
O14   H14   S    
C25   C26   A    
C23   C37   S    
C40   N3    D    
C55   H38   S    
C20   O2    S    
O13   C47   S    
Cu1   O8    S    
C32   O14   S    
Cu2   N4    S    
Cu1   Cu2   S    
C49   H20   S    
C8    C12   S    
C17   C18   A    
C52   H28   S    
C16   C20   A    
C47   H11   S    
C40   C41   S    
C48   H16   S    
C49   H19   S    
C11   C32   A    
C45   O26   S    
C50   H23   S    
C51   H25   S    
C10   C14   A    
C56   H40   S    
C31   C35   A    
C31   H2    S    
O26   H44   S    
C30   O25   S    
C34   O10   A    
Cu1   O6    S    
C52   H27   S    
C44   C45   A    
C5    C42   A    
O25   H43   S    
C28   C29   A    
C41   O20   S    
C37   O17   S    
C6    C30   A    
H8    N3    S    
Cu2   O11   S    
C4    C5    A    
C10   C13   A    
C42   N1    A    
Cu1   N3    S    
C9    C24   A    
C43   N1    A    
C19   N2    A    
C51   H26   S    
C29   C35   A    
C53   H32   S    
C13   C17   A    
C32   C33   A    
C36   C38   S    
C2    C3    A    
C21   H10   S    
O22   C55   S    
C11   C13   A    
C9    C34   S    
O17   C50   S    
C1    O5    A    
C53   H31   S    
C52   H29   S    
Cu2   O5    S    
O19   C52   S    
C18   C33   A    
C55   H37   S    
Cu1   O10   S    
C1    C39   S    
C34   O11   A    
C40   O19   S    
C48   H17   S    
N4    O21   S    
C49   H18   S    
C11   C29   A    
O16   C49   S    
O15   C48   S    
C27   C28   A    
C56   H41   S    
C14   C15   A    
Cu2   O9    S    
O23   H39   S    
C26   N2    S    
O24   C56   S    
C54   H34   S    
C3    N1    S    
