data_mof_unit_49826.cif
_audit_creation_date              2013-03-05T16:02:54-0500
_audit_creation_method            fapswitch 2.2
_symmetry_space_group_name_H-M    P1
_symmetry_Int_Tables_number       1
_space_group_crystal_system       triclinic
_cell_length_a                    8.208543
_cell_length_b                    14.65417
_cell_length_c                    17.347642
_cell_angle_alpha                 97.369812
_cell_angle_beta                  96.338227
_cell_angle_gamma                 92.985905
_cell_volume                      2052.19724023

loop_
_atom_site_label
_atom_site_type_symbol
_atom_site_description
_atom_site_fract_x
_atom_site_fract_y
_atom_site_fract_z
_atom_type_partial_charge
P1    P     P_3+3 0.017810 0.410420 0.324030 0.526458
O1    O     O_2   0.840370 0.437300 0.310630 -0.333293
O2    O     O_3   0.112450 0.444030 0.408320 -0.394020
O3    O     O_3   0.597270 0.610320 0.351390 -0.381794
O4    O     O_2   0.728066 0.561053 0.221186 -0.372260
O5    O     O_3   0.997295 0.290430 0.307555 -0.548554
O6    O     O_3   0.553304 0.702347 0.215238 -0.526082
H1    H     H_    0.701551 0.762137 0.315373 0.185501
C1    C     C_3   0.602073 0.863880 0.249277 -0.812989
H2    H     H_    0.671468 0.915190 0.295394 0.245832
H3    H     H_    0.668526 0.856792 0.196846 0.311077
P2    P     P_3+3 0.635890 0.718430 0.552520 0.464196
P3    P     P_3+3 0.048729 0.778303 0.385303 0.507182
O7    O     O_2   0.802370 0.730760 0.528330 -0.401442
O8    O     O_3   0.016680 0.660770 0.388810 -0.369967
O9    O     O_2   0.921660 0.825868 0.433507 -0.372398
O10   O     O_3   0.668764 0.752427 0.653724 -0.542576
O11   O     O_3   0.985713 0.799207 0.289417 -0.483399
C2    C     C_3   0.113406 0.782131 0.242733 0.234601
H4    H     H_    0.134283 0.707245 0.235742 0.046828
H5    H     H_    0.228822 0.822045 0.269183 0.061218
C3    C     C_3   0.066703 0.811323 0.161581 0.187065
H6    H     H_    0.947849 0.774674 0.134951 0.104984
C4    C     C_3   0.200821 0.741375 0.617113 0.343130
H7    H     H_    0.307472 0.714801 0.590141 0.093715
H8    H     H_    0.086839 0.719427 0.577468 0.137892
C5    C     C_3   0.216529 0.845721 0.630142 -0.787672
H9    H     H_    0.338761 0.869082 0.662516 0.299557
H10   H     H_    0.203694 0.873859 0.573938 0.197247
H11   H     H_    0.116993 0.871883 0.663510 0.281617
Ba1   Ba    Ba6+2 0.833220 0.541860 0.459910 1.609603
C6    C     C_3   0.970036 0.256132 0.376753 0.327483
H12   H     H_    0.873428 0.292334 0.405362 0.119485
H13   H     H_    0.084865 0.263336 0.417865 0.120034
C7    C     C_3   0.916574 0.154866 0.355156 -0.752564
H14   H     H_    0.808957 0.145389 0.309828 0.276127
H15   H     H_    0.885291 0.124127 0.407035 0.231110
H16   H     H_    0.017548 0.119949 0.329468 0.290938
C8    C     C_3   0.739846 0.682883 0.691282 0.408805
H17   H     H_    0.857988 0.667059 0.669132 0.078360
H18   H     H_    0.655753 0.619614 0.682609 0.115152
C9    C     C_3   0.771700 0.717864 0.778399 -0.870822
H19   H     H_    0.860375 0.779305 0.788639 0.289805
H20   H     H_    0.823003 0.663972 0.811153 0.199711
H21   H     H_    0.654927 0.737057 0.800979 0.275990
P4    P     P_3+3 0.171880 0.589650 0.675980 0.481936
O12   O     O_2   0.349330 0.562730 0.689420 -0.345997
O13   O     O_3   0.077250 0.556050 0.591680 -0.438175
O14   O     O_3   0.592420 0.389760 0.648620 -0.379245
O15   O     O_3   0.196004 0.710052 0.689610 -0.538655
P5    P     P_3+3 0.160859 0.222010 0.622119 0.540685
O16   O     O_3   0.628930 0.385070 0.464840 -0.327234
O17   O     O_3   0.173020 0.339310 0.611190 -0.347691
O18   O     O_2   0.269877 0.176630 0.563568 -0.343108
O19   O     O_3   0.267637 0.206236 0.712367 -0.455243
Ba2   Ba    Ba6+2 0.356600 0.458220 0.540090 1.610981
P6    P     P_3+3 0.566101 0.595304 0.248674 0.491860
C10   C     C_3   0.585508 0.771761 0.279342 0.429395
H22   H     H_    0.483668 0.772022 0.316184 0.021350
H23   H     H_    0.478820 0.887342 0.232125 0.241769
O20   O     O_3   0.560770 0.615000 0.535160 -0.388765
C11   C     C_3   0.421038 0.169677 0.320168 0.397298
H24   H     H_    0.325504 0.162058 0.359336 0.098547
H25   H     H_    0.362247 0.202626 0.271124 0.122121
C12   C     C_3   0.466185 0.075848 0.284823 -0.953434
H26   H     H_    0.531842 0.041216 0.330776 0.240805
H27   H     H_    0.353710 0.033283 0.258537 0.296140
H28   H     H_    0.546564 0.083210 0.238229 0.282865
P7    P     P_3+3 0.569797 0.264429 0.454088 0.465797
O21   O     O_2   0.387340 0.269270 0.471720 -0.379379
O22   O     O_3   0.566086 0.223155 0.353608 -0.558080
C13   C     C_3   0.159533 0.197334 0.768947 0.429535
H29   H     H_    0.031455 0.175258 0.744023 -0.011568
C14   C     C_3   0.220472 0.128169 0.822709 -0.043314
H30   H     H_    0.341481 0.153769 0.855247 0.132305
H31   H     H_    0.132758 0.121319 0.866495 0.115883
P8    P     P_3+3 0.618655 0.407186 0.750903 0.513361
C15   C     C_3   0.681204 0.235482 0.755646 0.334720
H32   H     H_    0.798501 0.264667 0.739241 0.002468
O23   O     O_2   0.480362 0.465771 0.779121 -0.336074
O24   O     O_3   0.583191 0.303154 0.787596 -0.492766
H33   H     H_    0.610128 0.195984 0.702485 0.153360
C16   C     C_3   0.721663 0.171055 0.817006 -0.294274
H34   H     H_    0.619363 0.165456 0.853291 0.209951
H35   H     H_    0.833364 0.199219 0.856824 0.151885
C17   C     C_2   0.281119 0.485610 0.264167 -0.123227
C18   C     C_3   0.386056 0.513937 0.204626 0.195780
C19   C     C_2   0.291415 0.538405 0.132228 -0.258365
C20   C     C_2   0.129338 0.512041 0.115185 0.105634
C21   C     C_2   0.043241 0.470476 0.176680 -0.251573
C22   C     C_1   0.122028 0.461402 0.246755 0.235309
C23   C     C_R   0.872276 0.488748 0.865948 -0.242833
C24   C     C_R   0.818177 0.467400 0.786009 0.227660
C25   C     C_R   0.064313 0.543530 0.752749 0.322692
C26   C     C_R   0.120488 0.565433 0.833159 -0.208120
C27   C     C_R   0.027462 0.535605 0.890859 0.129899
C28   C     C_2   0.038092 0.514302 0.035036 -0.119398
C29   C     C_2   0.104294 0.546966 0.974398 -0.098763
C30   C     C_R   0.915661 0.492394 0.730188 -0.482376
H36   H     H_    0.227323 0.579299 0.983834 0.147993
H37   H     H_    0.918330 0.440710 0.160923 0.172029
H38   H     H_    0.794490 0.466165 0.907047 0.144734
H39   H     H_    0.914086 0.482882 0.025792 0.130131
H40   H     H_    0.363399 0.565274 0.090703 0.171894
H41   H     H_    0.237866 0.603923 0.850537 0.157589
H42   H     H_    0.871917 0.475776 0.668580 0.162926
C31   C     C_R   0.713800 0.940560 0.549812 -0.032377
C32   C     C_R   0.518688 0.801467 0.499907 0.269856
C33   C     C_R   0.369984 0.766516 0.456010 -0.565778
C34   C     C_R   0.257655 0.825238 0.426824 0.084556
C35   C     C_R   0.297926 0.920066 0.436200 0.231528
C36   C     C_R   0.451190 0.957170 0.475399 -0.096429
C37   C     C_R   0.563408 0.898765 0.508827 -0.039319
H43   H     H_    0.335851 0.693321 0.449327 0.192272
C38   C     C_R   0.642140 0.093595 0.518011 -0.019453
C39   C     C_R   0.754425 0.036734 0.553680 0.097464
C40   C     C_R   0.685115 0.189624 0.518483 0.188596
C41   C     C_R   0.835873 0.226801 0.557917 -0.483079
C42   C     C_R   0.949456 0.170939 0.591270 0.212647
C43   C     C_R   0.908495 0.076468 0.590028 -0.183237
C44   C     C_R   0.491280 0.052533 0.481764 -0.101816
H44   H     H_    0.998813 0.033711 0.614822 0.167453
H45   H     H_    0.870739 0.298766 0.556519 0.157163
H46   H     H_    0.801802 0.899113 0.577658 0.159990
H47   H     H_    0.403241 0.095151 0.457586 0.179245
I1    I     I_    0.246631 0.769546 0.085357 -0.339784
I2    I     I_    0.167118 0.325362 0.841551 -0.391598
N1    N     N_R   0.236370 0.038366 0.778619 0.264698
O25   O     O_R   0.341997 0.029723 0.727981 -0.359545
O26   O     O_R   0.165527 0.964999 0.798740 -0.357070
I3    I     I_    0.756254 0.033440 0.766618 -0.313383
I4    I     I_    0.426766 0.398309 0.316492 -0.179746
N2    N     N_R   0.178022 0.979442 0.409946 0.230511
O27   O     O_R   0.099267 0.026778 0.460428 -0.430311
O28   O     O_R   0.132694 0.976876 0.335725 -0.408008
N3    N     N_R   0.051019 0.911159 0.166811 0.282982
O29   O     O_R   0.927015 0.947669 0.196440 -0.343559
O30   O     O_R   0.151676 0.963451 0.135964 -0.346970

loop_
_geom_bond_atom_site_label_1
_geom_bond_atom_site_label_2
_geom_bond_distance
_ccdc_geom_bond_type
O5    C6    1.395014 S    
C18   C19   1.496185 S    
C38   C44   1.394393 A    
C5    H10   1.103070 S    
Ba1   O20   2.896516 S    
C2    H4    1.112824 S    
C4    C5    1.513354 S    
P1    Ba1   3.389711 S    
O7    Ba1   2.903822 S    
N1    O25   1.300206 A    
C28   C29   1.363542 D    
C8    H18   1.110557 S    
C16   I3    2.138632 S    
C11   H24   1.103220 S    
C14   H31   1.112757 S    
P3    O11   1.756584 S    
C7    H15   1.105357 S    
C4    H8    1.105287 S    
O11   C2    1.407096 S    
C17   C22   1.326512 D    
C3    I1    2.149983 S    
C38   C39   1.418835 A    
C23   C27   1.411439 A    
C32   C33   1.400633 A    
P1    O1    1.529433 D    
O10   C8    1.397111 S    
P8    C24   1.822960 S    
P7    O22   1.766640 S    
C41   C42   1.398595 A    
C31   C37   1.421383 A    
C11   H25   1.108561 S    
O16   P7    1.789377 S    
C26   H41   1.083046 S    
H1    C10   1.105932 S    
C34   C35   1.396084 A    
C15   C16   1.532034 S    
C14   N1    1.454506 S    
C26   C27   1.422086 A    
C12   H27   1.106110 S    
C27   C29   1.500344 S    
P2    O10   1.749384 S    
P5    C42   1.847897 S    
Ba1   Ba2   4.459017 S    
C1    H2    1.109186 S    
C24   C30   1.394182 A    
O6    C10   1.399332 S    
O19   C13   1.407475 S    
C23   H38   1.079155 S    
P1    C22   1.878989 S    
C5    H11   1.108935 S    
P7    O21   1.564727 D    
C9    H20   1.104910 S    
C31   H46   1.080747 S    
C36   C37   1.417348 A    
C19   H40   1.079630 S    
C43   H44   1.083677 S    
C8    C9    1.521564 S    
C3    H6    1.111729 S    
C4    O15   1.396830 S    
P4    O13   1.584003 S    
C14   H30   1.108632 S    
C13   I2    2.115285 S    
P1    O5    1.741106 S    
C6    C7    1.512725 S    
C7    H16   1.102099 S    
C4    H7    1.102813 S    
N3    O30   1.301196 A    
C8    H17   1.106678 S    
P2    C32   1.858033 S    
C17   C18   1.500127 S    
C35   N2    1.423084 S    
C38   C40   1.431596 A    
C10   H22   1.106794 S    
P6    C18   1.877008 S    
C3    N3    1.467445 S    
O1    Ba1   2.842970 S    
P1    O2    1.583913 S    
C9    H21   1.110879 S    
C6    H13   1.109117 S    
C32   C37   1.438049 A    
O3    P6    1.755527 S    
C21   H37   1.085007 S    
C44   H47   1.065607 S    
P3    C34   1.846703 S    
O2    Ba2   2.847488 S    
C15   H33   1.111291 S    
C16   H34   1.109454 S    
P4    C25   1.854282 S    
P8    O24   1.748618 S    
C35   C36   1.409180 A    
C12   H28   1.110415 S    
C2    C3    1.537607 S    
O2    Ba1   2.928463 S    
C1    H3    1.107639 S    
C28   H39   1.081688 S    
C33   H43   1.082607 S    
C13   C14   1.529591 S    
C16   H35   1.111658 S    
P2    O7    1.482084 D    
Ba2   O21   2.904066 S    
Ba1   O13   2.846885 S    
P3    O8    1.738570 S    
P2    Ba1   3.441603 S    
N2    O27   1.296877 A    
C9    H19   1.110936 S    
P4    Ba2   3.390345 S    
O17   Ba2   2.741669 S    
O13   Ba2   2.929293 S    
C30   H42   1.081603 S    
P4    O12   1.529757 D    
C1    C10   1.513258 S    
C11   C12   1.513556 S    
C2    H5    1.107998 S    
C15   H32   1.113454 S    
C13   H29   1.106906 S    
N1    O26   1.300711 A    
C42   C43   1.404384 A    
O8    Ba1   2.741111 S    
O14   Ba2   2.860148 S    
P4    O15   1.747698 S    
C29   H36   1.079308 S    
Ba1   O16   2.789113 S    
O4    P6    1.547569 D    
P5    O18   1.537576 D    
C6    H12   1.104449 S    
C1    H23   1.107406 S    
C36   C44   1.406359 A    
C40   C41   1.394072 A    
P2    O20   1.585162 S    
P8    O23   1.543283 D    
C15   O24   1.406588 S    
C17   I4    2.026715 S    
C21   C22   1.338119 D    
C25   C30   1.388410 A    
P7    C40   1.880003 S    
C23   C24   1.398720 A    
O14   P8    1.747464 S    
C11   O22   1.414897 S    
P5    O19   1.756037 S    
C41   H45   1.082271 S    
C25   C26   1.410380 A    
C31   C39   1.422597 A    
O3    Ba1   2.860704 S    
C39   C43   1.410359 A    
C19   C20   1.355356 D    
C12   H26   1.104960 S    
P3    O9    1.546557 D    
C20   C28   1.509898 S    
C5    H9    1.108956 S    
N2    O28   1.295381 A    
Ba2   O20   2.788442 S    
N3    O29   1.299322 A    
C7    H14   1.106254 S    
P5    O17   1.752306 S    
C20   C21   1.515521 S    
C33   C34   1.392268 A    
O6    P6    1.745048 S    
O16   Ba2   2.895739 S    
O12   Ba2   2.843540 S    
