data_mof_unit_39213.cif
_audit_creation_date              2012-12-10T16:46:42-0500
_audit_creation_method            fapswitch 2.2
_symmetry_space_group_name_H-M    P1
_symmetry_Int_Tables_number       1
_space_group_crystal_system       triclinic
_cell_length_a                    15.854687
_cell_length_b                    8.804031
_cell_length_c                    7.560795
_cell_angle_alpha                 101.6382
_cell_angle_beta                  96.708197
_cell_angle_gamma                 93.498878
_cell_volume                      1022.71126466

loop_
_atom_site_label
_atom_site_type_symbol
_atom_type_description
_atom_site_fract_x
_atom_site_fract_y
_atom_site_fract_z
_atom_type_partial_charge
C1    C     C_R   0.494564 0.201154 0.455824 0.862514
C2    C     C_3   0.962554 0.433854 0.664159 -0.108421
C3    C     C_3   0.917896 0.515028 0.511960 0.159560
C4    C     C_3   0.960601 0.691272 0.562260 0.565203
C5    C     C_3   0.056267 0.683754 0.527922 -0.411706
C6    C     C_1   0.825317 0.510530 0.515447 -0.083854
C7    C     C_1   0.175373 0.511285 0.489077 -0.026214
C8    C     C_1   0.250952 0.506816 0.493235 -0.175452
C9    C     C_2   0.479125 0.035474 0.438079 -0.021228
C10   C     C_2   0.520771 0.964515 0.561897 -0.027574
C11   C     C_R   0.340545 0.501264 0.498366 0.805703
C12   C     C_R   0.505377 0.798843 0.544159 0.866320
C13   C     C_R   0.659476 0.501110 0.502047 0.819242
C14   C     C_3   0.057635 0.419434 0.637656 0.321552
C15   C     C_3   0.034063 0.430148 0.306931 -0.479928
C16   C     C_3   0.935129 0.428327 0.312564 0.375554
C17   C     C_1   0.749368 0.505513 0.509219 -0.214556
C18   C     C_3   0.083491 0.513547 0.494077 0.023572
Cu1   Cu    Cu3+1 0.509300 0.517380 0.684380 0.936072
Cu2   Cu    Cu3+1 0.490700 0.482620 0.315620 0.936746
H1    H     H_    0.961536 0.508607 0.799090 0.202721
H2    H     H_    0.573385 0.609201 0.047578 0.209553
H3    H     H_    0.061757 0.295522 0.571440 0.142357
H4    H     H_    0.052887 0.489391 0.199563 0.213193
H5    H     H_    0.055004 0.311053 0.267161 0.173739
H6    H     H_    0.098052 0.763848 0.639823 0.176643
H7    H     H_    0.068699 0.731863 0.407435 0.149758
N1    N     N_2   0.476670 0.456430 0.038530 -0.091768
N2    N     N_2   0.523330 0.543570 0.961470 -0.184208
O1    O     O_R   0.506050 0.286130 0.619770 -0.597802
O2    O     O_R   0.490330 0.256780 0.308370 -0.580426
O3    O     O_R   0.387300 0.514690 0.655770 -0.590000
O4    O     O_R   0.371580 0.485340 0.344370 -0.588512
O5    O     O_R   0.509670 0.743220 0.691630 -0.582245
O6    O     O_R   0.493950 0.713870 0.380230 -0.591784
O7    O     O_R   0.628420 0.514660 0.655630 -0.583241
O8    O     O_R   0.612700 0.485310 0.344230 -0.583048
C19   C     C_3   0.918511 0.279850 0.688855 -0.947470
H8    H     H_    0.950589 0.249449 0.814006 0.254221
H9    H     H_    0.850328 0.290566 0.704992 0.251462
H10   H     H_    0.923647 0.181136 0.577716 0.245915
O9    O     O_3   0.114398 0.437242 0.803760 -0.586690
C20   C     C_3   0.136009 0.592641 0.900388 0.088298
H11   H     H_    0.078701 0.651082 0.937175 0.176181
H12   H     H_    0.173047 0.659830 0.822828 0.159435
C21   C     C_3   0.194989 0.594233 0.075456 -0.822211
H13   H     H_    0.191480 0.478140 0.111601 0.276558
H14   H     H_    0.262045 0.626273 0.059765 0.230893
H15   H     H_    0.177457 0.682590 0.189066 0.202005
C22   C     C_3   0.918421 0.807249 0.454115 -0.878985
H16   H     H_    0.923149 0.924293 0.543594 0.246832
H17   H     H_    0.950609 0.826636 0.338188 0.200060
H18   H     H_    0.849863 0.773392 0.405768 0.215130
C23   C     C_3   0.409223 0.952819 0.288405 -0.856708
H19   H     H_    0.371828 0.036948 0.228107 0.220840
H20   H     H_    0.437320 0.879692 0.176477 0.265682
H21   H     H_    0.363367 0.880380 0.343968 0.226383
C24   C     C_3   0.590719 0.047117 0.711454 -0.845259
H22   H     H_    0.628220 0.962985 0.771526 0.221795
H23   H     H_    0.636509 0.119608 0.655806 0.227354
H24   H     H_    0.562622 0.120113 0.823493 0.267143
C25   C     C_3   0.398091 0.372437 0.943192 -0.328632
H25   H     H_    0.374232 0.294230 0.027776 0.157770
H26   H     H_    0.348763 0.453778 0.927302 0.182428
H27   H     H_    0.406288 0.295928 0.813807 0.187089
C26   C     C_3   0.894650 0.256593 0.262270 -0.811219
H28   H     H_    0.835213 0.240512 0.322735 0.242181
H29   H     H_    0.876053 0.217446 0.114117 0.229307
H30   H     H_    0.939405 0.173443 0.300951 0.206580
C27   C     C_3   0.894847 0.508702 0.160818 -0.851253
H31   H     H_    0.934517 0.612390 0.149027 0.219614
H32   H     H_    0.890445 0.432731 0.024474 0.229918
H33   H     H_    0.829092 0.538745 0.179200 0.240659
O10   O     O_3   0.964205 0.757953 0.752146 -0.612537
C28   C     C_3   0.884191 0.778860 0.816162 0.055837
H34   H     H_    0.862758 0.676766 0.869599 0.158976
H35   H     H_    0.832678 0.799139 0.713138 0.164411
C29   C     C_3   0.895529 0.919864 0.969905 -0.848864
H36   H     H_    0.911512 0.022775 0.913107 0.253952
H37   H     H_    0.835905 0.933447 0.033250 0.216279
H38   H     H_    0.948979 0.908855 0.073557 0.250609

loop_
_geom_bond_atom_site_label_1
_geom_bond_atom_site_label_2
_ccdc_geom_bond_type
C15   C18   S    
C26   H29   S    
H2    N2    S    
C14   C18   S    
Cu1   Cu2   S    
C28   H34   S    
C3    C6    S    
C7    C8    T    
C21   H15   S    
N1    N2    D    
C10   C24   S    
Cu1   O7    S    
C19   H8    S    
C29   H37   S    
C15   H5    S    
C26   H30   S    
C24   H23   S    
C15   C16   S    
C1    O2    A    
C25   H26   S    
C21   H13   S    
Cu2   O6    S    
C22   H17   S    
C27   H31   S    
C9    C10   D    
C4    O10   S    
C14   O9    S    
C24   H24   S    
C26   H28   S    
C5    H7    S    
C27   H33   S    
Cu1   O3    S    
C20   C21   S    
C21   H14   S    
C23   H20   S    
C22   H18   S    
O10   C28   S    
C11   O4    A    
C1    C9    S    
C13   O7    A    
C29   H36   S    
C5    C18   S    
Cu2   N1    S    
C24   H22   S    
C4    C22   S    
C14   H3    S    
C20   H11   S    
C25   H25   S    
C20   H12   S    
C2    C19   S    
C7    C18   S    
C2    H1    S    
C22   H16   S    
C16   C27   S    
C12   O6    A    
C28   H35   S    
C10   C12   S    
C19   H10   S    
Cu2   O4    S    
C15   H4    S    
C11   O3    A    
C16   C26   S    
O9    C20   S    
C12   O5    A    
C3    C4    S    
Cu1   N2    S    
C6    C17   T    
C23   H19   S    
C25   H27   S    
C13   O8    A    
C4    C5    S    
Cu1   O5    S    
C13   C17   S    
C2    C3    S    
C19   H9    S    
Cu2   O8    S    
C29   H38   S    
C8    C11   S    
C1    O1    A    
C2    C14   S    
C28   C29   S    
C5    H6    S    
C27   H32   S    
C9    C23   S    
Cu1   O1    S    
Cu2   O2    S    
C3    C16   S    
C23   H21   S    
N1    C25   S    
