data_mof_unit_36176.cif
_audit_creation_date              2012-12-10T17:39:18-0500
_audit_creation_method            fapswitch 2.2
_symmetry_space_group_name_H-M    P1
_symmetry_Int_Tables_number       1
_space_group_crystal_system       triclinic
_cell_length_a                    12.324098
_cell_length_b                    13.176342
_cell_length_c                    27.74746
_cell_angle_alpha                 77.771891
_cell_angle_beta                  101.127949
_cell_angle_gamma                 116.575887
_cell_volume                      3913.35807553

loop_
_atom_site_label
_atom_site_type_symbol
_atom_type_description
_atom_site_fract_x
_atom_site_fract_y
_atom_site_fract_z
_atom_type_partial_charge
C1    C     C_R   0.854873 0.286550 0.504502 0.814424
C2    C     C_R   0.907521 0.410661 0.721756 -0.104395
C3    C     C_R   0.999024 0.501116 0.745375 0.263588
C4    C     C_R   0.990392 0.500800 0.896640 -0.100025
C5    C     C_R   0.013066 0.416770 0.881803 -0.004781
C6    C     C_R   0.033229 0.332764 0.917568 -0.119793
C7    C     C_R   0.974922 0.588703 0.860730 -0.119987
C8    C     C_R   0.997837 0.498271 0.644689 -0.099962
C9    C     C_R   0.999909 0.498762 0.354564 -0.039076
C10   C     C_R   0.966637 0.391739 0.032305 -0.081432
C11   C     C_R   0.983708 0.588987 0.015077 0.089603
C12   C     C_R   0.999013 0.499095 0.592160 0.866568
C13   C     C_R   0.976710 0.489775 0.049327 0.071397
C14   C     C_R   0.932250 0.286263 0.065266 -0.124464
C15   C     C_R   0.934622 0.285372 0.116540 0.362694
C16   C     C_R   0.965326 0.388740 0.134961 -0.125597
C17   C     C_R   0.980168 0.489155 0.100750 -0.098423
C18   C     C_R   0.998783 0.589848 0.117911 -0.000097
C19   C     C_R   0.005603 0.590354 0.168752 0.542736
C20   C     C_R   0.976384 0.395205 0.186251 0.594547
C21   C     C_R   0.093304 0.487122 0.287612 -0.093699
C22   C     C_R   0.094720 0.488263 0.337929 -0.212710
C23   C     C_R   0.145054 0.713393 0.492818 0.793945
C24   C     C_R   0.903819 0.507899 0.320022 -0.213514
C25   C     C_R   0.902371 0.506241 0.269888 -0.089099
C26   C     C_R   0.997018 0.495993 0.253429 0.338314
C27   C     C_R   0.989022 0.402965 0.982534 0.097416
C28   C     C_R   0.983932 0.496725 0.947603 0.086544
C29   C     C_R   0.974157 0.586869 0.963475 -0.023160
C30   C     C_R   0.023156 0.327038 0.967147 -0.170159
C31   C     C_R   0.955808 0.673956 0.876842 0.428161
C32   C     C_R   0.002418 0.687960 0.033657 -0.193580
C33   C     C_R   0.010400 0.688347 0.084128 -0.120273
C34   C     C_R   0.000334 0.499880 0.407567 0.788068
C35   C     C_R   0.956693 0.672635 0.927277 -0.238450
C36   C     C_R   0.276305 0.020962 0.433699 -0.175824
C37   C     C_R   0.227935 0.834543 0.482748 -0.050143
C38   C     C_R   0.814770 0.085782 0.538342 -0.143219
C39   C     C_R   0.735614 0.971200 0.548762 -0.114444
C40   C     C_R   0.612466 0.933326 0.531118 -0.171163
C41   C     C_R   0.566240 0.009522 0.500733 0.085783
C42   C     C_R   0.650102 0.123477 0.485540 0.080765
C43   C     C_R   0.439814 0.976117 0.484458 0.078203
C44   C     C_R   0.400754 0.052926 0.450031 0.159307
C45   C     C_R   0.017687 0.419889 0.831496 0.556658
C46   C     C_R   0.486423 0.159557 0.431242 -0.225010
C47   C     C_R   0.609328 0.193621 0.448028 -0.194060
C48   C     C_R   0.350593 0.868664 0.501547 -0.243868
C49   C     C_R   0.190199 0.911808 0.449725 -0.181629
C50   C     C_R   0.772910 0.163523 0.507892 -0.094898
C51   C     C_R   0.345743 0.327509 0.578454 -0.274017
C52   C     C_R   0.759980 0.645745 0.433182 0.078723
C53   C     C_R   0.663691 0.677694 0.418692 -0.240804
C54   C     C_R   0.559985 0.622759 0.443755 -0.190490
C55   C     C_R   0.551382 0.534656 0.483919 -0.002669
C56   C     C_R   0.978139 0.586425 0.810244 0.593503
C57   C     C_R   0.652725 0.505133 0.497482 0.264896
C58   C     C_R   0.446811 0.475049 0.511203 -0.033008
C59   C     C_R   0.446023 0.387440 0.551080 0.144078
C60   C     C_R   0.545457 0.360234 0.563639 -0.231509
C61   C     C_R   0.646511 0.418178 0.537641 -0.148857
C62   C     C_R   0.342182 0.498071 0.500938 0.022195
C63   C     C_R   0.246176 0.354449 0.566514 0.087569
C64   C     C_R   0.090642 0.589451 0.718594 -0.075971
C65   C     C_R   0.090141 0.587888 0.668470 -0.267519
C66   C     C_R   0.906799 0.408437 0.671621 0.323991
Cu1   Cu    Cu3+1 0.098270 0.475420 0.511360 0.953229
Cu2   Cu    Cu3+1 0.901730 0.524580 0.488640 0.941433
H1    H     H_    0.162147 0.659158 0.736684 0.165606
H2    H     H_    0.016158 0.768190 0.010101 0.157182
H3    H     H_    0.829268 0.515683 0.331698 0.161489
H4    H     H_    0.025981 0.766855 0.096566 0.202924
H5    H     H_    0.827384 0.512596 0.243720 0.150724
H6    H     H_    0.939295 0.738465 0.937177 0.180642
H7    H     H_    0.095318 0.886306 0.434720 0.154518
H8    H     H_    0.458379 0.216984 0.403295 0.151707
H9    H     H_    0.246074 0.079206 0.407370 0.146800
H10   H     H_    0.837326 0.341850 0.742570 0.182860
H11   H     H_    0.373857 0.808455 0.529123 0.150852
H12   H     H_    0.908531 0.114082 0.555246 0.159473
H13   H     H_    0.556766 0.843354 0.541114 0.134033
H14   H     H_    0.769199 0.911808 0.571999 0.158774
H15   H     H_    0.671778 0.274575 0.430093 0.173115
H16   H     H_    0.168323 0.308489 0.587433 0.140120
H17   H     H_    0.545512 0.293507 0.594182 0.202411
H18   H     H_    0.344500 0.260340 0.608942 0.157133
H19   H     H_    0.334671 0.562928 0.471280 0.122703
H20   H     H_    0.840118 0.688946 0.413538 0.131166
H21   H     H_    0.056831 0.270745 0.907417 0.197019
H22   H     H_    0.488267 0.650954 0.430964 0.138656
H23   H     H_    0.669473 0.745308 0.387929 0.160101
H24   H     H_    0.718267 0.392048 0.550548 0.243391
H25   H     H_    0.170065 0.481377 0.363686 0.156988
H26   H     H_    0.166995 0.479494 0.275136 0.148403
H27   H     H_    0.046136 0.264434 0.993400 0.157846
H28   H     H_    0.161229 0.656875 0.648100 0.158814
N1    N     N_R   0.998814 0.502820 0.796937 -0.469590
N2    N     N_R   0.994428 0.494178 0.201642 -0.478780
N3    N     N_R   0.246290 0.438210 0.528570 -0.186083
N4    N     N_R   0.754320 0.561170 0.471730 -0.210321
O1    O     O_R   0.972510 0.318140 0.514280 -0.580797
O2    O     O_2   0.969985 0.304443 0.220809 -0.462106
O3    O     O_2   0.959641 0.665645 0.774426 -0.454164
O4    O     O_2   0.024248 0.686685 0.185391 -0.517964
O5    O     O_R   0.806530 0.359640 0.495100 -0.604010
O6    O     O_R   0.082990 0.479270 0.579320 -0.570914
O7    O     O_R   0.917010 0.520770 0.560140 -0.583085
O8    O     O_R   0.193470 0.640360 0.504900 -0.589167
O9    O     O_R   0.027490 0.681860 0.485720 -0.587001
O10   O     O_R   0.082990 0.479230 0.439860 -0.585783
O11   O     O_R   0.917010 0.520730 0.420680 -0.597724
O12   O     O_2   0.041041 0.340640 0.817103 -0.509676
Cl1   Cl    Cl    0.794560 0.289470 0.644427 -0.658646
Cl2   Cl    Cl    0.931557 0.787131 0.836698 -0.494229
Cl3   Cl    Cl    0.884896 0.150944 0.155668 -0.462281
C67   C     C_2   0.873887 0.175035 0.045368 0.904971
O13   O     O_2   0.908252 0.099538 0.062730 -0.533878
O14   O     O_R   0.781098 0.158278 0.005772 -0.736343
H29   H     H_    0.749431 0.080184 0.994946 0.345554

loop_
_geom_bond_atom_site_label_1
_geom_bond_atom_site_label_2
_ccdc_geom_bond_type
C10   C27   A    
C58   C62   A    
C21   C26   A    
C35   H6    S    
C8    C66   A    
C66   Cl1   S    
C41   C42   A    
C46   H8    S    
C45   O12   S    
C53   C54   A    
C7    C56   A    
C48   H11   S    
C28   C29   A    
C54   H22   S    
C36   H9    S    
C5    C6    A    
C9    C22   A    
C20   O2    S    
C21   H26   S    
C15   C16   A    
C67   O13   D    
C18   C19   A    
O14   H29   S    
C63   N3    A    
C33   H4    S    
C46   C47   A    
C65   H28   S    
C16   C17   A    
C53   H23   S    
C49   H7    S    
Cu2   O7    S    
C47   H15   S    
C43   C48   A    
C31   Cl2   S    
C25   H5    S    
C61   H24   S    
C16   C20   A    
C42   C47   A    
C59   C60   A    
C21   C22   A    
C27   C30   A    
C34   O11   A    
C41   C43   A    
C56   N1    A    
C4    C7    A    
C51   H18   S    
C4    C28   A    
C19   N2    A    
C44   C46   A    
C23   O9    A    
C7    C31   A    
Cu1   Cu2   S    
C52   H20   S    
C51   C63   A    
C24   C25   A    
C39   H14   S    
C10   C14   A    
C39   C40   A    
C32   H2    S    
C58   C59   A    
C23   C37   S    
C57   N4    A    
C5    C45   A    
C52   N4    A    
C60   C61   A    
Cu2   O11   S    
C43   C44   A    
Cu2   N4    S    
C30   H27   S    
C2    H10   S    
C37   C49   A    
C19   O4    S    
C3    N1    S    
Cu1   O10   S    
C8    C12   S    
C17   C18   A    
C9    C24   A    
C64   H1    S    
C37   C48   A    
C26   N2    S    
C40   C41   A    
C6    C30   A    
C42   C50   A    
C11   C32   A    
C55   C57   A    
C9    C34   S    
C34   O10   A    
C22   H25   S    
C15   Cl3   S    
C36   C44   A    
C51   C59   A    
Cu2   O5    S    
C1    O1    A    
C52   C53   A    
Cu1   O1    S    
C1    C50   S    
C54   C55   A    
C40   H13   S    
C56   O3    S    
C4    C5    A    
C2    C66   A    
C10   C13   A    
C12   O7    A    
C60   H17   S    
Cu1   O6    S    
C57   C61   A    
C38   C50   A    
Cu1   N3    S    
C6    H21   S    
C62   H19   S    
C29   C35   A    
C13   C17   A    
C63   H16   S    
C32   C33   A    
C2    C3    A    
C25   C26   A    
C45   N1    A    
C64   C65   A    
C12   O6    A    
C11   C13   A    
C38   C39   A    
C38   H12   S    
C14   C67   S    
C23   O8    A    
C67   O14   S    
C31   C35   A    
Cu2   O9    S    
C3    C64   A    
Cu1   O8    S    
C18   C33   A    
C62   N3    A    
C8    C65   A    
C20   N2    A    
C11   C29   A    
C55   C58   A    
C27   C28   A    
C14   C15   A    
C36   C49   A    
C24   H3    S    
C1    O5    A    
