data_mof_unit_22888.cif
_audit_creation_date              2012-12-10T20:02:24-0500
_audit_creation_method            fapswitch 2.2
_symmetry_space_group_name_H-M    P1
_symmetry_Int_Tables_number       1
_space_group_crystal_system       triclinic
_cell_length_a                    10.710704
_cell_length_b                    14.983038
_cell_length_c                    14.137253
_cell_angle_alpha                 89.55767
_cell_angle_beta                  90.087363
_cell_angle_gamma                 90.314132
_cell_volume                      2268.62640073

loop_
_atom_site_label
_atom_site_type_symbol
_atom_type_description
_atom_site_fract_x
_atom_site_fract_y
_atom_site_fract_z
_atom_type_partial_charge
C1    C     C_R   0.498290 0.327759 0.500548 0.868138
C2    C     C_R   0.562544 0.816833 0.414963 -0.013287
C3    C     C_R   0.509310 0.232287 0.502366 -0.066674
C4    C     C_R   0.532336 0.768322 0.498795 -0.091279
C5    C     C_R   0.598133 0.193803 0.443053 -0.228162
C6    C     C_R   0.526923 0.812567 0.585718 -0.211125
C7    C     C_R   0.618538 0.102895 0.447006 -0.184579
C8    C     C_R   0.542054 0.903775 0.589454 -0.189037
C9    C     C_R   0.546594 0.049486 0.507762 0.103342
C10   C     C_R   0.557109 0.952877 0.505869 0.113354
C11   C     C_R   0.404268 0.542055 0.104669 -0.284124
C12   C     C_R   0.508513 0.672482 0.499386 0.853651
C13   C     C_R   0.611045 0.513382 0.895252 -0.294052
C14   C     C_R   0.406620 0.541445 0.204102 0.049286
C15   C     C_R   0.608726 0.513629 0.795793 0.036821
C16   C     C_R   0.259999 0.502835 0.499974 0.881332
C17   C     C_R   0.739880 0.496051 0.500155 0.864943
C18   C     C_R   0.594135 0.459255 0.204786 0.020155
C19   C     C_R   0.391041 0.487668 0.795884 0.011189
C20   C     C_R   0.596389 0.459227 0.105316 -0.295924
C21   C     C_R   0.388943 0.488209 0.895341 -0.302179
C22   C     C_R   0.500187 0.500619 0.053381 0.130959
C23   C     C_R   0.872356 0.493012 0.499975 -0.079607
C24   C     C_R   0.500073 0.500709 0.946906 0.140607
C25   C     C_R   0.233043 0.756196 0.339487 -0.127923
C26   C     C_R   0.747300 0.260959 0.682805 -0.136283
C27   C     C_R   0.191581 0.688176 0.400060 -0.119391
C28   C     C_R   0.803145 0.316270 0.614750 -0.126322
C29   C     C_R   0.117483 0.618091 0.365041 0.129889
C30   C     C_R   0.878107 0.388690 0.642601 0.136181
C31   C     C_R   0.085903 0.617335 0.268378 -0.194431
C32   C     C_R   0.897281 0.404382 0.739400 -0.188188
C33   C     C_R   0.127901 0.685389 0.208016 -0.167886
C34   C     C_R   0.127515 0.504460 0.500544 -0.083721
C35   C     C_R   0.840085 0.349484 0.807232 -0.161158
C36   C     C_R   0.201152 0.754864 0.243581 -0.117829
C37   C     C_R   0.765078 0.277886 0.778950 -0.119437
C38   C     C_R   0.932666 0.543246 0.430418 -0.255904
C39   C     C_R   0.067342 0.453329 0.570017 -0.256505
C40   C     C_R   0.345807 0.215896 0.631591 0.116451
C41   C     C_R   0.382870 0.246877 0.720869 -0.087955
C42   C     C_R   0.293254 0.271914 0.787166 -0.172259
C43   C     C_R   0.166388 0.265205 0.765177 -0.133096
C44   C     C_R   0.128965 0.233537 0.676750 -0.139071
C45   C     C_R   0.938885 0.446746 0.570595 -0.001535
C46   C     C_R   0.218286 0.209299 0.609867 -0.181247
C47   C     C_R   0.592384 0.774691 0.323086 0.140913
C48   C     C_R   0.694514 0.716800 0.315976 -0.078995
C49   C     C_R   0.724711 0.678388 0.229143 -0.129912
C50   C     C_R   0.654419 0.698630 0.148553 -0.102408
C51   C     C_R   0.554604 0.757946 0.154473 -0.137972
C52   C     C_R   0.524561 0.796704 0.241104 -0.168679
C53   C     C_R   0.060548 0.552015 0.431103 0.010090
C54   C     C_R   0.456684 0.087935 0.566291 -0.223675
C55   C     C_R   0.570082 0.909353 0.419384 -0.224233
C56   C     C_R   0.439322 0.179415 0.565965 -0.023826
H1    H     H_    0.232480 0.807905 0.196836 0.118858
H2    H     H_    0.304904 0.476916 0.757634 0.137076
H3    H     H_    0.671921 0.425855 0.069388 0.131160
H4    H     H_    0.301125 0.477278 0.931558 0.131879
H5    H     H_    0.288297 0.810669 0.367340 0.131896
H6    H     H_    0.690536 0.204796 0.661052 0.139710
H7    H     H_    0.214144 0.691608 0.474651 0.104493
H8    H     H_    0.789262 0.302271 0.540470 0.102569
H9    H     H_    0.028012 0.564418 0.239985 0.124327
H10   H     H_    0.955334 0.459594 0.762232 0.123127
H11   H     H_    0.103129 0.684466 0.133782 0.128343
H12   H     H_    0.721169 0.235294 0.831518 0.120123
H13   H     H_    0.854099 0.362392 0.881726 0.122933
H14   H     H_    0.879208 0.579888 0.378293 0.147567
H15   H     H_    0.120893 0.416622 0.622394 0.171466
H16   H     H_    0.398096 0.046679 0.611517 0.140149
H17   H     H_    0.584323 0.947368 0.354742 0.132164
H18   H     H_    0.654292 0.234579 0.395640 0.144844
H19   H     H_    0.508849 0.777037 0.651348 0.166470
H20   H     H_    0.480760 0.250201 0.739631 0.130062
H21   H     H_    0.322129 0.295302 0.856088 0.137343
H22   H     H_    0.097255 0.283601 0.817075 0.138997
H23   H     H_    0.689858 0.074452 0.402375 0.132846
H24   H     H_    0.030824 0.226771 0.660346 0.155337
H25   H     H_    0.188246 0.183426 0.542170 0.133524
H26   H     H_    0.750191 0.701899 0.377937 0.105802
H27   H     H_    0.802611 0.633070 0.224092 0.115860
H28   H     H_    0.677658 0.668692 0.081450 0.126472
H29   H     H_    0.500877 0.774235 0.091844 0.126815
H30   H     H_    0.448889 0.844073 0.244252 0.115439
H31   H     H_    0.536625 0.936325 0.657471 0.129817
H32   H     H_    0.329141 0.576163 0.068310 0.133706
H33   H     H_    0.698873 0.524645 0.931372 0.125952
H34   H     H_    0.334186 0.574561 0.242928 0.156164
H35   H     H_    0.694382 0.525290 0.757382 0.140536
H36   H     H_    0.668025 0.426655 0.243924 0.120862
N1    N     N_R   0.500000 0.499980 0.252470 -0.091517
N2    N     N_R   0.500000 0.500020 0.747530 -0.091858
O1    O     O_R   0.500010 0.369070 0.579480 -0.607339
O2    O     O_R   0.499990 0.630930 0.420520 -0.605818
O3    O     O_R   0.500010 0.369060 0.420520 -0.621106
O4    O     O_R   0.499990 0.630940 0.579480 -0.623409
O5    O     O_R   0.316760 0.500010 0.579480 -0.634676
O6    O     O_R   0.683240 0.499990 0.420520 -0.639153
O7    O     O_R   0.316760 0.500000 0.420520 -0.618695
O8    O     O_R   0.683240 0.500000 0.579480 -0.620744
Zn1   Zn    Zn3+2 0.500000 0.500010 0.606140 0.950598
Zn2   Zn    Zn3+2 0.500000 0.499990 0.393860 0.951597

loop_
_geom_bond_atom_site_label_1
_geom_bond_atom_site_label_2
_ccdc_geom_bond_type
O5    Zn1   S    
C38   H14   S    
C23   C45   A    
C27   C29   A    
C41   C42   A    
C30   C45   S    
C43   C44   A    
C51   H29   S    
C15   N2    A    
C50   H28   S    
C6    H19   S    
C43   H22   S    
C40   C46   A    
C33   H11   S    
C17   C23   S    
C7    H23   S    
C19   C21   A    
C2    C55   A    
C11   C14   A    
O4    Zn1   S    
C37   H12   S    
O6    Zn2   S    
C33   C36   A    
C31   H9    S    
C5    H18   S    
C14   H34   S    
C16   C34   S    
C44   C46   A    
C40   C56   S    
C31   C33   A    
C4    C12   S    
C9    C10   S    
C14   N1    A    
C12   O4    A    
C39   C45   A    
N1    Zn2   S    
O1    Zn1   S    
C19   H2    S    
C54   C56   A    
C51   C52   A    
C32   C35   A    
C44   H24   S    
C21   H4    S    
C4    C6    A    
C36   H1    S    
C1    O3    A    
C5    C7    A    
C6    C8    A    
C34   C39   A    
C13   C24   A    
C1    C3    S    
C2    C4    A    
C17   O8    A    
C46   H25   S    
C3    C56   A    
C47   C48   A    
C11   H32   S    
C1    O1    A    
C50   C51   A    
C26   C37   A    
C25   H5    S    
C20   H3    S    
C10   C55   A    
C19   N2    A    
C27   H7    S    
C34   C53   A    
C28   H8    S    
C48   C49   A    
C20   C22   A    
N2    Zn1   S    
O7    Zn2   S    
C13   C15   A    
C22   C24   S    
C42   C43   A    
C35   C37   A    
C32   H10   S    
C7    C9    A    
C40   C41   A    
C13   H33   S    
C3    C5    A    
C16   O5    A    
C47   C52   A    
C2    C47   S    
C25   C27   A    
C23   C38   A    
C11   C22   A    
C26   C28   A    
C8    H31   S    
C18   H36   S    
C49   H27   S    
O2    Zn2   S    
C26   H6    S    
C28   C30   A    
C29   C31   A    
C41   H20   S    
C30   C32   A    
C38   C53   A    
C29   C53   S    
C52   H30   S    
C48   H26   S    
C18   C20   A    
O8    Zn1   S    
C17   O6    A    
O3    Zn2   S    
C25   C36   A    
C15   H35   S    
C55   H17   S    
C16   O7    A    
C54   H16   S    
C35   H13   S    
C42   H21   S    
C8    C10   A    
C49   C50   A    
C21   C24   A    
C18   N1    A    
C39   H15   S    
C12   O2    A    
C9    C54   A    
