data_mof_unit_28487.cif
_audit_creation_date              2012-12-11T14:44:37-0500
_audit_creation_method            fapswitch 2.2
_symmetry_space_group_name_H-M    P1
_symmetry_Int_Tables_number       1
_space_group_crystal_system       triclinic
_cell_length_a                    19.931395
_cell_length_b                    7.223576
_cell_length_c                    19.679956
_cell_angle_alpha                 89.885739
_cell_angle_beta                  98.42595
_cell_angle_gamma                 90.132923
_cell_volume                      2802.84487131

loop_
_atom_site_label
_atom_site_type_symbol
_atom_type_description
_atom_site_fract_x
_atom_site_fract_y
_atom_site_fract_z
_atom_type_partial_charge
O1    O     O_R   0.673210 0.377390 0.686390 -0.540485
O2    O     O_R   0.326790 0.622610 0.313610 -0.540065
O3    O     O_R   0.826790 0.877390 0.813610 -0.539126
O4    O     O_R   0.173210 0.122610 0.186390 -0.539217
O5    O     O_R   0.810750 0.706450 0.681250 -0.531392
O6    O     O_R   0.189250 0.293550 0.318750 -0.531249
O7    O     O_R   0.689250 0.206450 0.818750 -0.541477
O8    O     O_R   0.310750 0.793550 0.181250 -0.540736
C1    C     C_R   0.831375 0.538716 0.665673 0.696847
C2    C     C_R   0.168626 0.461285 0.334328 0.697444
C3    C     C_R   0.668876 0.038227 0.834532 0.694214
C4    C     C_R   0.331127 0.961757 0.165478 0.692373
O9    O     O_R   0.672750 0.707060 0.678240 -0.536517
O10   O     O_R   0.327250 0.292940 0.321760 -0.537136
O11   O     O_R   0.827250 0.207060 0.821760 -0.536128
O12   O     O_R   0.172750 0.792940 0.178240 -0.536032
O13   O     O_R   0.687800 0.877990 0.810580 -0.531129
O14   O     O_R   0.312200 0.122010 0.189420 -0.531141
O15   O     O_R   0.812200 0.377990 0.689420 -0.538248
O16   O     O_R   0.187800 0.622010 0.310580 -0.538157
C5    C     C_R   0.648135 0.537320 0.661543 0.701182
C6    C     C_R   0.351867 0.462679 0.338454 0.700595
C7    C     C_R   0.851872 0.037433 0.838443 0.707189
C8    C     C_R   0.148129 0.962567 0.161555 0.707098
O17   O     O_3   0.755100 0.544060 0.793420 -0.377041
O18   O     O_3   0.244900 0.455940 0.206580 -0.376737
O19   O     O_3   0.744900 0.044060 0.706580 -0.375248
O20   O     O_3   0.255100 0.955940 0.293420 -0.375147
V1    V     V_3+5 0.749050 0.818670 0.741950 1.481393
V2    V     V_3+5 0.250950 0.181330 0.258050 1.479948
V3    V     V_3+5 0.750950 0.318670 0.758050 1.469027
V4    V     V_3+5 0.249050 0.681330 0.241950 1.469704
C9    C     C_R   0.086165 0.983478 0.109611 -0.060582
C10   C     C_R   0.913837 0.016524 0.890386 -0.060545
C11   C     C_R   0.413809 0.483936 0.390414 -0.066764
C12   C     C_R   0.586196 0.516056 0.609579 -0.066287
C13   C     C_R   0.014427 0.832499 0.932599 -0.163143
C14   C     C_R   0.985578 0.167507 0.067397 -0.161771
C15   C     C_R   0.485864 0.330461 0.567129 -0.153090
C16   C     C_R   0.514145 0.669520 0.432860 -0.155480
C17   C     C_R   0.960513 0.875665 0.881171 -0.100570
C18   C     C_R   0.039489 0.124338 0.118825 -0.100370
C19   C     C_R   0.539736 0.373751 0.618591 -0.096684
C20   C     C_R   0.460274 0.626223 0.381396 -0.102707
C21   C     C_R   0.923181 0.116663 0.952273 -0.221789
C22   C     C_R   0.076823 0.883342 0.047723 -0.222661
C23   C     C_R   0.576674 0.617464 0.547860 -0.220990
C24   C     C_R   0.423330 0.382532 0.452133 -0.220630
C25   C     C_R   0.977078 0.072017 0.004858 0.145661
C26   C     C_R   0.022926 0.927989 0.995137 0.146036
C27   C     C_R   0.522817 0.572717 0.495237 0.142173
C28   C     C_R   0.477189 0.427274 0.504754 0.140773
H1    H     H_    0.112851 0.776514 0.039438 0.127578
H2    H     H_    0.887153 0.223491 0.960559 0.128379
H3    H     H_    0.387468 0.274578 0.460268 0.125239
H4    H     H_    0.612535 0.725424 0.539727 0.124650
H5    H     H_    0.045450 0.204002 0.165932 0.148919
H6    H     H_    0.954552 0.796001 0.834065 0.148644
H7    H     H_    0.454182 0.706890 0.334419 0.151294
H8    H     H_    0.545834 0.293061 0.665563 0.153784
H9    H     H_    0.048950 0.722460 0.923722 0.137304
H10   H     H_    0.951054 0.277547 0.076273 0.138823
H11   H     H_    0.451511 0.219318 0.575849 0.141787
H12   H     H_    0.548500 0.780655 0.424138 0.139739
C29   C     C_R   0.570232 0.165358 0.884630 -0.089414
C30   C     C_R   0.429763 0.834495 0.115472 -0.088347
C31   C     C_R   0.927363 0.381768 0.620490 -0.092939
C32   C     C_R   0.072643 0.618240 0.379515 -0.092739
C33   C     C_R   0.619210 0.027604 0.883756 -0.101628
C34   C     C_R   0.380724 0.972147 0.116186 -0.106529
C35   C     C_R   0.881583 0.529088 0.616941 -0.105919
C36   C     C_R   0.118423 0.470920 0.383065 -0.105815
C37   C     C_R   0.619704 0.877150 0.928595 -0.090382
C38   C     C_R   0.379968 0.121834 0.070995 -0.087957
C39   C     C_R   0.884166 0.666595 0.567429 -0.070300
C40   C     C_R   0.115849 0.333434 0.432586 -0.070061
C41   C     C_R   0.573046 0.864491 0.976033 0.061719
C42   C     C_R   0.426542 0.134009 0.023481 0.078886
C43   C     C_R   0.931173 0.657755 0.520269 0.046065
C44   C     C_R   0.068846 0.342286 0.479750 0.045970
C45   C     C_R   0.523394 0.004654 0.976307 0.028746
C46   C     C_R   0.476152 0.993660 0.023198 0.020099
C47   C     C_R   0.976706 0.506136 0.523718 0.017351
C48   C     C_R   0.023314 0.493907 0.476301 0.017412
C49   C     C_R   0.520136 0.153246 0.928393 0.017309
C50   C     C_R   0.479435 0.845151 0.071156 -0.002787
C51   C     C_R   0.976364 0.369031 0.575629 -0.002585
C52   C     C_R   0.023654 0.631008 0.424389 -0.002696
C53   C     C_R   0.575448 0.714772 0.023001 -0.179123
C54   C     C_R   0.424023 0.283267 0.976324 -0.184565
C55   C     C_R   0.932714 0.796601 0.469549 -0.196897
C56   C     C_R   0.067310 0.203452 0.530474 -0.197467
C57   C     C_R   0.531810 0.710767 0.073663 0.384730
C58   C     C_R   0.467388 0.286449 0.925464 0.334352
C59   C     C_R   0.975810 0.778288 0.418803 0.387099
C60   C     C_R   0.024218 0.221777 0.581223 0.387108
H13   H     H_    0.572036 0.281607 0.850423 0.192367
H14   H     H_    0.428353 0.719746 0.150395 0.195959
H15   H     H_    0.923672 0.277286 0.658945 0.202675
H16   H     H_    0.076325 0.722691 0.341048 0.202531
H17   H     H_    0.658209 0.772325 0.927251 0.117450
H18   H     H_    0.341401 0.226571 0.072191 0.120196
H19   H     H_    0.848045 0.778882 0.565242 0.123735
H20   H     H_    0.151972 0.221149 0.434776 0.123910
C61   C     C_1   0.621032 0.561522 0.016962 0.462143
N1    N     N_1   0.657385 0.439484 0.011425 -0.324885
C62   C     C_1   0.378816 0.437396 0.982399 0.419977
N2    N     N_1   0.342807 0.560256 0.987874 -0.323609
C63   C     C_1   0.891815 0.961570 0.471809 0.460181
N3    N     N_1   0.859181 0.093050 0.474409 -0.316073
C64   C     C_1   0.108205 0.038474 0.528217 0.460184
N4    N     N_1   0.140836 0.906986 0.525620 -0.314781
S1    S     S_3+6 0.545436 0.547763 0.143247 -0.017029
O21   O     O_2   0.545269 0.649484 0.209815 -0.334549
O22   O     O_2   0.488537 0.409292 0.134947 -0.367010
O23   O     O_3   0.619491 0.433921 0.148114 -0.480609
H21   H     H_    0.617644 0.337932 0.183814 0.384675
S2    S     S_3+6 0.452641 0.446779 0.855127 0.008172
O24   O     O_2   0.506339 0.594275 0.864719 -0.332092
O25   O     O_2   0.457174 0.347079 0.788930 -0.337163
O26   O     O_3   0.376241 0.549343 0.847657 -0.459419
H22   H     H_    0.343337 0.451173 0.830426 0.355354
S3    S     S_3+6 0.967609 0.931134 0.345988 -0.021674
O27   O     O_2   0.030291 0.048816 0.350281 -0.374332
O28   O     O_2   0.961489 0.816907 0.281575 -0.329154
O29   O     O_3   0.899539 0.070552 0.339894 -0.480025
H23   H     H_    0.905098 0.158430 0.302404 0.381828
S4    S     S_3+6 0.032439 0.068982 0.654053 -0.023866
O30   O     O_2   0.038496 0.183240 0.718455 -0.331508
O31   O     O_2   0.969797 0.951138 0.649743 -0.374037
O32   O     O_3   0.100562 0.929749 0.660185 -0.480554
H24   H     H_    0.095033 0.841905 0.697693 0.381008

loop_
_geom_bond_atom_site_label_1
_geom_bond_atom_site_label_2
_ccdc_geom_bond_type
O17   V3    S    
C24   H3    S    
C47   C51   A    
O1    C5    A    
O29   H23   S    
O19   V1    S    
O13   V1    S    
O3    C7    A    
C64   N4    T    
O1    V3    S    
C44   C48   A    
O15   V3    S    
S4    O30   D    
C45   C46   A    
S3    O27   D    
C5    C12   S    
C42   C54   A    
O7    C3    A    
C6    C11   S    
C41   C53   A    
C9    C18   A    
O9    V1    S    
C17   H6    S    
C14   C18   A    
O4    C8    A    
S3    O28   D    
C20   H7    S    
C56   C60   A    
O23   H21   S    
C60   S4    S    
C12   C23   A    
O2    V4    S    
O3    V1    S    
C34   C38   A    
S2    O24   D    
C1    O15   A    
C2    O16   A    
C43   C47   A    
O2    C6    A    
C62   N2    T    
C33   C37   A    
O14   V2    S    
C21   C25   A    
C16   C20   A    
C43   C55   A    
C31   H15   S    
C38   H18   S    
S1    O23   S    
O11   C7    A    
C15   C28   A    
C52   C59   A    
O12   C8    A    
C39   H19   S    
C9    C22   A    
C10   C17   A    
O10   V2    S    
C11   C24   A    
C18   H5    S    
C54   C58   A    
O5    V1    S    
O7    V3    S    
C27   C28   A    
O8    V4    S    
C1    C35   S    
C14   C25   A    
O18   V4    S    
S3    O29   S    
C23   C27   A    
C46   C50   A    
C53   C57   A    
O4    V2    S    
C32   C36   A    
S2    O26   S    
C44   C56   A    
C40   H20   S    
C32   H16   S    
O5    C1    A    
C50   C57   A    
C49   C58   A    
C42   C46   A    
C13   H9    S    
C47   C48   A    
C41   C45   A    
O8    C4    A    
C7    C10   S    
C51   C60   A    
O9    C5    A    
C36   C40   A    
C10   C21   A    
C57   S1    S    
C29   C49   A    
C11   C20   A    
O26   H22   S    
C19   H8    S    
O6    V2    S    
C21   H2    S    
C54   C62   S    
C32   C52   A    
C40   C44   A    
C53   C61   S    
O32   H24   S    
S4    O32   S    
C30   C50   A    
S1    O21   D    
O16   V4    S    
C59   S3    S    
C4    C34   S    
C3    O13   A    
C48   C52   A    
S4    O31   D    
O6    C2    A    
C15   C19   A    
C3    C33   S    
C56   C64   S    
O11   V3    S    
O12   V4    S    
C16   C27   A    
C15   H11   S    
C61   N1    T    
C22   C26   A    
C31   C51   A    
C8    C9    S    
C16   H12   S    
O10   C6    A    
O20   V2    S    
C30   H14   S    
C29   H13   S    
C63   N3    T    
C35   C39   A    
C13   C26   A    
C58   S2    S    
C55   C63   S    
C30   C34   A    
C29   C33   A    
C22   H1    S    
C37   H17   S    
C31   C35   A    
C13   C17   A    
S2    O25   D    
C55   C59   A    
C24   C28   A    
C25   C26   A    
C38   C42   A    
C4    O14   A    
C37   C41   A    
C12   C19   A    
C14   H10   S    
C39   C43   A    
C45   C49   A    
C23   H4    S    
S1    O22   D    
C2    C36   S    
