data_mof_unit_59521.cif
_audit_creation_date              2012-12-10T16:50:06-0500
_audit_creation_method            fapswitch 2.2
_symmetry_space_group_name_H-M    P1
_symmetry_Int_Tables_number       1
_space_group_crystal_system       triclinic
_cell_length_a                    23.54515
_cell_length_b                    8.680822
_cell_length_c                    7.431356
_cell_angle_alpha                 103.279647
_cell_angle_beta                  94.345498
_cell_angle_gamma                 92.343679
_cell_volume                      1471.37771791

loop_
_atom_site_label
_atom_site_type_symbol
_atom_type_description
_atom_site_fract_x
_atom_site_fract_y
_atom_site_fract_z
_atom_type_partial_charge
C1    C     C_R   0.498275 0.199485 0.452929 0.889222
C2    C     C_R   0.501725 0.800515 0.547071 0.889220
C3    C     C_R   0.245618 0.545003 0.683320 0.355861
C4    C     C_R   0.754385 0.454980 0.316704 0.355856
C5    C     C_R   0.304634 0.544655 0.674563 -0.244772
C6    C     C_R   0.695369 0.455359 0.325445 -0.244773
C7    C     C_R   0.328165 0.490494 0.504432 -0.171798
C8    C     C_R   0.671836 0.509493 0.495575 -0.171808
C9    C     C_R   0.290982 0.432392 0.341432 0.271848
C10   C     C_R   0.709017 0.567542 0.658588 0.271860
C11   C     C_R   0.232259 0.437356 0.350743 -0.115239
C12   C     C_R   0.767740 0.562551 0.649290 -0.115242
C13   C     C_R   0.209168 0.493514 0.519689 0.199430
C14   C     C_R   0.790833 0.506420 0.480345 0.199435
C15   C     C_2   0.497441 0.031430 0.426526 -0.334875
C16   C     C_2   0.502559 0.968570 0.573474 -0.334878
C17   C     C_R   0.390843 0.495721 0.501184 0.853311
C18   C     C_R   0.609157 0.504278 0.498816 0.853309
C19   C     C_R   0.883756 0.646108 0.531512 0.603870
C20   C     C_R   0.116245 0.353823 0.468544 0.603862
C21   C     C_R   0.876638 0.363497 0.434275 0.651676
C22   C     C_R   0.123362 0.636435 0.565760 0.651668
C23   C     C_R   0.935984 0.359646 0.435416 -0.063157
C24   C     C_R   0.064017 0.640285 0.564628 -0.063156
C25   C     C_R   0.969956 0.502118 0.496009 -0.050886
C26   C     C_R   0.030045 0.497812 0.504040 -0.050886
C27   C     C_R   0.943942 0.648307 0.549575 -0.085989
C28   C     C_R   0.056058 0.351624 0.450477 -0.085990
C29   C     C_R   0.961689 0.216165 0.376808 -0.104623
C30   C     C_R   0.038312 0.783766 0.623238 -0.104623
C31   C     C_R   0.020812 0.210530 0.381110 0.301094
C32   C     C_R   0.979189 0.789401 0.618942 0.301096
Cu1   Cu    Cu3+1 0.506340 0.517380 0.684380 1.008382
Cu2   Cu    Cu3+1 0.493660 0.482620 0.315620 1.008384
H1    H     H_    0.935698 0.106758 0.324582 0.229691
H2    H     H_    0.064303 0.893173 0.675461 0.229693
H3    H     H_    0.332089 0.587105 0.801621 0.213556
H4    H     H_    0.667916 0.412953 0.198379 0.213576
H5    H     H_    0.203959 0.394845 0.225570 0.211021
H6    H     H_    0.796038 0.605023 0.774471 0.211030
H7    H     H_    0.492620 0.959152 0.285183 0.183928
H8    H     H_    0.507379 0.040848 0.714816 0.183929
H9    H     H_    0.454853 0.379223 0.948271 0.247020
H10   H     H_    0.545147 0.620776 0.051729 0.247021
N1    N     N_R   0.851770 0.505236 0.478150 -0.462681
N2    N     N_R   0.148230 0.494696 0.521893 -0.462681
N3    N     N_2   0.484110 0.456420 0.038520 -0.207579
N4    N     N_2   0.515890 0.543580 0.961480 -0.207577
O1    O     O_R   0.504120 0.286130 0.619770 -0.588087
O2    O     O_R   0.495880 0.713870 0.380230 -0.588088
O3    O     O_R   0.493410 0.256770 0.308360 -0.576677
O4    O     O_R   0.506590 0.743230 0.691640 -0.576680
O5    O     O_R   0.423230 0.514630 0.655730 -0.595417
O6    O     O_R   0.576770 0.485370 0.344270 -0.595413
O7    O     O_R   0.412530 0.485280 0.344320 -0.537790
O8    O     O_R   0.587470 0.514720 0.655680 -0.537788
O9    O     O_2   0.856875 0.782539 0.564227 -0.434752
O10   O     O_2   0.143126 0.217392 0.435845 -0.434754
O11   O     O_2   0.843921 0.226511 0.391231 -0.451271
O12   O     O_2   0.156079 0.773422 0.608788 -0.451271
Br1   Br    Br    0.047990 0.005533 0.276676 -0.370663
Br2   Br    Br    0.952012 0.994399 0.723375 -0.370661
Br3   Br    Br    0.216441 0.612195 0.921248 -0.390487
Br4   Br    Br    0.783568 0.387796 0.078787 -0.390516
Br5   Br    Br    0.315632 0.334738 0.102690 -0.433147
Br6   Br    Br    0.684367 0.665170 0.897339 -0.433171

loop_
_geom_bond_atom_site_label_1
_geom_bond_atom_site_label_2
_ccdc_geom_bond_type
C12   H6    S    
C11   H5    S    
C19   N1    A    
C21   O11   S    
C1    C15   S    
C5    H3    S    
C25   C27   A    
C2    C16   S    
C29   H1    S    
C26   C28   A    
N3    N4    D    
C3    C13   A    
C30   H2    S    
C22   O12   S    
C20   O10   S    
Cu2   N3    S    
Cu1   O8    S    
C21   C23   A    
Cu1   Cu2   S    
C27   C32   A    
C17   O5    A    
C32   Br2   S    
Cu2   O7    S    
C29   C31   A    
C4    C14   A    
C19   O9    S    
Cu1   O4    S    
C30   C32   A    
C18   O8    A    
C9    C11   A    
Cu2   O3    S    
C2    O4    A    
C21   N1    A    
C6    C8    A    
C17   O7    A    
C10   C12   A    
C8    C10   A    
C22   N2    A    
C24   C26   A    
Cu2   O6    S    
C14   N1    S    
C3    Br3   S    
C10   Br6   S    
C2    O2    A    
Cu1   O5    S    
C13   N2    S    
C22   C24   A    
Cu2   O2    S    
C24   C30   A    
C18   O6    A    
Cu1   O1    S    
C15   C16   D    
C23   C29   A    
C11   C13   A    
C23   C25   A    
C19   C27   A    
C15   H7    S    
C4    Br4   S    
C4    C6    A    
C7    C9    A    
Cu1   N4    S    
C31   Br1   S    
C5    C7    A    
C9    Br5   S    
C1    O3    A    
C20   C28   A    
C3    C5    A    
C25   C26   A    
C16   H8    S    
C6    H4    S    
C28   C31   A    
C8    C18   S    
H10   N4    S    
C12   C14   A    
H9    N3    S    
C7    C17   S    
C20   N2    A    
C1    O1    A    
