data_mof_unit_59378.cif
_audit_creation_date              2012-12-10T20:49:45-0500
_audit_creation_method            fapswitch 2.2
_symmetry_space_group_name_H-M    P1
_symmetry_Int_Tables_number       1
_space_group_crystal_system       triclinic
_cell_length_a                    8.105225
_cell_length_b                    8.926498
_cell_length_c                    16.59501
_cell_angle_alpha                 90.002031
_cell_angle_beta                  85.534211
_cell_angle_gamma                 89.999078
_cell_volume                      1197.02489678

loop_
_atom_site_label
_atom_site_type_symbol
_atom_type_description
_atom_site_fract_x
_atom_site_fract_y
_atom_site_fract_z
_atom_type_partial_charge
C1    C     C_R   0.499999 0.782006 0.499999 0.997722
C2    C     C_R   0.500001 0.217955 0.499999 0.941184
C3    C     C_1   0.499999 0.934745 0.499999 -0.190511
C4    C     C_1   0.500001 0.065139 0.499999 -0.194562
C5    C     C_R   0.477680 0.505646 0.653766 0.934633
C6    C     C_R   0.522319 0.505648 0.346235 0.934544
C7    C     C_R   0.463207 0.550621 0.737842 -0.193991
C8    C     C_R   0.536788 0.550618 0.262161 -0.194069
C9    C     C_R   0.556264 0.673195 0.762563 0.466756
C10   C     C_R   0.443747 0.673204 0.237447 0.466568
C11   C     C_R   0.531168 0.723115 0.842246 -0.307426
C12   C     C_R   0.468804 0.723112 0.157768 -0.307147
C13   C     C_R   0.422491 0.646927 0.897587 0.029559
C14   C     C_R   0.577457 0.646911 0.102416 0.029383
C15   C     C_R   0.326139 0.527799 0.871737 0.448477
C16   C     C_R   0.673810 0.527773 0.128257 0.448483
C17   C     C_R   0.345720 0.481400 0.791592 -0.342726
C18   C     C_R   0.654251 0.481378 0.208402 -0.342468
C19   C     C_2   0.426945 0.678395 0.983661 -0.138960
C20   C     C_2   0.572994 0.678387 0.016345 -0.138972
H1    H     H_    0.401802 0.819879 0.138268 0.171983
H2    H     H_    0.598131 0.819886 0.861765 0.171813
H3    H     H_    0.727910 0.389218 0.228458 0.197202
H4    H     H_    0.272056 0.389250 0.771528 0.197248
H5    H     H_    0.687481 0.670095 0.977878 0.199191
H6    H     H_    0.312457 0.670104 0.022128 0.199172
N1    N     N_1   0.926360 0.500000 0.499990 -0.049184
N2    N     N_1   0.073640 0.500000 0.500010 -0.049100
O1    O     O_R   0.363150 0.714660 0.500000 -0.619557
O2    O     O_R   0.636850 0.285340 0.500000 -0.614918
O3    O     O_R   0.636850 0.714660 0.500000 -0.619428
O4    O     O_R   0.363150 0.285340 0.500000 -0.614902
O5    O     O_R   0.346950 0.500000 0.615800 -0.631146
O6    O     O_R   0.653050 0.500000 0.384200 -0.631316
O7    O     O_R   0.620700 0.500000 0.615800 -0.590443
O8    O     O_R   0.379300 0.500000 0.384200 -0.590693
Zn1   Zn    Zn3+2 0.317220 0.500000 0.500010 0.982125
Zn2   Zn    Zn3+2 0.682780 0.500000 0.499990 0.982142
Cl1   Cl    Cl    0.188564 0.427387 0.938959 -0.546301
Cl2   Cl    Cl    0.811351 0.427339 0.061022 -0.546277
O9    O     O_3   0.654908 0.754186 0.706087 -0.638733
C21   C     C_3   0.821961 0.746559 0.724576 0.102339
H7    H     H_    0.862820 0.627664 0.728754 0.154386
H8    H     H_    0.839960 0.804936 0.782470 0.144721
C22   C     C_3   0.929928 0.824150 0.657406 -0.320343
H9    H     H_    0.919533 0.763728 0.599488 0.236413
H10   H     H_    0.885709 0.940898 0.650066 0.233494
C23   C     C_3   0.111042 0.827972 0.676514 -0.901152
H11   H     H_    0.125074 0.893342 0.732527 0.267288
H12   H     H_    0.186694 0.881814 0.625907 0.270682
H13   H     H_    0.157373 0.712533 0.684787 0.278821
O10   O     O_3   0.345180 0.754279 0.293912 -0.638765
C24   C     C_3   0.178019 0.746027 0.275658 0.102688
H14   H     H_    0.137342 0.626968 0.272155 0.154464
H15   H     H_    0.159604 0.803283 0.217480 0.144543
C25   C     C_3   0.070265 0.824640 0.342549 -0.320730
H16   H     H_    0.080984 0.765243 0.400747 0.236425
H17   H     H_    0.114409 0.941570 0.349250 0.233613
C26   C     C_3   0.889033 0.827889 0.323630 -0.901238
H18   H     H_    0.874659 0.892347 0.267354 0.267339
H19   H     H_    0.813524 0.882397 0.374073 0.270649
H20   H     H_    0.842820 0.712264 0.315927 0.279010

loop_
_geom_bond_atom_site_label_1
_geom_bond_atom_site_label_2
_ccdc_geom_bond_type
C2    C4    S    
O3    Zn2   S    
C15   C17   A    
C14   C20   S    
C8    C18   A    
C11   C13   A    
O9    C21   S    
C11   H2    S    
C9    O9    S    
C19   C20   D    
C25   C26   S    
C2    O2    A    
C10   O10   S    
C6    O8    A    
C23   H12   S    
C26   H18   S    
C16   C18   A    
O6    Zn2   S    
C22   H9    S    
O10   C24   S    
C9    C11   A    
C15   Cl1   S    
C21   H8    S    
N2    Zn1   S    
C16   Cl2   S    
C10   C12   A    
C1    O1    A    
C23   H11   S    
C25   H17   S    
C7    C9    A    
C22   H10   S    
C13   C15   A    
C23   H13   S    
C14   C16   A    
C26   H19   S    
C17   H4    S    
O4    Zn1   S    
C20   H5    S    
C13   C19   S    
N1    Zn2   S    
C18   H3    S    
C5    O7    A    
C1    O3    A    
O7    Zn2   S    
C25   H16   S    
O2    Zn2   S    
C2    O4    A    
C21   H7    S    
C24   C25   S    
O1    Zn1   S    
N1    N2    T    
C5    C7    S    
C19   H6    S    
O8    Zn1   S    
C26   H20   S    
C6    C8    S    
C22   C23   S    
C1    C3    S    
C24   H14   S    
C24   H15   S    
C12   H1    S    
C8    C10   A    
O5    Zn1   S    
C3    C4    T    
C6    O6    A    
C12   C14   A    
C7    C17   A    
C21   C22   S    
C5    O5    A    
