data_mof_unit_55777.cif
_audit_creation_date              2012-12-10T20:33:31-0500
_audit_creation_method            fapswitch 2.2
_symmetry_space_group_name_H-M    P1
_symmetry_Int_Tables_number       1
_space_group_crystal_system       triclinic
_cell_length_a                    14.114454
_cell_length_b                    10.642026
_cell_length_c                    9.93699
_cell_angle_alpha                 89.412454
_cell_angle_beta                  88.91536
_cell_angle_gamma                 90.71467
_cell_volume                      1492.13367517

loop_
_atom_site_label
_atom_site_type_symbol
_atom_type_description
_atom_site_fract_x
_atom_site_fract_y
_atom_site_fract_z
_atom_type_partial_charge
C1    C     C_R   0.507792 0.260191 0.499591 0.876672
C2    C     C_1   0.772144 0.499232 0.497215 -0.223273
C3    C     C_R   0.548255 0.063053 0.614454 0.076583
C4    C     C_R   0.533736 0.129953 0.495482 -0.200081
C5    C     C_R   0.544341 0.065697 0.371280 0.221590
C6    C     C_R   0.537605 0.935199 0.373152 -0.310097
C7    C     C_R   0.526238 0.871137 0.496382 -0.139363
C8    C     C_R   0.543867 0.934726 0.614877 0.084431
C9    C     C_3   0.498927 0.925607 0.752058 -0.468722
C10   C     C_3   0.504797 0.068583 0.753116 0.028981
C11   C     C_R   0.418015 0.473797 0.073595 0.094991
C12   C     C_R   0.329348 0.500016 0.501214 0.903713
C13   C     C_R   0.579811 0.534278 0.065186 0.123849
C14   C     C_R   0.577086 0.537053 0.922637 -0.175028
C15   C     C_R   0.419258 0.473501 0.931149 0.105387
C16   C     C_3   0.362329 0.356495 0.921050 -0.004871
C17   C     C_3   0.361900 0.351423 0.075720 -0.198285
C18   C     C_R   0.504401 0.740116 0.499191 0.885155
C19   C     C_R   0.670662 0.499873 0.498936 0.875777
C20   C     C_1   0.227837 0.500277 0.503509 -0.221200
C21   C     C_1   0.142518 0.500208 0.503389 -0.038424
C22   C     C_1   0.042639 0.499678 0.501584 -0.006330
C23   C     C_1   0.957345 0.499223 0.499597 0.001477
C24   C     C_1   0.857463 0.498985 0.497714 -0.031857
H1    H     H_    0.402660 0.280526 0.873064 0.131084
H2    H     H_    0.406801 0.274259 0.114559 0.170944
H3    H     H_    0.535668 0.885749 0.278490 0.164681
H4    H     H_    0.424815 0.889057 0.749629 0.174978
H5    H     H_    0.544297 0.877283 0.826081 0.208644
H6    H     H_    0.433641 0.111649 0.755336 0.110625
H7    H     H_    0.638762 0.565331 0.862934 0.159608
N1    N     N_R   0.499420 0.499140 0.142800 -0.105303
N2    N     N_R   0.499420 0.499180 0.857150 -0.121358
O1    O     O_R   0.500010 0.316790 0.614690 -0.619480
O2    O     O_R   0.500000 0.316760 0.385350 -0.575893
O3    O     O_R   0.373720 0.500020 0.614700 -0.570028
O4    O     O_R   0.373710 0.499980 0.385350 -0.611302
O5    O     O_R   0.500000 0.683240 0.614650 -0.604998
O6    O     O_R   0.499990 0.683210 0.385310 -0.630277
O7    O     O_R   0.626290 0.500020 0.614650 -0.602237
O8    O     O_R   0.626280 0.499980 0.385300 -0.616221
Zn1   Zn    Zn3+2 0.500010 0.500020 0.653130 0.935203
Zn2   Zn    Zn3+2 0.499990 0.499980 0.346870 0.927388
N3    N     N_2   0.553854 0.129938 0.245064 -0.284350
H8    H     H_    0.528493 0.080781 0.164029 0.219809
C25   C     C_3   0.647141 0.183414 0.218286 -0.737241
H9    H     H_    0.699045 0.107326 0.200856 0.221563
H10   H     H_    0.670735 0.241827 0.303719 0.242602
H11   H     H_    0.644980 0.244681 0.127349 0.224788
C26   C     C_3   0.263688 0.354334 0.147440 -0.325670
C27   C     C_3   0.229702 0.220622 0.184562 -0.366464
C28   C     C_3   0.128500 0.219728 0.241343 -0.887119
H12   H     H_    0.124286 0.276906 0.333991 0.270103
H13   H     H_    0.079163 0.257920 0.165818 0.259940
H14   H     H_    0.106292 0.121807 0.267044 0.252016
H15   H     H_    0.232960 0.159350 0.094870 0.230087
H16   H     H_    0.277221 0.180327 0.261453 0.221837
H17   H     H_    0.267938 0.407646 0.241030 0.227706
H18   H     H_    0.209700 0.403164 0.087703 0.203995
N4    N     N_2   0.568573 0.118658 0.854358 -0.289039
H19   H     H_    0.555879 0.211303 0.876795 0.227919
C29   C     C_3   0.669329 0.093607 0.842717 -0.749852
H20   H     H_    0.705214 0.125818 0.934691 0.224094
H21   H     H_    0.700984 0.145615 0.755029 0.236642
H22   H     H_    0.682577 0.991680 0.832079 0.241508
C30   C     C_3   0.677317 0.563452 0.119983 -0.361690
C31   C     C_3   0.685886 0.697948 0.173358 -0.309957
C32   C     C_3   0.789044 0.736086 0.195063 -0.914163
H23   H     H_    0.822741 0.669683 0.265866 0.274614
H24   H     H_    0.829232 0.737051 0.097857 0.260651
H25   H     H_    0.792110 0.831895 0.238178 0.253178
H26   H     H_    0.654753 0.765080 0.100471 0.203564
H27   H     H_    0.647661 0.706468 0.270149 0.261543
H28   H     H_    0.701929 0.489265 0.188443 0.215814
H29   H     H_    0.731364 0.556278 0.037457 0.164352
N5    N     N_2   0.273370 0.381912 0.854950 -0.259949
H30   H     H_    0.238232 0.463751 0.877398 0.224982
C33   C     C_3   0.215165 0.275424 0.818147 -0.773437
H31   H     H_    0.170476 0.302352 0.732081 0.242336
H32   H     H_    0.167676 0.247009 0.903436 0.238489
H33   H     H_    0.259473 0.194813 0.787010 0.227664

loop_
_geom_bond_atom_site_label_1
_geom_bond_atom_site_label_2
_ccdc_geom_bond_type
C13   N1    A    
O3    Zn1   S    
O1    Zn1   S    
C14   H7    S    
C14   N2    A    
C7    C8    A    
N3    H8    S    
C25   H11   S    
C17   H2    S    
N5    C33   S    
O5    Zn1   S    
C5    C6    A    
C33   H32   S    
C15   C16   S    
C30   H28   S    
N4    C29   S    
C31   H26   S    
C12   O4    A    
C29   H21   S    
C32   H23   S    
C11   C15   A    
N3    C25   S    
C16   C17   S    
C23   C24   S    
C27   H16   S    
C12   O3    A    
O2    Zn2   S    
C9    C10   S    
C28   H14   S    
C9    H5    S    
O7    Zn1   S    
C30   C31   S    
C21   C22   S    
O8    Zn2   S    
C28   H13   S    
C1    O1    A    
C13   C30   S    
C25   H10   S    
C27   C28   S    
C26   H17   S    
N5    H30   S    
C3    C8    A    
C33   H31   S    
C8    C9    S    
O6    Zn2   S    
C31   C32   S    
N4    H19   S    
O4    Zn2   S    
C10   N4    S    
C18   O6    A    
C29   H20   S    
C10   H6    S    
C6    H3    S    
C7    C18   S    
C12   C20   S    
C26   C27   S    
C31   H27   S    
C5    N3    S    
C11   N1    A    
C2    C24   T    
C26   H18   S    
C3    C4    A    
C28   H12   S    
C1    O2    A    
C16   H1    S    
N2    Zn1   S    
C25   H9    S    
C11   C17   S    
C29   H22   S    
C2    C19   S    
C16   N5    S    
C27   H15   S    
C4    C5    A    
C17   C26   S    
C6    C7    A    
C1    C4    S    
C18   O5    A    
C3    C10   S    
C33   H33   S    
C32   H25   S    
C30   H29   S    
N1    Zn2   S    
C19   O7    A    
C20   C21   T    
C32   H24   S    
C22   C23   T    
C13   C14   A    
C15   N2    A    
C19   O8    A    
C9    H4    S    
