data_mof_unit_65854.cif
_audit_creation_date              2012-12-10T18:53:16-0500
_audit_creation_method            fapswitch 2.2
_symmetry_space_group_name_H-M    P1
_symmetry_Int_Tables_number       1
_space_group_crystal_system       triclinic
_cell_length_a                    27.44167
_cell_length_b                    27.554217
_cell_length_c                    18.158889
_cell_angle_alpha                 90.046412
_cell_angle_beta                  89.636207
_cell_angle_gamma                 89.963688
_cell_volume                      13730.2643949

loop_
_atom_site_label
_atom_site_type_symbol
_atom_type_description
_atom_site_fract_x
_atom_site_fract_y
_atom_site_fract_z
_atom_type_partial_charge
C1    C     C_R   0.065891 0.433716 0.499976 0.912549
C2    C     C_R   0.933773 0.566085 0.500196 0.912846
C3    C     C_R   0.933979 0.433705 0.500084 0.923758
C4    C     C_R   0.065913 0.566895 0.500037 0.895147
C5    C     C_R   0.566323 0.934062 0.499856 0.918897
C6    C     C_R   0.433538 0.066238 0.500221 0.891699
C7    C     C_R   0.433234 0.934059 0.500094 0.884867
C8    C     C_R   0.566468 0.065974 0.499853 0.907207
C9    C     C_R   0.255328 0.708921 0.537995 0.322512
C10   C     C_R   0.758345 0.278401 0.438166 0.324806
C11   C     C_R   0.786644 0.249714 0.557579 0.322299
C12   C     C_R   0.200802 0.763597 0.471786 0.322920
C13   C     C_R   0.791416 0.754580 0.451994 0.320337
C14   C     C_R   0.257683 0.295014 0.523359 0.314581
C15   C     C_R   0.197256 0.234265 0.488263 0.317478
C16   C     C_R   0.748659 0.713281 0.552088 0.323343
C17   C     C_R   0.750564 0.213661 0.557504 0.320140
C18   C     C_R   0.237053 0.799244 0.471144 0.323921
C19   C     C_R   0.291532 0.744605 0.537413 0.325382
C20   C     C_R   0.722147 0.242468 0.438136 0.318616
C21   C     C_R   0.233233 0.198272 0.490291 0.316618
C22   C     C_R   0.712820 0.749621 0.552062 0.317255
C23   C     C_R   0.755511 0.790873 0.451790 0.320864
C24   C     C_R   0.294202 0.259670 0.520391 0.315885
C25   C     C_R   0.790430 0.282160 0.498032 -0.217463
C26   C     C_R   0.210105 0.718458 0.504963 -0.217201
C27   C     C_R   0.209338 0.282660 0.505427 -0.204818
C28   C     C_R   0.787910 0.715689 0.501963 -0.215174
C29   C     C_R   0.282346 0.789555 0.503714 -0.220963
C30   C     C_R   0.718111 0.210150 0.497939 -0.213188
C31   C     C_R   0.716105 0.788382 0.501729 -0.210264
C32   C     C_R   0.281975 0.211064 0.504822 -0.201957
C33   C     C_R   0.998986 0.500262 0.078544 -0.153258
C34   C     C_R   0.999690 0.500144 0.921272 -0.154864
C35   C     C_R   0.500212 0.000685 0.078704 -0.146899
C36   C     C_R   0.500413 0.000499 0.921382 -0.146888
C37   C     C_R   0.956936 0.502153 0.721707 0.755358
C38   C     C_R   0.956790 0.502701 0.279416 0.739776
C39   C     C_R   0.043068 0.498230 0.720976 0.769339
C40   C     C_R   0.042621 0.496402 0.277459 0.775743
C41   C     C_R   0.458079 0.009596 0.722124 0.794115
C42   C     C_R   0.492339 0.042385 0.279022 0.767048
C43   C     C_R   0.542327 0.991526 0.720900 0.741556
C44   C     C_R   0.508841 0.958117 0.278101 0.771117
C45   C     C_R   0.956148 0.502226 0.799098 -0.221011
C46   C     C_R   0.955658 0.502964 0.201961 -0.223454
C47   C     C_R   0.043724 0.498193 0.798416 -0.217567
C48   C     C_R   0.042992 0.496623 0.200082 -0.221822
C49   C     C_R   0.457707 0.010491 0.799386 -0.210324
C50   C     C_R   0.491380 0.043163 0.201738 -0.212429
C51   C     C_R   0.543007 0.990720 0.798201 -0.223950
C52   C     C_R   0.509564 0.957810 0.200829 -0.220409
C53   C     C_R   0.130819 0.617551 0.437035 0.360010
C54   C     C_R   0.853114 0.400574 0.539021 0.357477
C55   C     C_R   0.906198 0.351616 0.460472 0.339337
C56   C     C_R   0.110523 0.634242 0.565969 0.376875
C57   C     C_R   0.906024 0.649348 0.534223 0.320204
C58   C     C_R   0.144476 0.398252 0.456555 0.345448
C59   C     C_R   0.095251 0.354048 0.546400 0.343187
C60   C     C_R   0.850693 0.595925 0.468091 0.360346
C61   C     C_R   0.645773 0.098006 0.451455 0.356286
C62   C     C_R   0.361092 0.893683 0.560855 0.340004
C63   C     C_R   0.388228 0.864711 0.440192 0.369098
C64   C     C_R   0.602574 0.143317 0.547114 0.336352
C65   C     C_R   0.386387 0.132380 0.564867 0.377199
C66   C     C_R   0.595075 0.850101 0.472774 0.339188
C67   C     C_R   0.651342 0.908187 0.526962 0.354423
C68   C     C_R   0.364789 0.110975 0.438528 0.356990
C69   C     C_R   0.165485 0.654318 0.439219 -0.083972
C70   C     C_R   0.818505 0.363488 0.538323 -0.082226
C71   C     C_R   0.871191 0.314859 0.460192 -0.060475
C72   C     C_R   0.145497 0.670803 0.566415 -0.077124
C73   C     C_R   0.870477 0.685626 0.534318 -0.065535
C74   C     C_R   0.178135 0.360547 0.456320 -0.087880
C75   C     C_R   0.130597 0.317807 0.548450 -0.068268
C76   C     C_R   0.815434 0.632491 0.468693 -0.086255
C77   C     C_R   0.682501 0.133043 0.451514 -0.066552
C78   C     C_R   0.324902 0.858358 0.561311 -0.076390
C79   C     C_R   0.351636 0.829763 0.441978 -0.084474
C80   C     C_R   0.639548 0.178080 0.546261 -0.072714
C81   C     C_R   0.348437 0.165818 0.566155 -0.086899
C82   C     C_R   0.631676 0.814909 0.473308 -0.079794
C83   C     C_R   0.687629 0.872613 0.527387 -0.079067
C84   C     C_R   0.328941 0.146727 0.439944 -0.082003
C85   C     C_R   0.172891 0.680638 0.503517 0.068458
C86   C     C_R   0.827414 0.320725 0.498997 0.072960
C87   C     C_R   0.825245 0.677328 0.501590 0.075787
C88   C     C_R   0.171831 0.320689 0.503005 0.065257
C89   C     C_R   0.679477 0.173082 0.498649 0.069417
C90   C     C_R   0.320356 0.826510 0.502350 0.073265
C91   C     C_R   0.320241 0.173727 0.503707 0.061823
C92   C     C_R   0.677909 0.825965 0.500695 0.073242
C93   C     C_R   0.018510 0.540024 0.960947 0.310457
C94   C     C_R   0.980102 0.460418 0.038898 0.311154
C95   C     C_R   0.980470 0.460345 0.960991 0.308821
C96   C     C_R   0.018206 0.540053 0.038853 0.309298
C97   C     C_R   0.531628 0.031824 0.960885 0.311363
C98   C     C_R   0.468259 0.970119 0.039198 0.311538
C99   C     C_R   0.469073 0.969299 0.961408 0.305832
C100  C     C_R   0.532264 0.031171 0.038682 0.305856
C101  C     C_R   0.999882 0.500142 0.838546 0.036351
C102  C     C_R   0.999172 0.500105 0.161237 0.032928
C103  C     C_R   0.500378 0.000460 0.838641 0.023707
C104  C     C_R   0.500239 0.000553 0.161443 0.024311
C105  C     C_R   0.102649 0.606433 0.500856 -0.235188
C106  C     C_R   0.897374 0.394895 0.500026 -0.202313
C107  C     C_R   0.896415 0.604185 0.500775 -0.203683
C108  C     C_R   0.102129 0.394842 0.500508 -0.209627
C109  C     C_R   0.605269 0.102845 0.499425 -0.203775
C110  C     C_R   0.394024 0.897148 0.500395 -0.234681
C111  C     C_R   0.394794 0.103596 0.501038 -0.229346
C112  C     C_R   0.604697 0.897065 0.499654 -0.211854
Cu1   Cu    Cu3+1 1.000000 0.500000 0.573360 1.177128
Cu2   Cu    Cu3+1 0.000000 0.500000 0.426640 1.165064
Cu3   Cu    Cu3+1 0.500000 1.000000 0.573360 1.168391
Cu4   Cu    Cu3+1 0.500000 1.000000 0.426640 1.170272
H1    H     H_    0.921589 0.504068 0.828109 0.220829
H2    H     H_    0.921017 0.505326 0.173940 0.221237
H3    H     H_    0.078237 0.496598 0.826911 0.217377
H4    H     H_    0.077315 0.493752 0.170615 0.221016
H5    H     H_    0.424166 0.018936 0.828443 0.225604
H6    H     H_    0.484221 0.077004 0.173498 0.224686
H7    H     H_    0.576801 0.982941 0.826336 0.225994
H8    H     H_    0.517368 0.924292 0.171864 0.225969
H9    H     H_    0.187144 0.662323 0.390587 0.206448
H10   H     H_    0.784376 0.368105 0.567858 0.203725
H11   H     H_    0.878103 0.281604 0.429986 0.206476
H12   H     H_    0.151431 0.691796 0.616070 0.207632
H13   H     H_    0.878076 0.720388 0.559704 0.205777
H14   H     H_    0.210282 0.363073 0.421554 0.211450
H15   H     H_    0.125783 0.287133 0.585079 0.213306
H16   H     H_    0.780250 0.625973 0.443815 0.203641
H17   H     H_    0.713626 0.129026 0.414986 0.208416
H18   H     H_    0.299856 0.855880 0.607563 0.205636
H19   H     H_    0.347555 0.804840 0.396211 0.204630
H20   H     H_    0.637070 0.209304 0.582422 0.207680
H21   H     H_    0.341634 0.186821 0.615670 0.213121
H22   H     H_    0.624058 0.778754 0.452887 0.206411
H23   H     H_    0.723456 0.881256 0.548418 0.206805
H24   H     H_    0.307072 0.152986 0.391366 0.213484
N1    N     N_R   1.000000 0.500000 0.683620 -0.301109
N2    N     N_R   1.000000 0.500000 0.316380 -0.311238
N3    N     N_R   0.500000 0.000000 0.683620 -0.308216
N4    N     N_R   0.500000 1.000000 0.316380 -0.307048
O1    O     O_R   0.049900 0.450090 0.561980 -0.531899
O2    O     O_R   0.950100 0.549910 0.438020 -0.542178
O3    O     O_R   0.950100 0.549910 0.561980 -0.514961
O4    O     O_R   0.049900 0.450090 0.438020 -0.521054
O5    O     O_R   0.950100 0.450090 0.438020 -0.525108
O6    O     O_R   0.049900 0.549910 0.561980 -0.515576
O7    O     O_R   0.049900 0.549910 0.438020 -0.529705
O8    O     O_R   0.950100 0.450090 0.561980 -0.531184
O9    O     O_R   0.549900 0.950090 0.561980 -0.535390
O10   O     O_R   0.450100 0.049910 0.438020 -0.517212
O11   O     O_R   0.450100 0.049910 0.561980 -0.503713
O12   O     O_R   0.549900 0.950090 0.438020 -0.512889
O13   O     O_R   0.450100 0.950090 0.438020 -0.524856
O14   O     O_R   0.549900 0.049910 0.561980 -0.518467
O15   O     O_R   0.549900 0.049910 0.438020 -0.540723
O16   O     O_R   0.450100 0.950090 0.561980 -0.542895
F1    F     F_    0.914273 0.504545 0.684948 -0.564331
F2    F     F_    0.914210 0.504552 0.317291 -0.566954
F3    F     F_    0.085863 0.496689 0.683424 -0.584722
F4    F     F_    0.085251 0.491852 0.313218 -0.542886
F5    F     F_    0.416134 0.019050 0.686221 -0.556563
F6    F     F_    0.486440 0.084626 0.316209 -0.581614
F7    F     F_    0.584635 0.984547 0.683681 -0.569961
F8    F     F_    0.517745 0.916193 0.314284 -0.549688
Cl1   Cl    Cl    0.126129 0.586759 0.352469 -0.386532
Cl2   Cl    Cl    0.838543 0.454501 0.586309 -0.384449
Cl3   Cl    Cl    0.961441 0.341368 0.412870 -0.464273
Cl4   Cl    Cl    0.077550 0.626753 0.649025 -0.399307
Cl5   Cl    Cl    0.962800 0.662383 0.574262 -0.468199
Cl6   Cl    Cl    0.159424 0.450869 0.406617 -0.380673
Cl7   Cl    Cl    0.042357 0.346200 0.600773 -0.461860
Cl8   Cl    Cl    0.835485 0.539556 0.428763 -0.397563
Cl9   Cl    Cl    0.653172 0.047591 0.392562 -0.446694
Cl10  Cl    Cl    0.360985 0.933791 0.636268 -0.414520
Cl11  Cl    Cl    0.425670 0.864779 0.361132 -0.368996
Cl12  Cl    Cl    0.552519 0.153179 0.606527 -0.425131
Cl13  Cl    Cl    0.423107 0.130689 0.644259 -0.398922
Cl14  Cl    Cl    0.537016 0.833467 0.440964 -0.415428
Cl15  Cl    Cl    0.665976 0.966714 0.559015 -0.417397
Cl16  Cl    Cl    0.368227 0.075646 0.357529 -0.446682
Cl17  Cl    Cl    0.267075 0.651806 0.578611 -0.379893
Cl18  Cl    Cl    0.762847 0.319506 0.363696 -0.373528
Cl19  Cl    Cl    0.827450 0.254054 0.632267 -0.371632
Cl20  Cl    Cl    0.143531 0.775643 0.431553 -0.380816
Cl21  Cl    Cl    0.840358 0.757291 0.388311 -0.392310
Cl22  Cl    Cl    0.272791 0.354604 0.551909 -0.392347
Cl23  Cl    Cl    0.137437 0.218548 0.461168 -0.387364
Cl24  Cl    Cl    0.744743 0.664967 0.615901 -0.381610
Cl25  Cl    Cl    0.746624 0.172294 0.631714 -0.369338
Cl26  Cl    Cl    0.225756 0.856135 0.429563 -0.379440
Cl27  Cl    Cl    0.348702 0.732820 0.578152 -0.382075
Cl28  Cl    Cl    0.680841 0.238993 0.363954 -0.382895
Cl29  Cl    Cl    0.216515 0.136887 0.476540 -0.389916
Cl30  Cl    Cl    0.664220 0.747012 0.616374 -0.396872
Cl31  Cl    Cl    0.759259 0.838804 0.387294 -0.386409
Cl32  Cl    Cl    0.355649 0.277274 0.533195 -0.393654
Cl33  Cl    Cl    0.041228 0.591135 0.913021 -0.374720
Cl34  Cl    Cl    0.957266 0.409397 0.086900 -0.383888
Cl35  Cl    Cl    0.958149 0.409166 0.913117 -0.383954
Cl36  Cl    Cl    0.040810 0.591062 0.086834 -0.385836
Cl37  Cl    Cl    0.569109 0.073735 0.913288 -0.375531
Cl38  Cl    Cl    0.425414 0.933641 0.086837 -0.383042
Cl39  Cl    Cl    0.431605 0.927361 0.914442 -0.394398
Cl40  Cl    Cl    0.575072 0.067669 0.085608 -0.386202

loop_
_geom_bond_atom_site_label_1
_geom_bond_atom_site_label_2
_ccdc_geom_bond_type
C16   C28   A    
C61   Cl9   S    
C47   C101  A    
C40   N2    A    
C18   Cl26  S    
C51   H7    S    
C6    C111  S    
C54   Cl2   S    
C43   N3    A    
C50   H6    S    
C34   C93   A    
C53   C69   A    
C33   C94   A    
C83   H23   S    
C72   C85   A    
C100  Cl40  S    
C13   Cl21  S    
C63   Cl11  S    
C48   H4    S    
C63   C79   A    
C78   C90   A    
C50   C104  A    
C83   C92   A    
C46   C102  A    
C77   C89   A    
C3    O8    A    
C14   C24   A    
C72   H12   S    
C36   C103  S    
C11   Cl19  S    
Cu2   N2    S    
C37   F1    S    
C40   F4    S    
C59   Cl7   S    
C64   Cl12  S    
C32   C91   S    
C11   C25   A    
C95   Cl35  S    
Cu3   Cu4   S    
C12   Cl20  S    
C23   Cl31  S    
C2    C107  S    
C67   Cl15  S    
C82   C92   A    
C46   H2    S    
C44   F8    S    
Cu1   O1    S    
C80   C89   A    
C73   C87   A    
C79   C90   A    
C16   Cl24  S    
Cu4   N4    S    
C1    O1    A    
C9    C19   A    
C65   C111  A    
C39   N1    A    
C10   C20   A    
C56   C72   A    
C41   F5    S    
C13   C28   A    
C36   C97   A    
C94   Cl34  S    
C84   C91   A    
C14   C27   A    
C35   C98   A    
C93   Cl33  S    
Cu4   O10   S    
C6    O11   A    
C53   Cl1   S    
C70   H10   S    
C47   H3    S    
C61   C109  A    
C66   Cl14  S    
C69   H9    S    
Cu3   O9    S    
C17   C30   A    
C64   C80   A    
Cu1   O8    S    
C71   H11   S    
C17   Cl25  S    
C58   Cl6   S    
C77   H17   S    
Cu2   O7    S    
C30   C89   S    
C41   C49   A    
C29   C90   S    
C13   C23   A    
C75   H15   S    
C9    C26   A    
C96   Cl36  S    
Cu3   N3    S    
C3    C106  S    
C66   C112  A    
C21   C32   A    
C73   H13   S    
C3    O5    A    
C34   C101  S    
Cu4   O12   S    
C22   C31   A    
C54   C106  A    
C55   C106  A    
C33   C102  S    
C68   C84   A    
C34   C95   A    
Cu2   O2    S    
Cu4   O15   S    
C35   C104  S    
C51   C103  A    
C61   C77   A    
C20   C30   A    
C7    O16   A    
Cu3   O14   S    
C2    O3    A    
C60   C76   A    
C12   C26   A    
C68   C111  A    
C23   C31   A    
C81   H21   S    
C24   C32   A    
C49   C103  A    
C19   Cl27  S    
C66   C82   A    
C71   C86   A    
C75   C88   A    
C15   C27   A    
C54   C70   A    
C38   F2    S    
C44   N4    A    
C49   H5    S    
C28   C87   S    
C94   C95   A    
C18   C29   A    
C67   C83   A    
C81   C91   A    
C78   H18   S    
C76   C87   A    
C84   H24   S    
C6    O10   A    
C60   C107  A    
C45   C101  A    
C42   C50   A    
C57   Cl5   S    
C10   C25   A    
C57   C107  A    
C98   C99   A    
C93   C96   A    
C65   Cl13  S    
C74   H14   S    
C42   N4    A    
C8    O14   A    
C60   Cl8   S    
C37   C45   A    
C35   C100  A    
C19   C29   A    
C33   C96   A    
C59   C75   A    
C97   C100  A    
C69   C85   A    
C58   C74   A    
C39   C47   A    
Cu1   Cu2   S    
C45   H1    S    
C40   C48   A    
C4    O7    A    
C15   Cl23  S    
C68   Cl16  S    
C16   C22   A    
Cu3   O11   S    
C57   C73   A    
Cu1   O6    S    
C62   C78   A    
C21   Cl29  S    
C11   C17   A    
C62   Cl10  S    
Cu4   O13   S    
C41   N3    A    
C7    O13   A    
C5    C112  S    
C43   F7    S    
C2    O2    A    
C5    O12   A    
C4    O6    A    
C4    C105  S    
Cu3   O16   S    
C9    Cl17  S    
C59   C108  A    
C80   H20   S    
C7    C110  S    
C48   C102  A    
C74   C88   A    
Cu1   O3    S    
C63   C110  A    
Cu2   O4    S    
C79   H19   S    
C82   H22   S    
C8    C109  S    
C76   H16   S    
C52   H8    S    
C44   C52   A    
C64   C109  A    
C55   Cl3   S    
C62   C110  A    
C43   C51   A    
C26   C85   S    
C5    O9    A    
C56   Cl4   S    
C25   C86   S    
C10   Cl18  S    
C52   C104  A    
C38   N2    A    
C36   C99   A    
C58   C108  A    
Cu1   N1    S    
C37   N1    A    
C27   C88   S    
C56   C105  A    
C38   C46   A    
C1    C108  S    
C14   Cl22  S    
C53   C105  A    
C67   C112  A    
C15   C21   A    
C24   Cl32  S    
C31   C92   S    
C12   C18   A    
C99   Cl39  S    
C22   Cl30  S    
C65   C81   A    
C98   Cl38  S    
C1    O4    A    
Cu2   O5    S    
C97   Cl37  S    
C8    O15   A    
C39   F3    S    
C20   Cl28  S    
C55   C71   A    
C42   F6    S    
C70   C86   A    
