data_mof_unit_41870.cif
_audit_creation_date              2012-12-10T17:43:42-0500
_audit_creation_method            fapswitch 2.2
_symmetry_space_group_name_H-M    P1
_symmetry_Int_Tables_number       1
_space_group_crystal_system       triclinic
_cell_length_a                    14.94578
_cell_length_b                    10.59911
_cell_length_c                    9.951533
_cell_angle_alpha                 95.060932
_cell_angle_beta                  88.292029
_cell_angle_gamma                 90.704949
_cell_volume                      1569.52433124

loop_
_atom_site_label
_atom_site_type_symbol
_atom_type_description
_atom_site_fract_x
_atom_site_fract_y
_atom_site_fract_z
_atom_type_partial_charge
C1    C     C_R   0.505965 0.259938 0.495264 0.866581
C2    C     C_R   0.183817 0.417250 0.579286 -0.220101
C3    C     C_R   0.231905 0.502963 0.506159 -0.043348
C4    C     C_R   0.327199 0.499793 0.501836 0.840076
C5    C     C_R   0.189400 0.591174 0.435085 -0.256479
C6    C     C_R   0.619864 0.132039 0.671747 -0.195820
C7    C     C_R   0.647226 0.084799 0.789882 -0.361348
C8    C     C_R   0.603704 0.978679 0.837203 0.490242
C9    C     C_R   0.537877 0.914995 0.758940 0.467186
C10   C     C_R   0.522358 0.950444 0.626442 -0.161660
C11   C     C_R   0.552935 0.068993 0.593700 0.062939
C12   C     C_R   0.910592 0.593021 0.428156 0.038957
C13   C     C_R   0.510252 0.125154 0.489730 -0.143068
C14   C     C_R   0.448946 0.057495 0.409026 -0.179307
C15   C     C_R   0.434414 0.930982 0.421105 0.456937
C16   C     C_R   0.492770 0.740296 0.506953 0.890160
C17   C     C_R   0.477169 0.874685 0.524629 -0.263129
C18   C     C_R   0.420453 0.294762 0.111573 0.333796
C19   C     C_R   0.344791 0.234541 0.050353 0.359754
C20   C     C_R   0.325926 0.258154 0.919470 -0.241055
C21   C     C_R   0.380076 0.341069 0.852550 -0.248627
C22   C     C_R   0.444128 0.418041 0.922272 0.134967
C23   C     C_R   0.948860 0.321458 0.636769 0.526498
C24   C     C_R   0.452254 0.408243 0.063439 0.094923
C25   C     C_R   0.546380 0.587587 0.077621 -0.080600
C26   C     C_R   0.549886 0.583742 0.934354 -0.026795
C27   C     C_R   0.673076 0.501943 0.498212 0.927253
C28   C     C_R   0.817325 0.587824 0.419200 0.410251
C29   C     C_R   0.769085 0.502207 0.494077 -0.170413
C30   C     C_R   0.811983 0.416168 0.567804 -0.318266
C31   C     C_R   0.904633 0.412767 0.568444 -0.016380
C32   C     C_R   0.954090 0.503394 0.500414 -0.059986
C33   C     C_3   0.777771 0.637952 0.209952 0.079711
C34   C     C_R   0.041834 0.326215 0.643787 -0.292713
C35   C     C_3   0.763864 0.753690 0.132844 -0.810666
C36   C     C_3   0.881928 0.125755 0.609071 0.074083
C37   C     C_3   0.954002 0.024912 0.607968 -0.832169
C38   C     C_R   0.091061 0.415955 0.577115 0.037428
C39   C     C_R   0.047268 0.504657 0.504726 0.084635
C40   C     C_R   0.096965 0.594392 0.435996 0.152716
C41   C     C_R   0.053764 0.685540 0.369137 -0.224875
C42   C     C_R   0.961102 0.686019 0.366777 -0.210580
H1    H     H_    0.650012 0.219021 0.642555 0.160834
H2    H     H_    0.228366 0.657482 0.379904 0.149773
H3    H     H_    0.091635 0.756307 0.318595 0.166054
H4    H     H_    0.929492 0.758826 0.315668 0.185955
H5    H     H_    0.408627 0.104381 0.341701 0.168973
H6    H     H_    0.724778 0.566660 0.183388 0.173012
H7    H     H_    0.843297 0.595725 0.174906 0.136029
H8    H     H_    0.821804 0.819707 0.146034 0.242159
H9    H     H_    0.757428 0.724124 0.023656 0.220657
H10   H     H_    0.702381 0.804346 0.170971 0.283967
H11   H     H_    0.667670 0.994344 0.005131 0.330064
H12   H     H_    0.698141 0.135707 0.848628 0.180121
H13   H     H_    0.422813 0.831707 0.778146 0.340255
H14   H     H_    0.354747 0.789331 0.373320 0.321670
H15   H     H_    0.469826 0.129291 0.135818 0.362627
H16   H     H_    0.305919 0.151118 0.205899 0.330984
H17   H     H_    0.871840 0.151666 0.504256 0.131659
H18   H     H_    0.817818 0.083094 0.642471 0.182467
H19   H     H_    0.964806 0.999928 0.712283 0.269370
H20   H     H_    0.932541 0.938507 0.545401 0.229861
H21   H     H_    0.017865 0.059821 0.564353 0.241733
H22   H     H_    0.583137 0.660140 0.136053 0.174732
H23   H     H_    0.273609 0.204916 0.866018 0.185898
H24   H     H_    0.368862 0.342706 0.747960 0.224955
H25   H     H_    0.772592 0.351132 0.623779 0.186176
H26   H     H_    0.591654 0.651300 0.885652 0.186728
H27   H     H_    0.075513 0.258219 0.699435 0.173007
H28   H     H_    0.218716 0.349187 0.633410 0.130795
N1    N     N_R   0.499150 0.498800 0.142780 -0.108537
N2    N     N_R   0.499120 0.498720 0.857170 -0.109297
O1    O     O_R   0.500000 0.316780 0.614690 -0.638537
O2    O     O_3   0.620735 0.938849 0.962219 -0.750850
O3    O     O_3   0.481228 0.834296 0.823170 -0.711248
O4    O     O_3   0.376109 0.866942 0.333534 -0.733727
O5    O     O_3   0.484614 0.219876 0.159847 -0.745199
O6    O     O_3   0.297378 0.139787 0.107452 -0.736043
O7    O     O_3   0.901769 0.230527 0.702333 -0.625097
O8    O     O_R   0.499990 0.316750 0.385360 -0.548090
O9    O     O_R   0.367850 0.499980 0.614680 -0.638393
O10   O     O_R   0.367840 0.499960 0.385350 -0.625401
O11   O     O_R   0.500010 0.683250 0.614640 -0.592896
O12   O     O_R   0.500000 0.683220 0.385310 -0.589020
O13   O     O_R   0.632160 0.500040 0.614650 -0.631610
O14   O     O_R   0.632150 0.500020 0.385320 -0.605804
O15   O     O_3   0.772638 0.674899 0.350271 -0.616139
Zn1   Zn    Zn3+2 0.500010 0.500020 0.653130 0.962674
Zn2   Zn    Zn3+2 0.499990 0.499980 0.346870 1.000989

loop_
_geom_bond_atom_site_label_1
_geom_bond_atom_site_label_2
_ccdc_geom_bond_type
H14   O4    S    
C21   H24   S    
C27   C29   S    
C26   N2    A    
C41   C42   A    
H11   O2    S    
C36   H17   S    
C37   H20   S    
C7    C8    A    
O10   Zn2   S    
C12   C28   A    
C18   C24   A    
C36   C37   S    
C30   C31   A    
C10   C17   A    
C33   H7    S    
C16   O12   A    
C18   C19   A    
C42   H4    S    
C32   C39   A    
O8    Zn2   S    
C27   O13   A    
C12   C42   A    
N2    Zn1   S    
C4    O9    A    
C19   C20   A    
C8    C9    A    
C25   N1    A    
C9    C10   A    
C30   H25   S    
H13   O3    S    
C15   O4    S    
C21   C22   A    
C12   C32   A    
C35   H8    S    
C22   N2    A    
C37   H21   S    
H15   O5    S    
C20   H23   S    
C6    C11   A    
C16   C17   S    
C3    C5    A    
C25   C26   A    
C36   O7    S    
C16   O11   A    
C25   H22   S    
C23   C31   A    
C19   O6    S    
O1    Zn1   S    
C29   C30   A    
C2    C38   A    
C31   C32   A    
N1    Zn2   S    
C23   C34   A    
C28   O15   S    
C8    O2    S    
C34   H27   S    
C14   H5    S    
C40   C41   A    
C5    H2    S    
C6    H1    S    
C35   H9    S    
C27   O14   A    
C22   C24   A    
C1    C13   S    
O12   Zn2   S    
C3    C4    S    
C39   C40   A    
O13   Zn1   S    
C15   C17   A    
C28   C29   A    
C34   C38   A    
C36   H18   S    
O14   Zn2   S    
C37   H19   S    
C6    C7    A    
C1    O1    A    
C2    C3    A    
C33   O15   S    
C26   H26   S    
C2    H28   S    
C11   C13   A    
C38   C39   A    
C18   O5    S    
C33   C35   S    
O11   Zn1   S    
O9    Zn1   S    
C10   C11   A    
H16   O6    S    
C4    O10   A    
C20   C21   A    
C5    C40   A    
C35   H10   S    
C33   H6    S    
C41   H3    S    
C14   C15   A    
C1    O8    A    
C9    O3    S    
C7    H12   S    
C23   O7    S    
C13   C14   A    
C24   N1    A    
