data_mof_unit_40281.cif
_audit_creation_date              2012-12-10T16:35:13-0500
_audit_creation_method            fapswitch 2.2
_symmetry_space_group_name_H-M    P1
_symmetry_Int_Tables_number       1
_space_group_crystal_system       triclinic
_cell_length_a                    10.884003
_cell_length_b                    10.908517
_cell_length_c                    10.861804
_cell_angle_alpha                 80.882876
_cell_angle_beta                  98.093356
_cell_angle_gamma                 90.1613
_cell_volume                      1260.37879141

loop_
_atom_site_label
_atom_site_type_symbol
_atom_type_description
_atom_site_fract_x
_atom_site_fract_y
_atom_site_fract_z
_atom_type_partial_charge
C1    C     C_R   0.833850 0.472623 0.527155 0.555359
C2    C     C_2   0.466861 0.029441 0.528711 -0.020602
C3    C     C_2   0.535762 0.965683 0.462675 0.009619
C4    C     C_2   0.028806 0.533358 0.463587 0.112461
C5    C     C_3   0.374791 0.966289 0.611402 -0.251915
C6    C     C_3   0.430145 0.947577 0.751300 -0.293798
C7    C     C_3   0.328695 0.925338 0.835610 -0.446219
C8    C     C_3   0.627078 0.023492 0.375263 -0.246450
C9    C     C_3   0.693088 0.931041 0.311435 -0.307520
C10   C     C_3   0.778627 0.997826 0.223784 -0.466790
C11   C     C_3   0.931372 0.586585 0.247461 -0.301881
C12   C     C_2   0.965902 0.456181 0.543279 0.021668
C13   C     C_3   0.024361 0.355713 0.650579 -0.265316
C14   C     C_3   0.931883 0.284078 0.728963 -0.317829
C15   C     C_3   0.998554 0.187034 0.833607 -0.464326
C16   C     C_3   0.246250 0.571075 0.941153 -0.309704
C17   C     C_3   0.735341 0.342961 0.999229 -0.308875
C18   C     C_2   0.462757 0.531094 0.024081 0.131550
C19   C     C_2   0.536490 0.458784 0.972657 0.144645
C20   C     C_R   0.164109 0.526775 0.473431 0.500824
C21   C     C_R   0.524965 0.470850 0.838146 0.515444
C22   C     C_R   0.475196 0.525605 0.160393 0.541574
C23   C     C_R   0.523451 0.833815 0.476155 0.510295
C24   C     C_R   0.476670 0.164158 0.522714 0.501634
H1    H     H_    0.271220 0.011144 0.826542 0.150830
H2    H     H_    0.826639 0.928694 0.181420 0.145339
H3    H     H_    0.749597 0.862830 0.384241 0.183295
H4    H     H_    0.623305 0.880099 0.254975 0.174495
H5    H     H_    0.575331 0.091778 0.298767 0.168262
H6    H     H_    0.700607 0.070990 0.431052 0.170200
H7    H     H_    0.004480 0.710950 0.362073 0.257330
H8    H     H_    0.873358 0.659963 0.182743 0.137479
H9    H     H_    0.877571 0.499747 0.255872 0.182270
H10   H     H_    0.016916 0.571112 0.206432 0.140223
H11   H     H_    0.048300 0.117888 0.792841 0.153071
H12   H     H_    0.267843 0.849297 0.808757 0.156125
H13   H     H_    0.066062 0.232205 0.897996 0.150159
H14   H     H_    0.929670 0.137862 0.888937 0.139153
H15   H     H_    0.880786 0.349824 0.772747 0.163777
H16   H     H_    0.864000 0.236215 0.667300 0.166249
H17   H     H_    0.074265 0.286524 0.609806 0.169701
H18   H     H_    0.090616 0.400429 0.716649 0.163879
H19   H     H_    0.393986 0.654631 0.860812 0.244007
H20   H     H_    0.237870 0.486573 0.895550 0.143493
H21   H     H_    0.181226 0.643758 0.884749 0.132268
H22   H     H_    0.219133 0.549285 0.036948 0.161408
H23   H     H_    0.371510 0.899737 0.935431 0.169718
H24   H     H_    0.579198 0.287784 0.083705 0.249214
H25   H     H_    0.798450 0.282844 0.073541 0.132077
H26   H     H_    0.783385 0.431223 0.972823 0.162007
H27   H     H_    0.714831 0.294380 0.916371 0.127322
H28   H     H_    0.495712 0.866584 0.771934 0.168579
H29   H     H_    0.482630 0.030455 0.774499 0.177682
H30   H     H_    0.288804 0.024970 0.595263 0.155415
H31   H     H_    0.343614 0.875474 0.585895 0.135083
H32   H     H_    0.723923 0.062983 0.146744 0.149786
H33   H     H_    0.849672 0.050222 0.276913 0.153864
N1    N     N_2   0.962966 0.625478 0.369142 -0.528941
N2    N     N_2   0.371992 0.615612 0.947567 -0.533397
N3    N     N_2   0.621833 0.367277 0.047286 -0.508795
O1    O     O_3   0.500000 0.500000 0.500000 -0.433698
O2    O     O_R   0.597340 0.765700 0.560080 -0.546266
O3    O     O_R   0.548200 0.222430 0.451790 -0.569796
O4    O     O_R   0.441590 0.789440 0.401000 -0.551089
O5    O     O_R   0.412860 0.222430 0.587130 -0.543763
O6    O     O_R   0.441590 0.410520 0.779910 -0.553822
O7    O     O_R   0.548210 0.443940 0.230290 -0.537347
O8    O     O_R   0.787780 0.544200 0.591150 -0.542545
O9    O     O_R   0.222430 0.601350 0.398650 -0.541470
O10   O     O_R   0.767360 0.410530 0.454140 -0.550897
O11   O     O_R   0.222430 0.443930 0.556060 -0.576690
O12   O     O_R   0.597340 0.544190 0.781580 -0.558159
O13   O     O_R   0.412870 0.601350 0.208220 -0.528547
Zn1   Zn    Zn3+2 0.396020 0.396030 0.603970 0.893480
Zn2   Zn    Zn3+2 0.618560 0.587010 0.606350 0.908658
Zn3   Zn    Zn3+2 0.396030 0.620930 0.379070 0.918430
Zn4   Zn    Zn3+2 0.589390 0.396030 0.410610 0.907050

loop_
_geom_bond_atom_site_label_1
_geom_bond_atom_site_label_2
_ccdc_geom_bond_type
C17   H26   S    
C16   H21   S    
O11   Zn1   S    
C15   H14   S    
C6    C7    S    
C8    C9    S    
C21   O6    A    
C4    C12   D    
C11   N1    S    
C10   H32   S    
C7    H12   S    
C5    H30   S    
C3    C23   S    
C1    O10   A    
C7    H1    S    
H19   N2    S    
C8    H6    S    
C10   H2    S    
C13   H17   S    
C2    C3    D    
O4    Zn3   S    
C20   O11   A    
C15   H13   S    
C13   C14   S    
O1    Zn2   S    
O8    Zn2   S    
C17   H27   S    
C1    C12   S    
C24   O5    A    
O12   Zn2   S    
C8    H5    S    
C6    H29   S    
H7    N1    S    
C15   H11   S    
C13   H18   S    
C19   C21   S    
O6    Zn1   S    
C11   H8    S    
H24   N3    S    
C24   O3    A    
O1    Zn4   S    
C10   H33   S    
C23   O2    A    
O1    Zn3   S    
C2    C24   S    
C5    C6    S    
O1    Zn1   S    
O13   Zn3   S    
C20   O9    A    
C3    C8    S    
C2    C5    S    
O2    Zn2   S    
C17   N3    S    
C4    N1    S    
C4    C20   S    
C9    C10   S    
C18   N2    S    
C11   H9    S    
C1    O8    A    
C12   C13   S    
C9    H3    S    
O9    Zn3   S    
C18   C19   D    
O3    Zn4   S    
C16   H22   S    
C16   H20   S    
C14   C15   S    
C23   O4    A    
C19   N3    S    
C21   O12   A    
C22   O13   A    
C6    H28   S    
C14   H15   S    
C18   C22   S    
C14   H16   S    
C5    H31   S    
C11   H10   S    
C17   H25   S    
O5    Zn1   S    
C9    H4    S    
C7    H23   S    
C22   O7    A    
O10   Zn4   S    
C16   N2    S    
O7    Zn4   S    
