data_mof_unit_46724.cif
_audit_creation_date              2012-12-10T18:58:10-0500
_audit_creation_method            fapswitch 2.2
_symmetry_space_group_name_H-M    P1
_symmetry_Int_Tables_number       1
_space_group_crystal_system       triclinic
_cell_length_a                    10.637845
_cell_length_b                    9.958104
_cell_length_c                    15.70487
_cell_angle_alpha                 87.131927
_cell_angle_beta                  92.91249
_cell_angle_gamma                 89.254527
_cell_volume                      1659.22842996

loop_
_atom_site_label
_atom_site_type_symbol
_atom_type_description
_atom_site_fract_x
_atom_site_fract_y
_atom_site_fract_z
_atom_type_partial_charge
C1    C     C_R   0.872158 0.498574 0.500905 -0.085261
C2    C     C_R   0.128450 0.502994 0.500323 -0.091155
C3    C     C_R   0.260748 0.500974 0.499077 0.949158
C4    C     C_R   0.739445 0.499189 0.501314 0.879764
C5    C     C_R   0.501740 0.503471 0.339186 0.894164
C6    C     C_R   0.495572 0.496956 0.660706 0.843474
C7    C     C_R   0.483289 0.634239 0.949526 0.357234
C8    C     C_R   0.577646 0.409946 0.050866 0.332712
C9    C     C_R   0.508158 0.645826 0.037034 0.373425
C10   C     C_R   0.537932 0.394289 0.966418 0.350715
C11   C     C_R   0.498760 0.507371 0.914829 -0.258952
C12   C     C_R   0.549846 0.531246 0.087636 -0.292531
C13   C     C_1   0.486156 0.493799 0.825420 0.096139
C14   C     C_1   0.534483 0.524712 0.176732 0.087803
C15   C     C_1   0.518230 0.513628 0.251022 -0.191732
C16   C     C_1   0.487310 0.490823 0.749860 -0.223953
C17   C     C_R   0.583376 0.066469 0.552257 0.352463
C18   C     C_R   0.416049 0.932844 0.448144 0.298729
C19   C     C_R   0.411894 0.077239 0.451260 0.290695
C20   C     C_R   0.590828 0.923240 0.546814 0.316193
C21   C     C_R   0.073017 0.441048 0.570390 0.059111
C22   C     C_R   0.927719 0.561698 0.431019 0.060152
C23   C     C_R   0.943321 0.440012 0.571240 0.006582
C24   C     C_R   0.058228 0.565143 0.431230 0.003119
N1    N     N_R   0.500000 0.857200 0.500000 -0.189559
N2    N     N_R   0.500000 0.142800 0.500000 -0.186097
O1    O     O_R   0.316770 0.614620 0.499990 -0.568348
O2    O     O_R   0.683230 0.385380 0.500010 -0.591481
O3    O     O_R   0.683230 0.614620 0.500010 -0.575320
O4    O     O_R   0.316770 0.385380 0.499990 -0.597587
O5    O     O_R   0.499980 0.614630 0.378020 -0.594965
O6    O     O_R   0.500020 0.385370 0.621980 -0.596172
O7    O     O_R   0.500020 0.614630 0.621980 -0.647355
O8    O     O_R   0.499980 0.385370 0.378020 -0.562468
Zn1   Zn    Zn3+2 0.500000 0.653120 0.500000 0.995739
Zn2   Zn    Zn3+2 0.500000 0.346880 0.500000 1.011852
O9    O     O_3   0.662934 0.129767 0.609325 -0.571216
C25   C     C_3   0.610694 0.120063 0.690726 0.100315
H1    H     H_    0.609805 0.015221 0.716167 0.111671
H2    H     H_    0.512090 0.159248 0.688703 0.157160
C26   C     C_3   0.690048 0.196194 0.755053 -0.813673
H3    H     H_    0.683534 0.305620 0.739414 0.248175
H4    H     H_    0.655526 0.176072 0.819795 0.260197
H5    H     H_    0.790028 0.162873 0.755824 0.241026
O10   O     O_3   0.337409 0.867798 0.391261 -0.573057
C27   C     C_3   0.378356 0.892596 0.307646 0.150145
H6    H     H_    0.476074 0.853663 0.302484 0.147542
H7    H     H_    0.375631 0.001549 0.288375 0.169156
C28   C     C_3   0.291548 0.822798 0.244510 -0.814736
H8    H     H_    0.193048 0.858220 0.249833 0.234710
H9    H     H_    0.318330 0.847068 0.178408 0.254008
H10   H     H_    0.298187 0.712225 0.256827 0.264722
O11   O     O_3   0.324340 0.153064 0.400701 -0.568524
C29   C     C_3   0.202442 0.131786 0.430424 0.152861
H11   H     H_    0.195868 0.167926 0.495978 0.147254
H12   H     H_    0.175837 0.024231 0.431543 0.165935
C30   C     C_3   0.106744 0.209024 0.370832 -0.832437
H13   H     H_    0.102975 0.164939 0.307191 0.242412
H14   H     H_    0.012004 0.203510 0.397329 0.217446
H15   H     H_    0.133715 0.315946 0.363038 0.262655
O12   O     O_3   0.706532 0.860050 0.566667 -0.559008
C31   C     C_3   0.713625 0.795458 0.649003 0.226815
H16   H     H_    0.724826 0.685771 0.643372 0.160095
H17   H     H_    0.629460 0.809699 0.686021 0.088469
C32   C     C_3   0.831143 0.840135 0.698559 -0.901193
H18   H     H_    0.833147 0.951067 0.700001 0.283644
H19   H     H_    0.832847 0.796200 0.765017 0.200699
H20   H     H_    0.916501 0.805323 0.667614 0.262689
O13   O     O_3   0.477672 0.766384 0.072055 -0.576828
C33   C     C_3   0.585268 0.820538 0.113645 0.042181
H21   H     H_    0.673806 0.800234 0.080895 0.121398
H22   H     H_    0.595847 0.778420 0.180423 0.155837
C34   C     C_3   0.568487 0.972249 0.116604 -0.768527
H23   H     H_    0.469998 0.999774 0.129110 0.256517
H24   H     H_    0.630590 0.009400 0.168801 0.220412
H25   H     H_    0.593562 0.022115 0.055114 0.280996
O14   O     O_3   0.523164 0.266466 0.937448 -0.591834
C35   C     C_3   0.396126 0.231023 0.948260 0.109265
H26   H     H_    0.329472 0.305717 0.914610 0.142414
H27   H     H_    0.376078 0.223066 0.017304 0.159646
C36   C     C_3   0.370197 0.096405 0.910914 -0.822613
H28   H     H_    0.421826 0.016069 0.950115 0.292507
H29   H     H_    0.267993 0.075241 0.911363 0.217356
H30   H     H_    0.399813 0.098299 0.844092 0.245266
O15   O     O_3   0.415080 0.737377 0.905253 -0.560643
C37   C     C_3   0.481504 0.796876 0.837801 0.121225
H31   H     H_    0.559562 0.734216 0.816059 0.104382
H32   H     H_    0.526157 0.890168 0.858995 0.146757
C38   C     C_3   0.386749 0.831357 0.763312 -0.817675
H33   H     H_    0.308886 0.894614 0.784692 0.256205
H34   H     H_    0.431346 0.886957 0.710399 0.168451
H35   H     H_    0.345773 0.738010 0.738885 0.267149
O16   O     O_3   0.629089 0.300977 0.099473 -0.569954
C39   C     C_3   0.758501 0.326006 0.116252 0.140025
H36   H     H_    0.771970 0.416776 0.154185 0.128185
H37   H     H_    0.807809 0.340250 0.055539 0.129616
C40   C     C_3   0.820561 0.207484 0.167675 -0.859654
H38   H     H_    0.819134 0.117000 0.129157 0.250243
H39   H     H_    0.920103 0.231054 0.184908 0.207474
H40   H     H_    0.770698 0.186901 0.227281 0.261773
N3    N     N_3   0.149475 0.381768 0.640842 -0.463001
H41   H     H_    0.126479 0.280282 0.648693 0.196288
H42   H     H_    0.127664 0.429509 0.696152 0.200983
N4    N     N_3   0.850610 0.619514 0.360359 -0.457073
H43   H     H_    0.872640 0.572182 0.304978 0.162281
H44   H     H_    0.870317 0.721807 0.352616 0.192295
N5    N     N_3   0.885735 0.381449 0.644293 -0.474907
H45   H     H_    0.825126 0.452870 0.667515 0.155641
H46   H     H_    0.833797 0.299822 0.624289 0.267598
N6    N     N_3   0.120562 0.628743 0.361588 -0.439396
H47   H     H_    0.091317 0.729464 0.355749 0.215396
H48   H     H_    0.093469 0.582267 0.305480 0.164100

loop_
_geom_bond_atom_site_label_1
_geom_bond_atom_site_label_2
_ccdc_geom_bond_type
C6    O6    A    
O16   C39   S    
N5    H46   S    
C26   H3    S    
C40   H40   S    
C28   H9    S    
N4    H44   S    
C40   H38   S    
O14   C35   S    
C7    C11   A    
C27   C28   S    
N3    H41   S    
C17   N2    A    
O6    Zn2   S    
C9    O13   S    
C25   H1    S    
O7    Zn1   S    
C35   H27   S    
C30   H14   S    
C20   N1    A    
C17   C20   A    
C22   N4    S    
C18   C19   A    
C34   H23   S    
C20   O12   S    
C19   N2    A    
N6    H47   S    
C31   H17   S    
C40   H39   S    
C27   H6    S    
C31   H16   S    
C32   H19   S    
N5    H45   S    
C33   H21   S    
C38   H34   S    
C4    O3    A    
C21   N3    S    
C28   H10   S    
C1    C22   A    
N3    H42   S    
C26   H4    S    
O13   C33   S    
C18   N1    A    
C2    C21   A    
N4    H43   S    
C36   H29   S    
C10   O14   S    
C36   H28   S    
C27   H7    S    
C29   H12   S    
C37   H32   S    
C24   N6    S    
C25   C26   S    
C35   H26   S    
C30   H15   S    
C39   C40   S    
O1    Zn1   S    
O15   C37   S    
C3    O4    A    
O9    C25   S    
C8    C12   A    
C32   H20   S    
C23   N5    S    
C5    O8    A    
C33   C34   S    
C39   H36   S    
C17   O9    S    
C38   H35   S    
C39   H37   S    
N1    Zn1   S    
N2    Zn2   S    
C12   C14   S    
C1    C23   A    
C21   C23   A    
C2    C24   A    
C26   H5    S    
C22   C24   A    
C34   H24   S    
C18   O10   S    
C36   H30   S    
C7    C9    A    
C29   H11   S    
C31   C32   S    
C37   H31   S    
C8    O16   S    
C37   C38   S    
O11   C29   S    
O3    Zn1   S    
C6    O7    A    
O4    Zn2   S    
C1    C4    S    
C3    O1    A    
C2    C3    S    
C25   H2    S    
C11   C13   S    
C35   C36   S    
C19   O11   S    
C30   H13   S    
C7    O15   S    
O5    Zn1   S    
C34   H25   S    
O8    Zn2   S    
C32   H18   S    
O12   C31   S    
C9    C12   A    
N6    H48   S    
C5    C15   S    
C10   C11   A    
C6    C16   S    
O10   C27   S    
O2    Zn2   S    
C8    C10   A    
C28   H8    S    
C4    O2    A    
C13   C16   T    
C14   C15   T    
C33   H22   S    
C38   H33   S    
C5    O5    A    
C29   C30   S    
