data_mof_unit_44431.cif
_audit_creation_date              2012-12-10T17:52:22-0500
_audit_creation_method            fapswitch 2.2
_symmetry_space_group_name_H-M    P1
_symmetry_Int_Tables_number       1
_space_group_crystal_system       triclinic
_cell_length_a                    19.22225
_cell_length_b                    10.644389
_cell_length_c                    9.937383
_cell_angle_alpha                 90.235167
_cell_angle_beta                  91.344702
_cell_angle_gamma                 93.269715
_cell_volume                      2029.37986879

loop_
_atom_site_label
_atom_site_type_symbol
_atom_type_description
_atom_site_fract_x
_atom_site_fract_y
_atom_site_fract_z
_atom_type_partial_charge
C1    C     C_R   0.500481 0.260728 0.499686 0.973346
C2    C     C_R   0.289356 0.484322 0.492179 -0.222709
C3    C     C_R   0.929884 0.462679 0.493328 0.365469
C4    C     C_R   0.069174 0.449806 0.483784 0.387607
C5    C     C_R   0.817403 0.415416 0.603550 -0.185454
C6    C     C_R   0.745275 0.421228 0.608607 0.372162
C7    C     C_R   0.709881 0.485380 0.504413 -0.370475
C8    C     C_R   0.747923 0.538393 0.397144 0.683922
C9    C     C_R   0.819405 0.530877 0.394300 -0.197634
C10   C     C_R   0.854487 0.469740 0.497261 -0.114614
C11   C     C_R   0.622007 0.146575 0.400531 -0.189016
C12   C     C_R   0.365458 0.498049 0.498144 0.964035
C13   C     C_R   0.680953 0.089600 0.357273 -0.314372
C14   C     C_R   0.683861 0.959644 0.363243 0.665103
C15   C     C_R   0.627514 0.885878 0.411372 0.523591
C16   C     C_R   0.566282 0.942090 0.453074 -0.134361
C17   C     C_R   0.564214 0.073703 0.449563 -0.027112
C18   C     C_R   0.504758 0.128844 0.498853 -0.159408
C19   C     C_R   0.448593 0.057894 0.550535 0.649048
C20   C     C_R   0.449906 0.929633 0.551625 -0.276293
C21   C     C_R   0.507303 0.872439 0.501789 -0.147128
C22   C     C_R   0.403935 0.329602 0.128167 0.627819
C23   C     C_R   0.502507 0.739553 0.500408 0.987464
C24   C     C_R   0.358403 0.251235 0.050728 -0.280056
C25   C     C_R   0.360173 0.253775 0.912722 0.587082
C26   C     C_R   0.407740 0.334923 0.850363 -0.255458
C27   C     C_R   0.454220 0.418004 0.923876 0.009136
C28   C     C_R   0.453464 0.417101 0.068554 0.016651
C29   C     C_R   0.543756 0.578452 0.073878 -0.044767
C30   C     C_R   0.543610 0.578580 0.931047 0.003875
C31   C     C_R   0.634264 0.495494 0.501685 1.020046
C32   C     C_R   0.252553 0.469853 0.611493 -0.207860
C33   C     C_R   0.180592 0.453071 0.606631 -0.152972
C34   C     C_R   0.144523 0.448400 0.482561 -0.145708
C35   C     C_R   0.181070 0.454986 0.360990 0.328912
C36   C     C_R   0.253215 0.477827 0.366918 0.587618
H1    H     H_    0.279174 0.473108 0.708851 0.202404
H2    H     H_    0.622778 0.247895 0.396688 0.170070
H3    H     H_    0.724880 0.146772 0.320777 0.205487
H4    H     H_    0.405397 0.874249 0.589098 0.184300
H5    H     H_    0.579597 0.642670 0.129295 0.198503
H6    H     H_    0.321225 0.186947 0.099200 0.238199
H7    H     H_    0.406197 0.329445 0.743951 0.267456
H8    H     H_    0.152822 0.447568 0.700292 0.202135
H9    H     H_    0.579366 0.642949 0.879469 0.160854
H10   H     H_    0.844990 0.368440 0.683150 0.233099
H11   H     H_    0.847182 0.572590 0.310455 0.215213
N1    N     N_R   0.036062 0.531871 0.404730 -0.078777
N2    N     N_R   0.967485 0.537694 0.408807 -0.124199
N3    N     N_R   0.963260 0.381950 0.574235 -0.137067
N4    N     N_R   0.031963 0.375868 0.569914 -0.125739
N5    N     N_R   0.499340 0.498800 0.142780 -0.106603
N6    N     N_R   0.499320 0.498720 0.857170 -0.089939
O1    O     O_R   0.500000 0.316780 0.614690 -0.603042
O2    O     O_R   0.499990 0.316750 0.385360 -0.586795
O3    O     O_R   0.398140 0.500000 0.614700 -0.673964
O4    O     O_R   0.398130 0.499970 0.385370 -0.495443
O5    O     O_R   0.500010 0.683250 0.614640 -0.631824
O6    O     O_R   0.500000 0.683220 0.385310 -0.594478
O7    O     O_R   0.601870 0.500030 0.614630 -0.557370
O8    O     O_R   0.601860 0.500000 0.385300 -0.565159
Zn1   Zn    Zn3+2 0.500000 0.500020 0.653130 1.030290
Zn2   Zn    Zn3+2 0.500000 0.499980 0.346870 1.079759
F1    F     F_    0.742079 0.904752 0.323892 -0.578364
F2    F     F_    0.634846 0.760756 0.421438 -0.632132
F3    F     F_    0.395834 0.313331 0.259820 -0.608245
F4    F     F_    0.315534 0.176678 0.838420 -0.566417
S1    S     S_3+6 0.138934 0.430701 0.200905 0.109435
O9    O     O_2   0.076076 0.340988 0.211943 -0.230517
O10   O     O_2   0.116033 0.554706 0.149190 -0.268346
O11   O     O_3   0.193520 0.369940 0.090942 -0.471916
H12   H     H_    0.205282 0.438318 0.026611 0.384948
F5    F     F_    0.287731 0.495034 0.250144 -0.621692
S2    S     S_3+6 0.703167 0.342821 0.744414 0.046512
O12   O     O_2   0.679467 0.438974 0.841840 -0.270702
O13   O     O_2   0.641368 0.262510 0.693063 -0.315795
O14   O     O_3   0.758335 0.250272 0.825561 -0.527362
H13   H     H_    0.731314 0.213180 0.900761 0.395588
F6    F     F_    0.716307 0.598723 0.294419 -0.572330
F7    F     F_    0.391553 0.113125 0.595912 -0.617522

loop_
_geom_bond_atom_site_label_1
_geom_bond_atom_site_label_2
_ccdc_geom_bond_type
O5    Zn1   S    
C23   O5    A    
C16   C21   A    
C24   H6    S    
C31   O8    A    
C30   H9    S    
C35   C36   A    
C25   F4    S    
C2    C12   S    
C3    N2    A    
C7    C8    A    
O14   H13   S    
C23   O6    A    
C1    C18   S    
S2    O13   D    
C2    C32   A    
C34   C35   A    
C5    C6    A    
C20   H4    S    
C15   C16   A    
C15   F2    S    
C11   C13   A    
O7    Zn1   S    
C18   C19   A    
O8    Zn2   S    
C22   F3    S    
S1    O9    D    
C19   C20   A    
C16   C17   A    
S2    O14   S    
O2    Zn2   S    
C8    F6    S    
O4    Zn2   S    
C9    C10   A    
C22   C28   A    
C13   C14   A    
C3    N3    A    
C26   H7    S    
C6    S2    S    
C30   N6    A    
C4    C34   S    
C7    C31   S    
S2    O12   D    
C4    N4    A    
C24   C25   A    
C8    C9    A    
O1    Zn1   S    
N3    N4    A    
C25   C26   A    
C31   O7    A    
C11   H2    S    
C1    O1    A    
C29   C30   A    
N6    Zn1   S    
C14   F1    S    
C17   C18   A    
C26   C27   A    
C32   H1    S    
C12   O3    A    
C12   O4    A    
N1    N2    A    
C9    H11   S    
C21   C23   S    
C22   C24   A    
C4    N1    A    
C2    C36   A    
C11   C17   A    
C29   H5    S    
C33   H8    S    
N5    Zn2   S    
C27   N6    A    
C6    C7    A    
C5    H10   S    
O6    Zn2   S    
C32   C33   A    
C1    O2    A    
C5    C10   A    
C3    C10   S    
C28   N5    A    
C35   S1    S    
S1    O11   S    
C33   C34   A    
O3    Zn1   S    
C19   F7    S    
C13   H3    S    
C36   F5    S    
O11   H12   S    
C20   C21   A    
S1    O10   D    
C27   C28   A    
C14   C15   A    
C29   N5    A    
