data_mof_unit_45293.cif
_audit_creation_date              2012-12-11T15:39:26-0500
_audit_creation_method            fapswitch 2.2
_symmetry_space_group_name_H-M    P1
_symmetry_Int_Tables_number       1
_space_group_crystal_system       triclinic
_cell_length_a                    17.36628
_cell_length_b                    24.613855
_cell_length_c                    14.864571
_cell_angle_alpha                 90.363733
_cell_angle_beta                  125.503062
_cell_angle_gamma                 89.943156
_cell_volume                      5172.46026327

loop_
_atom_site_label
_atom_site_type_symbol
_atom_type_description
_atom_site_fract_x
_atom_site_fract_y
_atom_site_fract_z
_atom_type_partial_charge
C1    C     C_R   0.311808 0.372224 0.907874 0.331395
C2    C     C_R   0.550355 0.502123 0.724503 0.028746
C3    C     C_R   0.125360 0.819284 0.002561 -0.057084
C4    C     C_3   0.241650 0.347834 0.795475 -1.061219
C5    C     C_3   0.689599 0.326968 0.205355 -1.089334
C6    C     C_3   0.741651 0.847833 0.795475 -1.061220
C7    C     C_3   0.189599 0.826967 0.205355 -1.089333
C8    C     C_R   0.911317 0.608465 0.462844 0.210471
C9    C     C_R   0.922278 0.567715 0.535716 -0.138736
C10   C     C_R   0.871926 0.570392 0.582364 -0.124100
C11   C     C_R   0.810674 0.613681 0.557454 -0.083208
C12   C     C_R   0.798923 0.654128 0.485058 -0.112756
C13   C     C_R   0.075120 0.002708 0.372696 0.035870
C14   C     C_R   0.849245 0.651729 0.438332 -0.196282
C15   C     C_R   0.127185 0.650041 0.482073 0.205768
C16   C     C_R   0.119018 0.652743 0.382070 -0.138036
C17   C     C_R   0.175210 0.688816 0.371094 -0.133779
C18   C     C_R   0.240417 0.722331 0.459559 -0.105703
C19   C     C_R   0.248177 0.720631 0.558477 -0.135469
C20   C     C_R   0.191104 0.685221 0.569278 -0.198709
C21   C     C_R   0.411317 0.108465 0.462844 0.210471
C22   C     C_R   0.422277 0.067714 0.535716 -0.138736
C23   C     C_R   0.371926 0.070392 0.582364 -0.124100
C24   C     C_R   0.050355 0.002123 0.724503 0.028746
C25   C     C_R   0.310675 0.113681 0.557454 -0.083207
C26   C     C_R   0.298923 0.154128 0.485058 -0.112757
C27   C     C_R   0.349245 0.151729 0.438332 -0.196281
C28   C     C_R   0.627184 0.150041 0.482073 0.205768
C29   C     C_R   0.619018 0.152743 0.382070 -0.138037
C30   C     C_R   0.675210 0.188816 0.371094 -0.133780
C31   C     C_R   0.740417 0.222331 0.459560 -0.105703
C32   C     C_R   0.748176 0.220632 0.558477 -0.135468
C33   C     C_R   0.691104 0.185221 0.569278 -0.198709
C34   C     C_R   0.435377 0.362536 0.205537 0.154506
C35   C     C_R   0.200417 0.502163 0.629073 0.061041
C36   C     C_R   0.387225 0.384259 0.247574 -0.127382
C37   C     C_R   0.414928 0.370616 0.353541 -0.101433
C38   C     C_R   0.489000 0.334155 0.416723 -0.126348
C39   C     C_R   0.534498 0.310772 0.373639 -0.134816
C40   C     C_R   0.507749 0.324643 0.268132 -0.198054
C41   C     C_R   0.505548 0.327695 0.793076 0.125713
C42   C     C_R   0.546406 0.293640 0.754931 -0.177626
C43   C     C_R   0.491893 0.272916 0.647076 -0.118156
C44   C     C_R   0.397382 0.288227 0.574084 -0.081693
C45   C     C_R   0.357527 0.324306 0.608946 -0.136311
C46   C     C_R   0.825822 0.501687 0.279354 0.053932
C47   C     C_R   0.411600 0.344006 0.717521 -0.159144
C48   C     C_R   0.935377 0.862535 0.205537 0.154507
C49   C     C_R   0.887226 0.884259 0.247575 -0.127382
C50   C     C_R   0.914928 0.870616 0.353541 -0.101433
C51   C     C_R   0.989000 0.834155 0.416723 -0.126347
C52   C     C_R   0.034498 0.810772 0.373639 -0.134816
C53   C     C_R   0.007749 0.824643 0.268132 -0.198054
C54   C     C_R   0.005548 0.827695 0.793076 0.125713
C55   C     C_R   0.046406 0.793640 0.754931 -0.177625
C56   C     C_R   0.991893 0.772916 0.647076 -0.118156
C57   C     C_R   0.700417 0.002163 0.629073 0.061041
C58   C     C_R   0.897382 0.788227 0.574084 -0.081692
C59   C     C_R   0.857527 0.824306 0.608946 -0.136311
C60   C     C_R   0.911600 0.844006 0.717521 -0.159144
C61   C     C_R   0.325822 0.001687 0.279354 0.053932
C62   C     C_R   0.075748 0.552470 0.459742 0.080663
C63   C     C_R   0.979780 0.552351 0.378113 0.046117
C64   C     C_R   0.575748 0.052470 0.459742 0.080664
C65   C     C_R   0.649860 0.349559 0.092854 0.308415
C66   C     C_R   0.479780 0.052351 0.378113 0.046117
C67   C     C_R   0.121514 0.503707 0.511641 0.039540
C68   C     C_R   0.928430 0.503586 0.336652 0.048764
C69   C     C_R   0.621514 0.003707 0.511641 0.039540
C70   C     C_R   0.428430 0.003586 0.336652 0.048764
C71   C     C_R   0.076986 0.455085 0.453604 -0.195725
C72   C     C_R   0.980896 0.455171 0.365428 -0.194992
C73   C     C_R   0.576986 0.955085 0.453604 -0.195726
C74   C     C_R   0.480896 0.955171 0.365428 -0.194992
C75   C     C_3   0.966043 0.607488 0.411820 -0.270630
C76   C     C_R   0.811808 0.872224 0.907874 0.331395
C77   C     C_3   0.072891 0.608211 0.499882 -0.262875
C78   C     C_3   0.466043 0.107488 0.411821 -0.270630
C79   C     C_3   0.572891 0.108211 0.499882 -0.262875
C80   C     C_R   0.165666 0.676884 0.954364 -0.194447
C81   C     C_R   0.764268 0.723404 0.049911 -0.191102
C82   C     C_R   0.665666 0.176884 0.954363 -0.194447
C83   C     C_R   0.264268 0.223404 0.049911 -0.191102
C84   C     C_R   0.618208 0.221749 0.956496 -0.178036
C85   C     C_R   0.311068 0.267086 0.047247 -0.153262
C86   C     C_R   0.118209 0.721749 0.956497 -0.178036
C87   C     C_R   0.149860 0.849559 0.092854 0.308415
C88   C     C_R   0.811068 0.767086 0.047247 -0.153262
C89   C     C_R   0.669892 0.269054 0.010641 0.162028
C90   C     C_R   0.262934 0.316005 0.003527 0.171933
C91   C     C_R   0.169892 0.769054 0.010641 0.162028
C92   C     C_R   0.762934 0.816005 0.003527 0.171932
C93   C     C_R   0.403762 0.623004 0.094183 -0.139799
C94   C     C_R   0.558874 0.650768 0.909031 -0.144317
C95   C     C_R   0.903762 0.123004 0.094183 -0.139798
C96   C     C_R   0.058874 0.150768 0.909031 -0.144317
C97   C     C_R   0.767842 0.270939 0.069124 -0.178138
C98   C     C_R   0.315917 0.637584 0.003394 0.035992
C99   C     C_R   0.166730 0.321074 0.957499 -0.176796
C100  C     C_R   0.267842 0.770939 0.069123 -0.178139
C101  C     C_R   0.666730 0.821073 0.957499 -0.176795
C102  C     C_R   0.314736 0.726484 0.069242 -0.191125
C103  C     C_R   0.618406 0.776152 0.956757 -0.197857
C104  C     C_R   0.814735 0.226484 0.069243 -0.191126
C105  C     C_R   0.118406 0.276152 0.956757 -0.197856
C106  C     C_R   0.263687 0.680017 0.010126 0.147425
C107  C     C_R   0.668426 0.728051 0.004178 0.148788
C108  C     C_R   0.763687 0.180017 0.010126 0.147425
C109  C     C_R   0.622471 0.680317 0.001707 0.045545
C110  C     C_R   0.168426 0.228051 0.004178 0.148788
C111  C     C_R   0.602637 0.553061 0.625328 -0.170969
C112  C     C_R   0.608099 0.553309 0.536110 -0.185189
C113  C     C_R   0.102637 0.053061 0.625328 -0.170970
C114  C     C_R   0.108099 0.053309 0.536110 -0.185188
C115  C     C_R   0.608243 0.504047 0.488495 0.146462
C116  C     C_R   0.594937 0.503504 0.665708 0.146506
C117  C     C_R   0.108243 0.004047 0.488495 0.146461
C118  C     C_R   0.094937 0.003504 0.665708 0.146506
C119  C     C_R   0.621669 0.455369 0.544403 -0.173044
C120  C     C_R   0.815917 0.137584 0.003394 0.035992
C121  C     C_R   0.614301 0.454992 0.632456 -0.176497
C122  C     C_R   0.121669 0.955369 0.544403 -0.173044
C123  C     C_R   0.114301 0.954992 0.632456 -0.176498
C124  C     C_R   0.560581 0.457151 0.310090 -0.110865
C125  C     C_R   0.521879 0.456084 0.751925 -0.132411
C126  C     C_R   0.060581 0.957151 0.310090 -0.110865
C127  C     C_R   0.021879 0.956084 0.751925 -0.132411
C128  C     C_R   0.248453 0.546184 0.695639 -0.157044
C129  C     C_R   0.767400 0.546245 0.247314 -0.096044
C130  C     C_R   0.748454 0.046184 0.695639 -0.157044
C131  C     C_R   0.122471 0.180317 0.001707 0.045545
C132  C     C_R   0.267400 0.046245 0.247314 -0.096044
C133  C     C_R   0.552289 0.546638 0.305036 -0.126657
C134  C     C_R   0.517751 0.546665 0.749989 -0.112235
C135  C     C_R   0.052289 0.046638 0.305036 -0.126657
C136  C     C_R   0.017751 0.046665 0.749989 -0.112234
C137  C     C_R   0.246679 0.456481 0.691605 -0.121738
C138  C     C_R   0.769909 0.455508 0.252917 -0.147110
C139  C     C_R   0.746679 0.956481 0.691605 -0.121738
C140  C     C_R   0.269910 0.955508 0.252917 -0.147110
C141  C     C_R   0.310906 0.624929 0.909096 -0.131179
C142  C     C_R   0.575120 0.502708 0.372696 0.035870
C143  C     C_R   0.650965 0.650303 0.092891 -0.164432
C144  C     C_R   0.810906 0.124929 0.909096 -0.131179
C145  C     C_R   0.150965 0.150303 0.092891 -0.164432
C146  C     C_R   0.401819 0.375244 0.091537 -0.037215
C147  C     C_R   0.561992 0.348910 0.908826 -0.043719
C148  C     C_R   0.901819 0.875244 0.091537 -0.037215
C149  C     C_R   0.061992 0.848910 0.908826 -0.043719
C150  C     C_R   0.314874 0.359730 0.000053 -0.082435
C151  C     C_R   0.625360 0.319284 0.002561 -0.057084
C152  C     C_R   0.814874 0.859730 0.000053 -0.082434
H1    H     H_    0.941622 0.638115 0.345656 0.130987
H2    H     H_    0.384486 0.262561 0.077627 0.120082
H3    H     H_    0.879192 0.888339 0.386746 0.117409
H4    H     H_    0.011705 0.824286 0.499329 0.118919
H5    H     H_    0.090437 0.781980 0.422239 0.150110
H6    H     H_    0.042247 0.805500 0.234884 0.126955
H7    H     H_    0.120758 0.783645 0.807403 0.128362
H8    H     H_    0.023561 0.745936 0.619334 0.114611
H9    H     H_    0.855776 0.773245 0.489830 0.103006
H10   H     H_    0.785063 0.837465 0.551664 0.104396
H11   H     H_    0.881668 0.873532 0.741949 0.121721
H12   H     H_    0.041984 0.720766 0.912028 0.133643
H13   H     H_    0.884486 0.762561 0.077627 0.120082
H14   H     H_    0.807566 0.307768 0.110400 0.118121
H15   H     H_    0.129833 0.358938 0.921309 0.124766
H16   H     H_    0.307566 0.807769 0.110398 0.118121
H17   H     H_    0.629833 0.858938 0.921309 0.124766
H18   H     H_    0.390605 0.729370 0.111086 0.120162
H19   H     H_    0.543366 0.778618 0.920007 0.118770
H20   H     H_    0.890605 0.229370 0.111088 0.120162
H21   H     H_    0.091925 0.608312 0.585448 0.132701
H22   H     H_    0.043366 0.278618 0.920008 0.118770
H23   H     H_    0.594362 0.591670 0.653677 0.109230
H24   H     H_    0.602291 0.591957 0.498600 0.105558
H25   H     H_    0.094362 0.091670 0.653677 0.109230
H26   H     H_    0.102291 0.091957 0.498600 0.105557
H27   H     H_    0.628238 0.416887 0.514214 0.122725
H28   H     H_    0.615137 0.416175 0.666602 0.111296
H29   H     H_    0.128238 0.916887 0.514214 0.122725
H30   H     H_    0.115137 0.916175 0.666602 0.111296
H31   H     H_    0.432690 0.630403 0.180059 0.101922
H32   H     H_    0.441622 0.138115 0.345656 0.130987
H33   H     H_    0.517115 0.664851 0.824566 0.096439
H34   H     H_    0.932690 0.130403 0.180059 0.101922
H35   H     H_    0.017115 0.164851 0.824566 0.096439
H36   H     H_    0.591038 0.418008 0.343721 0.111932
H37   H     H_    0.537634 0.415323 0.743229 0.117557
H38   H     H_    0.091038 0.918008 0.343721 0.111932
H39   H     H_    0.037634 0.915323 0.743229 0.117557
H40   H     H_    0.245705 0.587108 0.669461 0.110458
H41   H     H_    0.786048 0.587984 0.249162 0.100818
H42   H     H_    0.745705 0.087109 0.669461 0.110459
H43   H     H_    0.591925 0.108312 0.585448 0.132701
H44   H     H_    0.286048 0.087984 0.249162 0.100817
H45   H     H_    0.569348 0.588659 0.330557 0.088016
H46   H     H_    0.525739 0.588951 0.738930 0.092304
H47   H     H_    0.069348 0.088659 0.330557 0.088016
H48   H     H_    0.025739 0.088951 0.738930 0.092304
H49   H     H_    0.238450 0.416597 0.657346 0.098429
H50   H     H_    0.793225 0.414113 0.265252 0.122380
H51   H     H_    0.738450 0.916597 0.657346 0.098428
H52   H     H_    0.293225 0.914113 0.265252 0.122380
H53   H     H_    0.253851 0.633703 0.824358 0.093261
H54   H     H_    0.126766 0.640685 0.908518 0.125712
H55   H     H_    0.693570 0.664088 0.177963 0.099201
H56   H     H_    0.753851 0.133703 0.824358 0.093261
H57   H     H_    0.193570 0.164088 0.177963 0.099201
H58   H     H_    0.111587 0.416213 0.483375 0.120538
H59   H     H_    0.946626 0.416489 0.330002 0.119987
H60   H     H_    0.611587 0.916213 0.483375 0.120538
H61   H     H_    0.446626 0.916489 0.330002 0.119987
H62   H     H_    0.216054 0.307858 0.802250 0.259039
H63   H     H_    0.179133 0.374649 0.747240 0.253340
H64   H     H_    0.273660 0.339184 0.751415 0.244955
H65   H     H_    0.801772 0.685403 0.083949 0.120241
H66   H     H_    0.654800 0.287631 0.197160 0.253217
H67   H     H_    0.766613 0.319758 0.250084 0.247408
H68   H     H_    0.677199 0.355362 0.254014 0.254695
H69   H     H_    0.716055 0.807858 0.802250 0.259039
H70   H     H_    0.679132 0.874648 0.747241 0.253340
H71   H     H_    0.773660 0.839184 0.751415 0.244955
H72   H     H_    0.154800 0.787631 0.197160 0.253217
H73   H     H_    0.266613 0.819758 0.250084 0.247408
H74   H     H_    0.177200 0.855362 0.254014 0.254695
H75   H     H_    0.969959 0.534032 0.556853 0.119324
H76   H     H_    0.626766 0.140685 0.908517 0.125712
H77   H     H_    0.880800 0.539033 0.638369 0.115089
H78   H     H_    0.772781 0.616071 0.594816 0.106796
H79   H     H_    0.751236 0.687578 0.465699 0.103958
H80   H     H_    0.839885 0.683691 0.383080 0.102155
H81   H     H_    0.070268 0.626432 0.313109 0.108600
H82   H     H_    0.168723 0.690464 0.294205 0.117448
H83   H     H_    0.284137 0.750039 0.451029 0.116247
H84   H     H_    0.298061 0.746994 0.626646 0.112355
H85   H     H_    0.198162 0.684574 0.646576 0.099199
H86   H     H_    0.469959 0.034032 0.556853 0.119324
H87   H     H_    0.301772 0.185403 0.083948 0.120241
H88   H     H_    0.380800 0.039033 0.638369 0.115089
H89   H     H_    0.272781 0.116071 0.594816 0.106795
H90   H     H_    0.251236 0.187578 0.465699 0.103958
H91   H     H_    0.339885 0.183691 0.383080 0.102155
H92   H     H_    0.570268 0.126432 0.313110 0.108600
H93   H     H_    0.668723 0.190465 0.294205 0.117449
H94   H     H_    0.784136 0.250039 0.451029 0.116247
H95   H     H_    0.798061 0.246994 0.626646 0.112355
H96   H     H_    0.698162 0.184575 0.646577 0.099199
H97   H     H_    0.329236 0.412303 0.198787 0.108784
H98   H     H_    0.541983 0.220766 0.912027 0.133644
H99   H     H_    0.379192 0.388339 0.386746 0.117409
H100  H     H_    0.511705 0.324286 0.499329 0.118919
H101  H     H_    0.590437 0.281981 0.422239 0.150110
H102  H     H_    0.542246 0.305499 0.234884 0.126955
H103  H     H_    0.620758 0.283645 0.807403 0.128362
H104  H     H_    0.523561 0.245936 0.619334 0.114611
H105  H     H_    0.355776 0.273245 0.489830 0.103006
H106  H     H_    0.285063 0.337464 0.551664 0.104396
H107  H     H_    0.381668 0.373531 0.741949 0.121721
H108  H     H_    0.829236 0.912303 0.198787 0.108784
N1    N     N_R   0.394180 0.396910 0.943210 -0.070997
N2    N     N_R   0.474350 0.471570 0.793850 -0.044112
N3    N     N_R   0.025650 0.971570 0.206150 -0.044225
N4    N     N_R   0.974350 0.971570 0.793850 -0.044112
N5    N     N_R   0.319480 0.528420 0.793810 -0.039072
N6    N     N_R   0.680520 0.528420 0.206190 -0.040684
N7    N     N_R   0.819480 0.028420 0.793810 -0.039072
N8    N     N_R   0.180520 0.028420 0.206190 -0.040684
N9    N     N_R   0.525640 0.528390 0.206120 -0.040481
N10   N     N_R   0.474360 0.528390 0.793880 -0.038628
N11   N     N_R   0.025640 0.028390 0.206120 -0.040481
N12   N     N_R   0.605820 0.396910 0.056790 -0.061754
N13   N     N_R   0.974360 0.028390 0.793880 -0.038628
N14   N     N_R   0.319490 0.471590 0.793840 -0.040575
N15   N     N_R   0.680510 0.471590 0.206160 -0.039829
N16   N     N_R   0.819490 0.971590 0.793840 -0.040575
N17   N     N_R   0.180510 0.971590 0.206160 -0.039829
N18   N     N_R   0.394130 0.603080 0.943110 -0.038809
N19   N     N_R   0.605870 0.603080 0.056890 -0.037908
N20   N     N_R   0.894130 0.103080 0.943110 -0.038809
N21   N     N_R   0.105870 0.103080 0.056890 -0.037908
N22   N     N_R   0.450990 0.396900 0.056840 -0.072017
N23   N     N_R   0.894180 0.896910 0.943210 -0.070997
N24   N     N_R   0.549010 0.396900 0.943160 -0.075592
N25   N     N_R   0.950990 0.896900 0.056840 -0.072017
N26   N     N_R   0.049010 0.896900 0.943160 -0.075592
N27   N     N_R   0.105820 0.896910 0.056790 -0.061755
N28   N     N_R   0.450950 0.603070 0.056740 -0.039522
N29   N     N_R   0.549050 0.603070 0.943260 -0.037354
N30   N     N_R   0.950950 0.103070 0.056740 -0.039522
N31   N     N_R   0.049050 0.103070 0.943260 -0.037354
N32   N     N_R   0.525650 0.471570 0.206150 -0.044225
Ni1   Ni    Ni4+2 0.434860 0.434850 0.869700 0.202015
Ni2   Ni    Ni4+2 0.565140 0.434850 0.130300 0.200635
Ni3   Ni    Ni4+2 0.934860 0.934850 0.869700 0.202015
Ni4   Ni    Ni4+2 0.065140 0.934850 0.130300 0.200635
Ni5   Ni    Ni4+2 0.565130 0.565140 0.130240 0.211173
Ni6   Ni    Ni4+2 0.434870 0.565140 0.869760 0.210043
Ni7   Ni    Ni4+2 0.065130 0.065140 0.130240 0.211173
Ni8   Ni    Ni4+2 0.934870 0.065140 0.869760 0.210043

loop_
_geom_bond_atom_site_label_1
_geom_bond_atom_site_label_2
_ccdc_geom_bond_type
C61   C70   S    
C113  H25   S    
C105  C110  A    
C108  C120  S    
C73   H60   S    
C19   C20   A    
C120  C144  A    
C94   H33   S    
C46   C129  A    
C2    C134  A    
C87   N27   A    
C6    H71   S    
N8    Ni7   S    
C135  H47   S    
C49   H108  S    
C60   H11   S    
C73   C74   A    
C95   N30   A    
C80   C86   A    
C62   C77   S    
C61   C132  A    
C146  C150  A    
C2    C116  S    
N19   N29   A    
C125  N2    A    
C70   C74   A    
C24   C127  A    
C128  N5    A    
C91   C100  A    
C14   H80   S    
N10   Ni6   S    
C40   H102  S    
C59   C60   A    
C101  C103  A    
C21   C22   A    
C119  H27   S    
C121  H28   S    
C99   H15   S    
C45   C47   A    
C15   C20   A    
C3    C149  A    
C4    H62   S    
C116  C121  A    
C51   C52   A    
N9    N32   A    
C37   H99   S    
C82   H76   S    
N8    N17   A    
C64   C66   A    
C43   C44   A    
C149  N26   A    
C37   C38   A    
N15   Ni2   S    
N6    N15   A    
C68   C72   A    
C135  N11   A    
C26   C27   A    
N2    Ni1   S    
C1    C150  A    
N21   N31   A    
C130  N7    A    
C28   C33   A    
C82   C84   A    
N20   Ni8   S    
C64   C79   S    
C133  H45   S    
C124  N32   A    
C93   N28   A    
C85   C90   A    
C39   H101  S    
C94   C109  A    
C98   C106  S    
N32   Ni2   S    
N13   Ni8   S    
C59   H10   S    
C35   C137  A    
C147  N24   A    
C138  H50   S    
C5    H67   S    
C16   H81   S    
C126  N3    A    
C78   H32   S    
C10   H77   S    
C136  H48   S    
C81   C88   A    
C34   C146  S    
C103  C107  A    
C129  N6    A    
C95   H34   S    
C23   H88   S    
C6    H70   S    
C102  H18   S    
C80   H54   S    
C4    H64   S    
N1    Ni1   S    
C93   H31   S    
C111  C112  A    
C90   C150  S    
C145  N21   A    
C19   H84   S    
C45   H106  S    
N18   Ni6   S    
C17   H82   S    
C133  C142  A    
C36   C37   A    
N14   Ni1   S    
C140  H52   S    
C38   C39   A    
C97   H14   S    
C80   C106  A    
C79   H43   S    
C127  N4    A    
C33   H96   S    
C28   C79   S    
C38   H100  S    
N23   Ni3   S    
C114  H26   S    
C109  C143  A    
N4    Ni3   S    
C82   C108  A    
C9    C10   A    
C24   C136  A    
N3    N11   A    
C103  H19   S    
C13   C135  A    
C96   H35   S    
C143  N19   A    
C145  H57   S    
C119  C121  A    
C48   C53   A    
C143  H55   S    
C57   C130  A    
C39   C40   A    
C124  H36   S    
C7    H73   S    
C25   C26   A    
C127  H39   S    
C128  H40   S    
C65   C151  A    
C147  C151  A    
C117  C122  A    
C46   C68   S    
C29   C30   A    
C75   H1    S    
C31   C32   A    
C35   C67   S    
C50   H3    S    
N3    Ni4   S    
C81   H65   S    
C17   C18   A    
C41   C47   A    
C83   C110  A    
C64   C69   A    
C69   C73   A    
N31   Ni8   S    
C75   C77   S    
C96   C131  A    
C112  H24   S    
C115  C119  A    
C90   C99   A    
C52   C53   A    
C12   H79   S    
C54   C55   A    
C22   C23   A    
C148  C152  A    
C27   H91   S    
C61   C140  A    
C6    C76   S    
C25   H89   S    
C134  N10   A    
C66   C70   A    
N19   Ni5   S    
C138  N15   A    
C71   C72   A    
C15   C77   S    
C63   C75   S    
C42   H103  S    
C56   C58   A    
C131  C145  A    
C34   C36   A    
C85   H2    S    
C141  H53   S    
C114  C117  A    
C10   C11   A    
C2    C125  A    
C49   C50   A    
C22   H86   S    
N12   Ni2   S    
C43   H104  S    
C55   C56   A    
C81   C107  A    
N12   N24   A    
C41   C42   A    
C53   H6    S    
N18   N28   A    
C28   C29   A    
C141  N18   A    
C86   C91   A    
C30   C31   A    
C72   H59   S    
C76   C152  A    
C137  N14   A    
C57   C139  A    
C3    C91   S    
C18   C19   A    
C65   N12   A    
C63   C68   A    
C122  H29   S    
C7    C87   S    
C136  N13   A    
C47   H107  S    
C16   C17   A    
C21   C78   S    
N28   Ni5   S    
C31   H94   S    
C101  H17   S    
C111  C116  A    
C146  N22   A    
C104  H20   S    
C55   H7    S    
C21   C27   A    
C115  C142  S    
N6    Ni5   S    
C107  C109  S    
C94   N29   A    
C66   C78   S    
N7    N16   A    
C32   H95   S    
C84   H98   S    
C18   H83   S    
N22   Ni2   S    
C58   C59   A    
N20   N30   A    
C62   C63   A    
N2    N10   A    
C5    H66   S    
C36   H97   S    
N5    Ni6   S    
C9    H75   S    
C92   C101  A    
C13   C126  A    
C48   C49   A    
C83   C85   A    
C148  N25   A    
C74   H61   S    
C34   C40   A    
C86   H12   S    
C42   C43   A    
C104  C108  A    
C44   C45   A    
C113  C114  A    
C52   H5    S    
C77   H21   S    
C140  N17   A    
C130  H42   S    
C13   C117  S    
C95   C120  A    
N4    N13   A    
C32   C33   A    
N11   Ni7   S    
C139  H51   S    
C7    H72   S    
N17   Ni4   S    
N25   Ni4   S    
C29   H92   S    
N26   Ni3   S    
C67   C71   A    
C118  C123  A    
C35   C128  A    
C97   C104  A    
C89   C151  S    
C58   H9    S    
C15   C16   A    
C144  H56   S    
C30   H93   S    
N23   N25   A    
C76   N23   A    
C96   N31   A    
N21   Ni7   S    
N9    Ni5   S    
C54   C60   A    
C137  H49   S    
C62   C67   A    
C111  H23   S    
N29   Ni6   S    
C123  H30   S    
N26   N27   A    
C5    H68   S    
C20   H85   S    
N27   Ni4   S    
C126  H38   S    
C44   H105  S    
C88   C92   A    
C8    C9    A    
C92   C152  S    
C46   C138  A    
C6    H69   S    
C4    H63   S    
C124  C142  A    
C50   C51   A    
C54   C149  S    
C99   C105  A    
C83   H87   S    
C51   H4    S    
C3    C87   A    
C110  C131  S    
C5    C65   S    
N16   Ni3   S    
C78   C79   S    
C8    C75   S    
C113  C118  A    
C89   C97   A    
C132  N8    A    
C133  N9    A    
C41   C147  S    
C71   H58   S    
C100  C102  A    
N7    Ni8   S    
C144  N20   A    
C1    N1    A    
C12   C14   A    
C88   H13   S    
C11   H78   S    
C105  H22   S    
C98   C141  A    
C139  N16   A    
C84   C89   A    
C134  H46   S    
C8    C14   A    
N30   Ni7   S    
C129  H41   S    
C11   C12   A    
C26   H90   S    
C7    H74   S    
C24   C118  S    
C100  H16   S    
C1    C4    S    
C56   H8    S    
N24   Ni1   S    
C48   C148  S    
C102  C106  A    
C23   C25   A    
N1    N22   A    
N5    N14   A    
C132  H44   S    
C125  H37   S    
C57   C69   S    
C122  C123  A    
C93   C98   A    
C112  C115  A    
