data_mof_unit_36701.cif
_audit_creation_date              2012-12-10T20:31:55-0500
_audit_creation_method            fapswitch 2.2
_symmetry_space_group_name_H-M    P1
_symmetry_Int_Tables_number       1
_space_group_crystal_system       triclinic
_cell_length_a                    9.872256
_cell_length_b                    10.662819
_cell_length_c                    15.371258
_cell_angle_alpha                 90.036909
_cell_angle_beta                  67.793514
_cell_angle_gamma                 89.338148
_cell_volume                      1497.93422129

loop_
_atom_site_label
_atom_site_type_symbol
_atom_type_description
_atom_site_fract_x
_atom_site_fract_y
_atom_site_fract_z
_atom_type_partial_charge
C1    C     C_R   0.499225 0.739532 0.500222 0.932491
C2    C     C_R   0.391820 0.564158 0.919870 0.135591
C3    C     C_R   0.250143 0.519841 0.974366 0.161479
C4    C     C_R   0.487766 0.600003 0.964181 0.003907
C5    C     C_R   0.453147 0.565878 0.058441 0.075396
C6    C     C_R   0.308486 0.528434 0.112784 -0.149584
C7    C     C_R   0.207320 0.509082 0.071351 -0.233922
C8    C     C_R   0.616584 0.668264 0.917494 -0.305121
C9    C     C_R   0.717616 0.691011 0.959319 0.357548
C10   C     C_R   0.696511 0.635308 0.046698 -0.012690
C11   C     C_R   0.564204 0.570748 0.095260 0.058763
C12   C     C_R   0.408253 0.501977 0.676391 0.857612
C13   C     C_R   0.802159 0.642878 0.087969 -0.119746
C14   C     C_R   0.774640 0.592032 0.176654 -0.207109
C15   C     C_R   0.547024 0.509710 0.178855 -0.142975
C16   C     C_R   0.464123 0.937203 0.434667 0.109279
C17   C     C_R   0.500143 0.871111 0.500743 -0.200947
C18   C     C_R   0.557399 0.931898 0.559625 -0.181394
C19   C     C_R   0.559427 0.061937 0.561629 0.163303
C20   C     C_R   0.504950 0.128214 0.501770 -0.096947
C21   C     C_R   0.466749 0.065219 0.435252 0.008828
C22   C     C_3   0.333736 0.077883 0.411541 -0.533119
C23   C     C_R   0.499904 0.260375 0.502057 0.900856
C24   C     C_3   0.329037 0.935402 0.412486 0.332771
C25   C     C_R   0.884411 0.547920 0.574725 0.215136
C26   C     C_R   0.969877 0.442809 0.430072 -0.124860
C27   C     C_R   0.113771 0.442721 0.430084 -0.075420
C28   C     C_R   0.026702 0.547102 0.575014 0.172918
C29   C     C_3   0.010212 0.677896 0.611694 -0.425219
C30   C     C_3   0.857394 0.679739 0.610143 -0.481123
C31   C     C_R   0.591351 0.502024 0.323569 0.892904
C32   C     C_R   0.348598 0.513303 0.778595 -0.067302
C33   C     C_R   0.644752 0.527678 0.223012 -0.051552
C34   C     C_R   0.155724 0.481961 0.930575 -0.144197
C35   C     C_R   0.204991 0.478446 0.832811 -0.112506
C36   C     C_R   0.438971 0.559138 0.822060 -0.247719
H1    H     H_    0.098199 0.478558 0.114529 0.145587
H2    H     H_    0.904714 0.690283 0.053774 0.226089
H3    H     H_    0.593509 0.878020 0.606920 0.157890
H4    H     H_    0.239280 0.121699 0.469118 0.188781
H5    H     H_    0.359551 0.120904 0.341303 0.240428
H6    H     H_    0.232177 0.897671 0.470097 0.071008
H7    H     H_    0.949860 0.398658 0.372755 0.147272
H8    H     H_    0.201963 0.398182 0.372781 0.138097
H9    H     H_    0.011075 0.681699 0.683674 0.256862
H10   H     H_    0.454159 0.450375 0.213059 0.128792
H11   H     H_    0.085702 0.743575 0.560930 0.213297
H12   H     H_    0.770106 0.686859 0.681246 0.200127
H13   H     H_    0.845036 0.745962 0.557701 0.224254
H14   H     H_    0.851766 0.607247 0.210265 0.168471
H15   H     H_    0.046186 0.450381 0.971752 0.144564
H16   H     H_    0.132787 0.444827 0.799797 0.158794
H17   H     H_    0.549692 0.583081 0.778439 0.148169
H18   H     H_    0.270088 0.516206 0.187975 0.160693
H19   H     H_    0.636029 0.710188 0.850083 0.184341
N1    N     N_R   0.856900 0.500860 0.500610 -0.104470
N2    N     N_R   0.142540 0.500820 0.500610 -0.096678
O1    O     O_R   0.385310 0.683210 0.499990 -0.601240
O2    O     O_R   0.614650 0.683240 0.500000 -0.614368
O3    O     O_R   0.319830 0.499970 0.632240 -0.612097
O4    O     O_R   0.549170 0.500000 0.632250 -0.619646
O5    O     O_R   0.385350 0.316760 0.500000 -0.625466
O6    O     O_R   0.614690 0.316790 0.500010 -0.613169
O7    O     O_R   0.450830 0.500000 0.367750 -0.585832
O8    O     O_R   0.680170 0.500030 0.367760 -0.621246
Zn1   Zn    Zn3+2 0.346870 0.499980 0.499990 0.981919
Zn2   Zn    Zn3+2 0.653130 0.500020 0.500010 0.952821
C37   C     C_3   0.608599 0.126315 0.632051 -0.819779
H20   H     H_    0.522482 0.193037 0.675738 0.228587
H21   H     H_    0.630008 0.058068 0.680083 0.242064
H22   H     H_    0.711677 0.177398 0.595063 0.255874
S1    S     S_3+6 0.361140 0.867197 0.299877 0.020953
O9    O     O_2   0.338477 0.728185 0.310763 -0.302842
O10   O     O_2   0.254868 0.922755 0.261323 -0.286659
O11   O     O_3   0.533268 0.895520 0.225504 -0.547720
H23   H     H_    0.540874 0.857215 0.165088 0.377731
S2    S     S_3+6 0.866059 0.791875 0.901226 -0.002935
O12   O     O_2   0.005855 0.716436 0.865919 -0.303180
O13   O     O_2   0.847002 0.856123 0.819479 -0.316385
O14   O     O_3   0.877333 0.901312 0.976957 -0.512567
H24   H     H_    0.778900 0.941162 0.002949 0.357483

loop_
_geom_bond_atom_site_label_1
_geom_bond_atom_site_label_2
_ccdc_geom_bond_type
C8    C9    A    
C16   C21   A    
C24   H6    S    
C19   C20   A    
C25   N1    A    
N2    Zn1   S    
C4    C8    A    
C14   C33   A    
C28   N2    A    
C25   C28   A    
C34   H15   S    
C29   H11   S    
C32   C36   A    
C30   H12   S    
C28   C29   S    
C5    C11   A    
C3    C7    A    
C1    O2    A    
C5    C6    A    
C22   H5    S    
C18   C19   A    
C34   C35   A    
C18   H3    S    
C36   H17   S    
O2    Zn2   S    
C37   H20   S    
C11   C15   A    
C27   H8    S    
O1    Zn1   S    
C23   O5    A    
C16   C17   A    
O8    Zn2   S    
C31   C33   S    
C9    C10   A    
S1    O9    D    
C23   O6    A    
O3    Zn1   S    
C16   C24   S    
C13   C14   A    
C12   C32   S    
C6    H18   S    
S1    O11   S    
C8    H19   S    
C26   H7    S    
S2    O13   D    
O6    Zn2   S    
O5    Zn1   S    
C32   C35   A    
S1    O10   D    
C27   N2    A    
C4    C5    A    
C3    C34   A    
S2    O12   D    
C29   H9    S    
O7    Zn1   S    
C2    C4    A    
O11   H23   S    
C29   C30   S    
O4    Zn2   S    
C20   C23   S    
C22   H4    S    
C17   C18   A    
C7    H1    S    
C19   C37   S    
C9    S2    S    
C13   H2    S    
C30   H13   S    
C26   C27   A    
C22   C24   S    
C24   S1    S    
S2    O14   S    
C2    C36   A    
C25   C30   S    
C31   O8    A    
C31   O7    A    
O14   H24   S    
C10   C13   A    
C26   N1    A    
C6    C7    A    
N1    Zn2   S    
C1    C17   S    
C2    C3    A    
C1    O1    A    
C12   O4    A    
C14   H14   S    
C37   H22   S    
C10   C11   A    
C12   O3    A    
C20   C21   A    
C37   H21   S    
C35   H16   S    
C15   H10   S    
C21   C22   S    
C15   C33   A    
