data_mof_unit_12631.cif
_audit_creation_date              2012-12-10T20:25:41-0500
_audit_creation_method            fapswitch 2.2
_symmetry_space_group_name_H-M    P1
_symmetry_Int_Tables_number       1
_space_group_crystal_system       triclinic
_cell_length_a                    8.600292
_cell_length_b                    10.67998
_cell_length_c                    9.907935
_cell_angle_alpha                 89.930235
_cell_angle_beta                  98.524026
_cell_angle_gamma                 90.872492
_cell_volume                      899.895729262

loop_
_atom_site_label
_atom_site_type_symbol
_atom_type_description
_atom_site_fract_x
_atom_site_fract_y
_atom_site_fract_z
_atom_type_partial_charge
C1    C     C_R   0.496066 0.259972 0.499626 0.877129
C2    C     C_R   0.443665 0.934593 0.372097 -0.183571
C3    C     C_R   0.468681 0.870828 0.496815 -0.115041
C4    C     C_R   0.464107 0.935601 0.618137 0.120081
C5    C     C_3   0.569435 0.929269 0.752242 -0.444671
C6    C     C_3   0.570336 0.071279 0.752298 -0.443674
C7    C     C_R   0.429160 0.404164 0.062320 0.136912
C8    C     C_R   0.577800 0.591375 0.079657 0.008034
C9    C     C_R   0.577692 0.589907 0.936422 -0.162944
C10   C     C_R   0.429438 0.404349 0.919600 0.171752
C11   C     C_3   0.260031 0.368904 0.888803 -0.478598
C12   C     C_R   0.201524 0.493146 0.464341 0.867269
C13   C     C_3   0.256876 0.372654 0.041302 -0.138654
C14   C     C_R   0.494604 0.739804 0.499380 0.888780
C15   C     C_R   0.798257 0.495479 0.535366 0.992210
C16   C     C_2   0.038303 0.466733 0.447231 -0.174608
C17   C     C_2   0.963479 0.496070 0.552167 -0.456997
C18   C     C_R   0.464931 0.063466 0.618149 0.113705
C19   C     C_R   0.471999 0.128123 0.497026 -0.094537
C20   C     C_R   0.448152 0.063819 0.372252 -0.192888
H1    H     H_    0.638352 0.663071 0.888120 0.159954
H2    H     H_    0.188195 0.443323 0.833088 0.204113
H3    H     H_    0.242388 0.274172 0.842048 0.205041
H4    H     H_    0.184762 0.449395 0.073099 0.227654
H5    H     H_    0.023155 0.536772 0.646711 0.167708
H6    H     H_    0.444606 0.111976 0.275973 0.170990
H7    H     H_    0.432374 0.885804 0.275512 0.209620
H8    H     H_    0.508466 0.887815 0.833460 0.230510
H9    H     H_    0.686057 0.888889 0.743765 0.203378
H10   H     H_    0.509995 0.111768 0.833588 0.205430
H11   H     H_    0.687484 0.113577 0.743816 0.212011
N1    N     N_R   0.498950 0.499140 0.142680 -0.154308
N2    N     N_R   0.498950 0.499180 0.857030 -0.110769
O1    O     O_R   0.500020 0.316790 0.614690 -0.621174
O2    O     O_R   0.500000 0.316760 0.385350 -0.625103
O3    O     O_R   0.271760 0.500010 0.587850 -0.620479
O4    O     O_R   0.271740 0.499970 0.358500 -0.618326
O5    O     O_R   0.500000 0.683240 0.614650 -0.622818
O6    O     O_R   0.499980 0.683210 0.385310 -0.619441
O7    O     O_R   0.728260 0.500030 0.641500 -0.627015
O8    O     O_R   0.728240 0.499990 0.412150 -0.548445
Zn1   Zn    Zn3+2 0.500010 0.500020 0.653130 0.948204
Zn2   Zn    Zn3+2 0.499990 0.499980 0.346870 0.994610
C21   C     C_2   0.966047 0.395779 0.323972 0.978953
O9    O     O_2   0.911721 0.290602 0.336294 -0.639491
O10   O     O_R   0.955256 0.451413 0.195473 -0.784819
H12   H     H_    0.899648 0.395441 0.120256 0.336080
N3    N     N_3   0.220059 0.250496 0.096516 -0.417258
H13   H     H_    0.299738 0.183977 0.072398 0.189756
H14   H     H_    0.233952 0.258499 0.202741 0.215565
C22   C     C_2   0.656978 0.699635 0.154067 0.960066
O11   O     O_2   0.619668 0.805493 0.116388 -0.687940
O12   O     O_R   0.782554 0.682780 0.258403 -0.744072
H15   H     H_    0.828278 0.764869 0.298928 0.332126

loop_
_geom_bond_atom_site_label_1
_geom_bond_atom_site_label_2
_ccdc_geom_bond_type
O4    Zn2   S    
C7    C10   A    
O5    Zn1   S    
C2    H7    S    
C14   O5    A    
C5    H8    S    
C11   C13   S    
C16   C21   S    
C11   H2    S    
O3    Zn1   S    
C19   C20   A    
O1    Zn1   S    
C17   H5    S    
O7    Zn1   S    
C6    H11   S    
C4    C18   A    
O12   H15   S    
C9    N2    A    
O8    Zn2   S    
C8    C22   S    
C9    H1    S    
C16   C17   D    
C3    C14   S    
C20   H6    S    
N2    Zn1   S    
N3    H14   S    
N3    H13   S    
C6    H10   S    
N1    Zn2   S    
C21   O10   S    
C1    O1    A    
C2    C3    A    
C10   N2    A    
C5    H9    S    
C5    C6    S    
C6    C18   S    
C15   O7    A    
C1    C19   S    
C12   O3    A    
C10   C11   S    
C15   O8    A    
C2    C20   A    
C22   O11   D    
C8    N1    A    
C12   C16   S    
C7    C13   S    
O2    Zn2   S    
C21   O9    D    
C1    O2    A    
C18   C19   A    
C11   H3    S    
C12   O4    A    
C15   C17   S    
O10   H12   S    
C8    C9    A    
O6    Zn2   S    
C7    N1    A    
C14   O6    A    
C3    C4    A    
C13   H4    S    
C4    C5    S    
C22   O12   S    
C13   N3    S    
