data_mof_unit_24806.cif
_audit_creation_date              2012-12-10T19:00:46-0500
_audit_creation_method            fapswitch 2.2
_symmetry_space_group_name_H-M    P1
_symmetry_Int_Tables_number       1
_space_group_crystal_system       triclinic
_cell_length_a                    15.075167
_cell_length_b                    10.827267
_cell_length_c                    9.573373
_cell_angle_alpha                 89.390782
_cell_angle_beta                  89.352828
_cell_angle_gamma                 91.076425
_cell_volume                      1562.12597165

loop_
_atom_site_label
_atom_site_type_symbol
_atom_type_description
_atom_site_fract_x
_atom_site_fract_y
_atom_site_fract_z
_atom_type_partial_charge
C1    C     C_R   0.501151 0.262459 0.500569 0.793620
C2    C     C_R   0.906321 0.526824 0.623761 0.108369
C3    C     C_R   0.955267 0.462655 0.249044 -0.213757
C4    C     C_R   0.047756 0.461901 0.249593 -0.213689
C5    C     C_R   0.093678 0.483063 0.373890 0.107837
C6    C     C_R   0.046489 0.505787 0.498775 0.062732
C7    C     C_R   0.092213 0.528652 0.623994 0.110935
C8    C     C_R   0.044762 0.550702 0.747725 -0.213869
C9    C     C_R   0.952265 0.549335 0.747720 -0.214175
C10   C     C_R   0.186044 0.481396 0.375638 -0.244418
C11   C     C_R   0.231750 0.503386 0.500202 -0.071809
C12   C     C_R   0.328668 0.500970 0.500430 0.809825
C13   C     C_R   0.184660 0.528850 0.623332 -0.254407
C14   C     C_R   0.495251 0.062026 0.625346 0.138898
C15   C     C_R   0.508854 0.129492 0.501764 -0.095099
C16   C     C_R   0.533666 0.066865 0.379920 -0.212024
C17   C     C_R   0.533634 0.938065 0.379361 -0.216554
C18   C     C_R   0.508536 0.871092 0.500302 -0.096891
C19   C     C_R   0.494977 0.934774 0.624528 0.121208
C20   C     C_3   0.419025 0.925083 0.725911 -0.459799
C21   C     C_3   0.419458 0.065090 0.727013 -0.491465
C22   C     C_R   0.569627 0.550783 0.071316 0.243376
C23   C     C_R   0.501297 0.737631 0.499568 0.800282
C24   C     C_R   0.436964 0.437383 0.078462 -0.081003
C25   C     C_R   0.436522 0.435482 0.930264 0.246114
C26   C     C_R   0.569870 0.550311 0.924311 0.222007
C27   C     C_3   0.604051 0.680081 0.915316 -0.495002
C28   C     C_3   0.602436 0.681376 0.073929 -0.503527
C29   C     C_R   0.671318 0.500895 0.499376 0.813266
C30   C     C_R   0.813933 0.524911 0.622987 -0.245594
C31   C     C_R   0.768223 0.503048 0.498488 -0.072210
C32   C     C_R   0.815273 0.483387 0.373690 -0.250862
C33   C     C_R   0.907764 0.483921 0.372935 0.109310
C34   C     C_R   0.953493 0.505622 0.498455 0.063118
Cu1   Cu    Cu3+1 0.500000 0.499980 0.640670 0.939243
Cu2   Cu    Cu3+1 0.500000 0.500020 0.359330 0.937969
H1    H     H_    0.777729 0.541006 0.719399 0.149600
H2    H     H_    0.550101 0.891718 0.283543 0.154421
H3    H     H_    0.358260 0.883756 0.679212 0.198828
H4    H     H_    0.438243 0.883987 0.827690 0.193610
H5    H     H_    0.358750 0.105096 0.681249 0.193669
H6    H     H_    0.439597 0.104054 0.829083 0.205874
H7    H     H_    0.385241 0.389536 0.138218 0.146744
H8    H     H_    0.672215 0.686100 0.869988 0.189823
H9    H     H_    0.556069 0.744180 0.867965 0.216485
H10   H     H_    0.669475 0.690176 0.120370 0.194815
H11   H     H_    0.780038 0.466440 0.277426 0.152900
H12   H     H_    0.551959 0.744458 0.116377 0.208345
H13   H     H_    0.920906 0.446111 0.151985 0.140673
H14   H     H_    0.083351 0.444742 0.152944 0.140286
H15   H     H_    0.222216 0.462400 0.279931 0.150447
H16   H     H_    0.219716 0.550100 0.718343 0.148209
H17   H     H_    0.079159 0.568189 0.844544 0.140818
H18   H     H_    0.916677 0.565830 0.844542 0.139309
H19   H     H_    0.549762 0.116777 0.284019 0.165597
N1    N     N_R   0.500570 0.500930 0.147930 -0.204615
N2    N     N_R   0.500570 0.500890 0.852020 -0.186604
O1    O     O_R   0.500000 0.319640 0.618810 -0.586561
O2    O     O_R   0.500010 0.319680 0.381230 -0.585602
O3    O     O_R   0.370250 0.499950 0.618800 -0.585155
O4    O     O_R   0.370260 0.499990 0.381220 -0.588790
O5    O     O_R   0.499990 0.680320 0.618770 -0.580690
O6    O     O_R   0.500000 0.680360 0.381190 -0.580666
O7    O     O_R   0.629740 0.500010 0.618780 -0.583800
O8    O     O_R   0.629750 0.500050 0.381200 -0.585193
C35   C     C_3   0.360850 0.364218 0.866913 -0.816910
H20   H     H_    0.378359 0.321614 0.767339 0.272390
H21   H     H_    0.339220 0.286287 0.936531 0.180050
H22   H     H_    0.303488 0.425417 0.854596 0.219734

loop_
_geom_bond_atom_site_label_1
_geom_bond_atom_site_label_2
_ccdc_geom_bond_type
C8    H17   S    
C35   H21   S    
C11   C12   S    
C6    C7    A    
C1    C15   S    
C24   N1    A    
C13   H16   S    
C19   C20   S    
Cu1   N2    S    
C30   C31   A    
C2    C30   A    
Cu2   O2    S    
C32   C33   A    
C27   H9    S    
C23   O6    A    
C35   H20   S    
C3    H13   S    
C16   H19   S    
C5    C10   A    
C29   C31   S    
C22   C28   S    
C1    O1    A    
C24   C25   A    
C12   O4    A    
C11   C13   A    
C28   H10   S    
C26   C27   S    
Cu1   O7    S    
C25   N2    A    
Cu1   O1    S    
C29   O8    A    
C10   H15   S    
C14   C19   A    
C14   C21   S    
Cu2   N1    S    
C32   H11   S    
C33   C34   A    
Cu1   O5    S    
C17   H2    S    
C1    O2    A    
Cu2   O4    S    
C5    C6    A    
C20   H4    S    
C26   N2    A    
C21   H5    S    
C29   O7    A    
C35   H22   S    
C7    C8    A    
C10   C11   A    
C3    C33   A    
C18   C23   S    
Cu2   O6    S    
C6    C34   A    
C25   C35   S    
C7    C13   A    
C20   C21   S    
C30   H1    S    
C9    H18   S    
C17   C18   A    
C18   C19   A    
C22   C26   A    
C27   C28   S    
C24   H7    S    
C20   H3    S    
Cu2   O8    S    
Cu1   O3    S    
C22   N1    A    
C21   H6    S    
C23   O5    A    
C2    C34   A    
C14   C15   A    
C2    C9    A    
C4    C5    A    
C27   H8    S    
C31   C32   A    
C28   H12   S    
C3    C4    A    
C15   C16   A    
C16   C17   A    
C4    H14   S    
C8    C9    A    
Cu1   Cu2   S    
C12   O3    A    
