data_mof_unit_46785.cif
_audit_creation_date              2012-12-11T14:44:32-0500
_audit_creation_method            fapswitch 2.2
_symmetry_space_group_name_H-M    P1
_symmetry_Int_Tables_number       1
_space_group_crystal_system       triclinic
_cell_length_a                    24.943418
_cell_length_b                    16.724629
_cell_length_c                    15.781586
_cell_angle_alpha                 90.174136
_cell_angle_beta                  49.26919
_cell_angle_gamma                 89.759099
_cell_volume                      4988.75072394

loop_
_atom_site_label
_atom_site_type_symbol
_atom_type_description
_atom_site_fract_x
_atom_site_fract_y
_atom_site_fract_z
_atom_type_partial_charge
C1    C     C_R   0.347887 0.143588 0.762811 -0.210153
C2    C     C_R   0.665039 0.879198 0.204286 -0.229005
C3    C     C_R   0.664678 0.121194 0.208917 -0.203869
C4    C     C_R   0.336773 0.876993 0.792572 -0.208836
C5    C     C_R   0.848918 0.644804 0.760327 -0.204504
C6    C     C_R   0.164720 0.378478 0.204764 -0.228045
C7    C     C_R   0.164625 0.621385 0.209227 -0.206052
C8    C     C_R   0.837216 0.375889 0.791538 -0.208642
C9    C     C_3   0.243057 0.196776 0.405883 0.261552
C10   C     C_3   0.700597 0.720460 0.603895 0.261431
C11   C     C_3   0.757537 0.197149 0.597607 0.261769
C12   C     C_3   0.295556 0.725213 0.397791 0.263652
C13   C     C_3   0.746868 0.701068 0.396477 0.267103
C14   C     C_3   0.215017 0.245206 0.593804 0.255178
C15   C     C_3   0.257937 0.696624 0.597677 0.262980
C16   C     C_3   0.795223 0.226043 0.397728 0.263929
C17   C     C_2   0.704746 0.164102 0.024671 -0.254754
C18   C     C_2   0.326612 0.780304 0.920201 -0.268248
C19   C     C_2   0.340478 0.256617 0.872123 -0.279369
C20   C     C_2   0.695871 0.815570 0.035057 -0.247513
C21   C     C_2   0.204994 0.664431 0.024910 -0.255723
C22   C     C_2   0.827407 0.278580 0.918525 -0.268070
C23   C     C_2   0.842157 0.758227 0.869160 -0.268847
C24   C     C_2   0.194914 0.315226 0.035484 -0.248600
C25   C     C_2   0.774845 0.148922 0.963121 0.307912
C26   C     C_2   0.323918 0.709729 0.881513 0.302533
C27   C     C_2   0.311962 0.312874 0.849277 0.292837
C28   C     C_2   0.746993 0.856667 0.942023 0.286632
C29   C     C_2   0.275208 0.650101 0.963808 0.306793
C30   C     C_2   0.823979 0.208149 0.880390 0.299592
C31   C     C_2   0.811965 0.812944 0.847577 0.283470
C32   C     C_2   0.246735 0.356634 0.943424 0.290994
C33   C     C_R   0.615335 0.112732 0.588218 -0.109157
C34   C     C_R   0.414409 0.848150 0.410199 -0.147897
C35   C     C_R   0.390964 0.124331 0.409400 -0.127750
C36   C     C_R   0.585529 0.847809 0.588523 -0.149063
C37   C     C_R   0.115509 0.612233 0.588221 -0.108998
C38   C     C_R   0.914317 0.348215 0.410195 -0.148653
C39   C     C_R   0.886040 0.615014 0.410776 -0.110337
C40   C     C_R   0.086159 0.348799 0.589410 -0.148594
C41   C     C_R   0.687641 0.115057 0.402628 -0.144027
C42   C     C_R   0.337089 0.852485 0.595001 -0.126191
C43   C     C_R   0.315069 0.121872 0.595838 -0.150297
C44   C     C_R   0.662427 0.851634 0.403734 -0.117196
C45   C     C_R   0.187844 0.614548 0.402681 -0.144917
C46   C     C_R   0.836888 0.352635 0.595001 -0.125389
C47   C     C_R   0.811641 0.613922 0.596833 -0.153218
C48   C     C_R   0.162379 0.351456 0.404486 -0.114441
C49   C     C_R   0.581662 0.111480 0.195729 0.326194
C50   C     C_R   0.423808 0.881918 0.796612 0.325496
C51   C     C_R   0.433203 0.139911 0.771638 0.326325
C52   C     C_R   0.578644 0.884819 0.199028 0.328418
C53   C     C_R   0.081668 0.611810 0.195891 0.328212
C54   C     C_R   0.924121 0.381087 0.795904 0.325933
C55   C     C_R   0.933331 0.639988 0.771395 0.327414
C56   C     C_R   0.078280 0.384517 0.199525 0.329623
C57   C     C_R   0.375797 0.185325 0.800689 0.137359
C58   C     C_R   0.645961 0.854154 0.144709 0.115934
C59   C     C_R   0.650769 0.137209 0.140292 0.103965
C60   C     C_R   0.358476 0.848912 0.847189 0.132033
C61   C     C_R   0.876386 0.685852 0.799551 0.117373
C62   C     C_R   0.145310 0.353269 0.145545 0.115801
C63   C     C_R   0.150868 0.637395 0.140454 0.103545
C64   C     C_R   0.859266 0.347176 0.845399 0.132749
C65   C     C_R   0.679753 0.138125 0.493192 0.085168
C66   C     C_R   0.363977 0.804612 0.504270 0.078546
C67   C     C_R   0.327653 0.153331 0.504219 0.093159
C68   C     C_R   0.635975 0.803873 0.493607 0.076502
C69   C     C_R   0.180108 0.637264 0.493233 0.084798
C70   C     C_R   0.863764 0.304779 0.504283 0.079074
C71   C     C_R   0.820235 0.638040 0.506120 0.089683
C72   C     C_R   0.136594 0.304587 0.495234 0.076523
C73   C     C_3   0.293122 0.243539 0.411930 0.168112
C74   C     C_3   0.659806 0.680313 0.573799 0.179015
C75   C     C_3   0.711754 0.238425 0.577791 0.176105
C76   C     C_3   0.341833 0.684481 0.417194 0.176163
C77   C     C_3   0.787251 0.741448 0.426973 0.173116
C78   C     C_3   0.164751 0.198526 0.588119 0.172959
C79   C     C_3   0.212082 0.737657 0.577831 0.175646
C80   C     C_3   0.841436 0.185069 0.417091 0.176752
C81   C     C_3   0.721959 0.788967 0.522296 -0.291324
C82   C     C_3   0.224454 0.139986 0.499690 -0.299485
C83   C     C_3   0.273320 0.789884 0.485395 -0.288777
C84   C     C_3   0.779271 0.131582 0.509720 -0.306965
C85   C     C_3   0.234088 0.301065 0.500216 -0.286622
C86   C     C_3   0.726112 0.631519 0.478073 -0.307819
C87   C     C_3   0.773066 0.290609 0.485411 -0.289211
C88   C     C_3   0.279733 0.630929 0.509877 -0.308201
C89   C     C_3   0.680216 0.747683 0.492797 0.032838
C90   C     C_3   0.275056 0.188616 0.504540 0.022809
C91   C     C_3   0.320504 0.748080 0.504131 0.032953
C92   C     C_3   0.732784 0.174583 0.491033 0.019990
C93   C     C_3   0.182853 0.253255 0.495388 0.034235
C94   C     C_3   0.767063 0.673772 0.507785 0.018837
C95   C     C_3   0.820182 0.248540 0.504110 0.032711
C96   C     C_3   0.233175 0.673693 0.491140 0.019881
H1    H     H_    0.299123 0.156426 0.780128 0.127381
H2    H     H_    0.718300 0.878818 0.174246 0.120591
H3    H     H_    0.714062 0.127864 0.191289 0.139803
H4    H     H_    0.284744 0.870228 0.819189 0.112901
H5    H     H_    0.801621 0.659433 0.773898 0.137390
H6    H     H_    0.217963 0.377613 0.174798 0.119912
H7    H     H_    0.213857 0.628297 0.192021 0.140561
H8    H     H_    0.785195 0.368896 0.818224 0.112906
H9    H     H_    0.599757 0.108525 0.669743 0.123047
H10   H     H_    0.440992 0.829254 0.326061 0.145320
H11   H     H_    0.410137 0.127148 0.325497 0.135354
H12   H     H_    0.560038 0.829630 0.672214 0.145731
H13   H     H_    0.099836 0.607933 0.669805 0.122981
H14   H     H_    0.940867 0.329352 0.326046 0.145342
H15   H     H_    0.904758 0.615960 0.327015 0.122448
H16   H     H_    0.061835 0.332345 0.673147 0.151498
H17   H     H_    0.735341 0.114599 0.315878 0.109420
H18   H     H_    0.290954 0.841364 0.680293 0.099197
H19   H     H_    0.265655 0.121301 0.681094 0.103891
H20   H     H_    0.707328 0.839334 0.317616 0.107698
H21   H     H_    0.235556 0.613942 0.315941 0.109709
H22   H     H_    0.790483 0.341763 0.680168 0.098586
H23   H     H_    0.763240 0.611948 0.682916 0.111819
H24   H     H_    0.207950 0.339072 0.318556 0.100831
H25   H     H_    0.720915 0.853708 0.539489 0.153756
H26   H     H_    0.221150 0.073762 0.500804 0.147960
H27   H     H_    0.270349 0.855204 0.476068 0.153114
H28   H     H_    0.781671 0.066029 0.517929 0.148277
H29   H     H_    0.238165 0.367244 0.499678 0.152257
H30   H     H_    0.728040 0.566507 0.461732 0.148312
H31   H     H_    0.770190 0.355968 0.476181 0.152604
H32   H     H_    0.282235 0.565407 0.518159 0.148882
H33   H     H_    0.297399 0.789788 0.008891 0.125729
H34   H     H_    0.687917 0.209033 0.996456 0.125823
H35   H     H_    0.702235 0.751527 0.037439 0.113459
H36   H     H_    0.323753 0.253247 0.955123 0.116850
H37   H     H_    0.798758 0.288040 0.007034 0.125761
H38   H     H_    0.188030 0.708854 0.996349 0.126154
H39   H     H_    0.200255 0.250851 0.036918 0.112412
H40   H     H_    0.827781 0.757139 0.950630 0.118670
N1    N     N_R   0.389620 0.081040 0.705440 -0.058743
N2    N     N_R   0.610380 0.918960 0.294560 -0.053357
N3    N     N_R   0.610380 0.081040 0.294560 -0.059086
N4    N     N_R   0.389620 0.918960 0.705440 -0.053797
N5    N     N_R   0.889620 0.581040 0.705440 -0.060034
N6    N     N_R   0.110380 0.418960 0.294560 -0.053100
N7    N     N_R   0.110380 0.581040 0.294560 -0.059371
N8    N     N_R   0.889620 0.418960 0.705440 -0.053752
N9    N     N_R   0.582320 0.079840 0.556630 -0.042664
N10   N     N_R   0.417680 0.920160 0.443370 -0.045096
N11   N     N_R   0.417680 0.079840 0.443370 -0.043334
N12   N     N_R   0.582320 0.920160 0.556630 -0.045507
N13   N     N_R   0.082320 0.579840 0.556630 -0.042930
N14   N     N_R   0.917680 0.420160 0.443370 -0.045236
N15   N     N_R   0.917680 0.579840 0.443370 -0.043585
N16   N     N_R   0.082320 0.420160 0.556630 -0.046010
N17   N     N_R   0.627920 0.078930 0.443400 -0.041229
N18   N     N_R   0.372080 0.921070 0.556600 -0.040048
N19   N     N_R   0.372080 0.078930 0.556600 -0.038799
N20   N     N_R   0.627920 0.921070 0.443400 -0.041971
N21   N     N_R   0.127920 0.578930 0.443400 -0.041287
N22   N     N_R   0.872080 0.421070 0.556600 -0.039639
N23   N     N_R   0.872080 0.578930 0.556600 -0.039909
N24   N     N_R   0.127920 0.421070 0.443400 -0.042159
N25   N     N_R   0.555090 0.077730 0.294590 -0.058315
N26   N     N_R   0.444910 0.922270 0.705410 -0.059268
N27   N     N_R   0.444910 0.077730 0.705410 -0.060717
N28   N     N_R   0.555090 0.922270 0.294590 -0.059656
N29   N     N_R   0.055090 0.577730 0.294590 -0.058727
N30   N     N_R   0.944910 0.422270 0.705410 -0.059276
N31   N     N_R   0.944910 0.577730 0.705410 -0.060906
N32   N     N_R   0.055090 0.422270 0.294590 -0.059842
Ni1   Ni    Ni4+2 0.382970 1.000000 0.629840 0.203150
Ni2   Ni    Ni4+2 0.617030 1.000000 0.370160 0.199900
Ni3   Ni    Ni4+2 0.882970 0.500000 0.629840 0.202193
Ni4   Ni    Ni4+2 0.117030 0.500000 0.370160 0.199222
Ni5   Ni    Ni4+2 0.514540 1.000000 0.629840 0.205766
Ni6   Ni    Ni4+2 0.485460 1.000000 0.370160 0.205181
Ni7   Ni    Ni4+2 0.014540 0.500000 0.629840 0.205062
Ni8   Ni    Ni4+2 0.985460 0.500000 0.370160 0.204533
C97   C     C_3   0.550661 0.103090 0.141134 -1.060238
H41   H     H_    0.532512 0.162500 0.137008 0.255772
H42   H     H_    0.591103 0.078887 0.055007 0.262785
H43   H     H_    0.505803 0.061324 0.188097 0.252876
C98   C     C_3   0.453285 0.892916 0.853514 -1.075870
H44   H     H_    0.412561 0.921338 0.936675 0.261648
H45   H     H_    0.468024 0.834020 0.865673 0.258386
H46   H     H_    0.500029 0.932647 0.803980 0.250098
C99   C     C_3   0.463120 0.146754 0.827985 -1.056179
H47   H     H_    0.501622 0.196273 0.790928 0.270658
H48   H     H_    0.419969 0.159658 0.918372 0.251285
H49   H     H_    0.487804 0.089229 0.821659 0.251100
C100  C     C_3   0.546730 0.893215 0.145488 -1.051805
H50   H     H_    0.583420 0.925587 0.065365 0.271402
H51   H     H_    0.537060 0.833061 0.128113 0.255032
H52   H     H_    0.496278 0.927203 0.200147 0.244490
C101  C     C_3   0.050351 0.604288 0.141726 -1.058269
H53   H     H_    0.030833 0.663633 0.140454 0.254918
H54   H     H_    0.090944 0.581870 0.054609 0.262188
H55   H     H_    0.006400 0.561394 0.187296 0.252257
C102  C     C_3   0.952826 0.392347 0.853934 -1.074390
H56   H     H_    0.911353 0.419695 0.937603 0.260765
H57   H     H_    0.968340 0.333650 0.865186 0.260856
H58   H     H_    0.998838 0.433167 0.805824 0.249216
C103  C     C_3   0.963191 0.646838 0.827827 -1.053138
H59   H     H_    0.001764 0.696277 0.790716 0.270260
H60   H     H_    0.920008 0.659822 0.918181 0.252124
H61   H     H_    0.987788 0.589289 0.821656 0.250162
C104  C     C_3   0.046628 0.393665 0.145670 -1.051927
H62   H     H_    0.083437 0.426562 0.066034 0.271718
H63   H     H_    0.037101 0.333762 0.127453 0.254256
H64   H     H_    0.996119 0.427536 0.200511 0.243540
N33   N     N_2   0.363396 0.268519 0.314785 -0.112696
H65   H     H_    0.365926 0.287563 0.250207 0.174580
C105  C     C_3   0.397971 0.322641 0.337246 -0.932146
H66   H     H_    0.454079 0.329699 0.260235 0.249912
H67   H     H_    0.396846 0.298930 0.404006 0.266780
H68   H     H_    0.371586 0.382229 0.363091 0.244562
N34   N     N_2   0.589533 0.647590 0.654959 -0.108170
H69   H     H_    0.584638 0.611520 0.712492 0.175899
C106  C     C_3   0.561222 0.611465 0.608211 -0.925514
H70   H     H_    0.506473 0.590940 0.676992 0.254151
H71   H     H_    0.594002 0.558997 0.555261 0.250523
H72   H     H_    0.559578 0.655569 0.557475 0.260524
N35   N     N_2   0.640748 0.268419 0.666729 -0.113056
H73   H     H_    0.634872 0.293010 0.732362 0.175999
C107  C     C_3   0.611273 0.318728 0.631343 -0.936071
H74   H     H_    0.554684 0.331206 0.703640 0.252212
H75   H     H_    0.614722 0.288663 0.565109 0.268765
H76   H     H_    0.639740 0.376522 0.599481 0.245583
N36   N     N_2   0.413355 0.656262 0.328585 -0.110999
H77   H     H_    0.417776 0.621777 0.270015 0.173250
C108  C     C_3   0.447752 0.620468 0.365650 -0.918563
H78   H     H_    0.503363 0.605195 0.291881 0.248358
H79   H     H_    0.420046 0.564920 0.413008 0.249556
H80   H     H_    0.448325 0.662927 0.419269 0.262529
N37   N     N_2   0.857180 0.775414 0.345704 -0.110094
H81   H     H_    0.864363 0.803437 0.280900 0.172996
C109  C     C_3   0.881299 0.823220 0.391558 -0.918838
H82   H     H_    0.938120 0.837306 0.324241 0.249636
H83   H     H_    0.875417 0.790412 0.458224 0.267502
H84   H     H_    0.850797 0.880208 0.426416 0.240925
N38   N     N_2   0.094156 0.174738 0.685212 -0.111761
H85   H     H_    0.092490 0.148934 0.746117 0.174777
C110  C     C_3   0.056146 0.129449 0.661230 -0.930411
H86   H     H_    0.001144 0.119516 0.740033 0.257675
H87   H     H_    0.082211 0.070437 0.624008 0.251042
H88   H     H_    0.053920 0.162616 0.602744 0.259584
N39   N     N_2   0.141052 0.767586 0.666772 -0.113437
H89   H     H_    0.135135 0.792147 0.732456 0.175955
C111  C     C_3   0.111584 0.817914 0.631393 -0.933286
H90   H     H_    0.054996 0.830400 0.703685 0.252541
H91   H     H_    0.115047 0.787870 0.565135 0.268938
H92   H     H_    0.140047 0.875708 0.599570 0.244671
N40   N     N_2   0.912923 0.156758 0.328469 -0.110988
H93   H     H_    0.917330 0.122486 0.269761 0.173120
C112  C     C_3   0.947204 0.120595 0.365526 -0.920388
H94   H     H_    0.002817 0.105324 0.291765 0.248075
H95   H     H_    0.919421 0.064998 0.412639 0.249526
H96   H     H_    0.947759 0.162809 0.419376 0.262857
C113  C     C_3   0.258713 0.168089 0.300108 -1.037139
H97   H     H_    0.302366 0.123343 0.256591 0.258502
H98   H     H_    0.210757 0.140145 0.322268 0.265083
H99   H     H_    0.274859 0.219026 0.243267 0.237808
C114  C     C_3   0.671259 0.733949 0.722820 -1.044621
H100  H     H_    0.625052 0.775213 0.767269 0.261721
H101  H     H_    0.653939 0.676356 0.768102 0.241459
H102  H     H_    0.712447 0.760822 0.721127 0.258045
C115  C     C_3   0.734840 0.176950 0.710870 -1.045047
H103  H     H_    0.688856 0.136164 0.755974 0.259814
H104  H     H_    0.779007 0.146438 0.698612 0.270262
H105  H     H_    0.719216 0.231804 0.762004 0.239316
C116  C     C_3   0.319143 0.744114 0.283612 -1.043734
H106  H     H_    0.362409 0.788551 0.241060 0.261466
H107  H     H_    0.339061 0.689040 0.231503 0.240300
H108  H     H_    0.274007 0.769284 0.293715 0.262495
C117  C     C_3   0.774035 0.687221 0.278798 -1.048993
H109  H     H_    0.817375 0.642072 0.235309 0.260661
H110  H     H_    0.730423 0.665025 0.283172 0.264793
H111  H     H_    0.795023 0.743479 0.230501 0.237058
C118  C     C_3   0.198033 0.275231 0.700177 -1.032381
H112  H     H_    0.154662 0.320254 0.741680 0.259383
H113  H     H_    0.180808 0.224984 0.758449 0.241616
H114  H     H_    0.245598 0.303354 0.679052 0.265394
C119  C     C_3   0.235373 0.676676 0.710921 -1.045602
H115  H     H_    0.189707 0.635429 0.755935 0.259693
H116  H     H_    0.279773 0.646809 0.698652 0.270297
H117  H     H_    0.219321 0.731576 0.762146 0.239231
C120  C     C_3   0.818775 0.245086 0.283607 -1.045781
H118  H     H_    0.862055 0.289503 0.241099 0.261322
H119  H     H_    0.838660 0.190060 0.231413 0.240456
H120  H     H_    0.773627 0.270332 0.293802 0.262466
C121  C     C_3   0.368245 0.690388 0.758656 -0.984912
H121  H     H_    0.362784 0.626520 0.746119 0.243198
H122  H     H_    0.351265 0.727250 0.721513 0.253974
H123  H     H_    0.424807 0.702076 0.714029 0.262432
C122  C     C_3   0.806557 0.082283 0.983070 -1.026456
H124  H     H_    0.850366 0.053135 0.902233 0.255493
H125  H     H_    0.829218 0.107364 0.018897 0.240878
H126  H     H_    0.767880 0.035309 0.038957 0.263138
C123  C     C_3   0.735081 0.941878 0.926036 -0.959333
H127  H     H_    0.712100 0.941746 0.885021 0.249088
H128  H     H_    0.698639 0.975176 0.006216 0.260310
H129  H     H_    0.785999 0.974053 0.871239 0.251958
C124  C     C_3   0.345230 0.331106 0.729701 -0.964430
H130  H     H_    0.317940 0.381190 0.725238 0.247954
H131  H     H_    0.401385 0.348024 0.681065 0.252260
H132  H     H_    0.342927 0.279297 0.688472 0.246930
C125  C     C_3   0.867520 0.188714 0.757733 -0.983849
H133  H     H_    0.861041 0.125113 0.745713 0.243468
H134  H     H_    0.850699 0.226330 0.720939 0.254266
H135  H     H_    0.924338 0.199209 0.712339 0.258532
C126  C     C_3   0.307589 0.584376 0.983823 -1.019762
H136  H     H_    0.351139 0.554845 0.903144 0.255730
H137  H     H_    0.330653 0.610507 0.018502 0.241014
H138  H     H_    0.269455 0.537440 0.040754 0.259870
C127  C     C_3   0.235799 0.442929 0.929658 -0.967429
H139  H     H_    0.209016 0.445322 0.894750 0.245210
H140  H     H_    0.202497 0.476054 0.010186 0.262421
H141  H     H_    0.287404 0.473452 0.870793 0.257038
C128  C     C_3   0.840010 0.827464 0.730096 -0.953008
H142  H     H_    0.851971 0.891745 0.709266 0.247846
H143  H     H_    0.889864 0.794105 0.665735 0.253543
H144  H     H_    0.799766 0.809706 0.724259 0.237181

loop_
_geom_bond_atom_site_label_1
_geom_bond_atom_site_label_2
_ccdc_geom_bond_type
C37   C69   A    
C103  H60   S    
C107  H74   S    
C38   C70   A    
C107  H76   S    
C48   H24   S    
C124  H130  S    
C119  H117  S    
C111  H92   S    
C10   C94   S    
C117  H111  S    
C102  H57   S    
C14   C90   S    
C36   N12   A    
C56   C104  S    
C80   N40   S    
C51   C57   A    
N11   N19   A    
C37   H13   S    
C13   C117  S    
C39   H15   S    
N39   H89   S    
C49   C97   S    
C98   H45   S    
C5    H5    S    
C45   C69   A    
C34   H10   S    
C12   C116  S    
C20   C28   D    
C21   C29   D    
C81   H25   S    
N13   Ni7   S    
C23   C31   D    
C128  H144  S    
N34   H69   S    
C24   C32   D    
C108  H78   S    
N19   Ni1   S    
N36   H77   S    
N10   N18   A    
N24   Ni4   S    
C8    H8    S    
C47   C71   A    
C52   C58   A    
C116  H107  S    
C56   C62   A    
C112  H95   S    
C124  H132  S    
N15   Ni8   S    
C25   C122  S    
C41   H17   S    
C127  H141  S    
C36   C68   A    
C11   C84   S    
C83   C91   S    
N29   Ni8   S    
C17   C25   D    
C79   C96   S    
C120  H119  S    
N25   Ni6   S    
C34   N10   A    
C6    C62   A    
N10   Ni6   S    
N20   Ni2   S    
C52   C100  S    
C6    H6    S    
C46   C70   A    
C35   H11   S    
N6    N32   A    
C44   H20   S    
C101  H53   S    
C39   C71   A    
C110  H87   S    
C16   C120  S    
C82   H26   S    
N4    Ni1   S    
C86   H30   S    
C34   C66   A    
C7    N7    A    
C127  H139  S    
N11   Ni6   S    
C40   H16   S    
C47   N23   A    
C48   N24   A    
N8    Ni3   S    
N35   H73   S    
C23   H40   S    
C73   N33   S    
C42   N18   A    
N7    Ni4   S    
C108  H80   S    
C112  H94   S    
C99   H48   S    
N4    N26   A    
C46   N22   A    
C39   N15   A    
C77   C94   S    
N5    Ni3   S    
C40   N16   A    
C110  H86   S    
C100  H51   S    
C85   C93   S    
C42   H18   S    
C15   C79   S    
C97   H42   S    
C87   C95   S    
N17   Ni2   S    
C16   C87   S    
N37   H81   S    
C49   N25   A    
C125  H135  S    
C7    H7    S    
C118  H112  S    
C123  H128  S    
C48   C72   A    
C121  H121  S    
C41   N17   A    
C126  H137  S    
C22   H37   S    
C44   N20   A    
C45   N21   A    
N1    N27   A    
C106  H70   S    
C15   C91   S    
C67   C90   S    
N15   N23   A    
C122  H124  S    
C1    C57   A    
C35   C67   A    
C101  H55   S    
C73   C85   S    
C4    C60   A    
N33   H65   S    
C5    C61   A    
N38   C110  S    
C80   C95   S    
C51   N27   A    
C115  H104  S    
C7    C63   A    
C8    C64   A    
C75   C87   S    
N36   C108  S    
C97   H41   S    
C109  H84   S    
C38   H14   S    
C20   C58   S    
N27   Ni5   S    
C1    N1    A    
N31   Ni7   S    
C45   H21   S    
C19   H36   S    
N32   Ni8   S    
N33   C105  S    
C24   C62   S    
C40   C72   A    
C17   H34   S    
C112  H96   S    
C107  H75   S    
C119  H116  S    
C49   C59   A    
C110  H88   S    
C50   C60   A    
C4    H4    S    
C11   C75   S    
C53   C63   A    
C54   C64   A    
C55   C61   A    
C117  H110  S    
C102  H56   S    
C15   C119  S    
C76   C91   S    
C3    H3    S    
C105  H68   S    
C3    N3    A    
C43   C67   A    
C118  H114  S    
C84   C92   S    
C15   C88   S    
C88   C96   S    
C78   N38   S    
C9    C113  S    
C74   N34   S    
C53   C101  S    
N38   H85   S    
C18   C26   D    
C55   N31   A    
C80   C84   S    
N40   H93   S    
N26   Ni5   S    
C98   H44   S    
C19   C57   S    
C106  H72   S    
N30   Ni7   S    
C54   C102  S    
N23   Ni3   S    
C79   N39   S    
C122  H126  S    
C126  H138  S    
C50   N26   A    
C121  H123  S    
C46   H22   S    
C103  H59   S    
C128  H143  S    
N7    N29   A    
N16   Ni7   S    
C109  H82   S    
N28   Ni6   S    
C6    N6    A    
C22   C30   D    
C9    C82   S    
C81   C89   S    
C111  H91   S    
C116  H106  S    
C76   N36   S    
C29   C126  S    
C54   N30   A    
C43   N19   A    
C124  H131  S    
N5    N31   A    
N3    N25   A    
C33   H9    S    
C104  H62   S    
C12   C83   S    
N8    N30   A    
C2    N2    A    
C102  H58   S    
C120  H118  S    
C114  H102  S    
C105  H66   S    
C77   C81   S    
C68   C89   S    
C52   N28   A    
C72   C93   S    
C14   C118  S    
C53   N29   A    
C16   C92   S    
N39   C111  S    
C106  H71   S    
C20   H35   S    
C21   H38   S    
C98   H46   S    
C25   C30   S    
N14   N22   A    
C27   C32   S    
C28   C31   S    
C37   N13   A    
C73   C90   S    
C2    C58   A    
C10   C81   S    
N12   Ni5   S    
C82   C90   S    
C10   C114  S    
C113  H99   S    
C108  H79   S    
C79   C83   S    
C99   H47   S    
C114  H100  S    
C32   C127  S    
C100  H50   S    
C21   C63   S    
C127  H140  S    
C22   C64   S    
C23   C61   S    
C36   H12   S    
N18   Ni1   S    
N35   C107  S    
C125  H133  S    
C116  H108  S    
C12   C96   S    
C18   H33   S    
N12   N20   A    
C16   C80   S    
N13   N21   A    
C55   C103  S    
C65   C92   S    
N14   Ni8   S    
N16   N24   A    
N2    Ni2   S    
C123  H127  S    
C26   C121  S    
C85   H29   S    
C69   C96   S    
C87   H31   S    
C33   C65   A    
C71   C94   S    
C126  H136  S    
C74   C89   S    
C30   C125  S    
C113  H97   S    
C120  H120  S    
N34   C106  S    
N21   Ni4   S    
N22   Ni3   S    
N40   C112  S    
C78   C93   S    
N3    Ni2   S    
C78   C82   S    
C86   C94   S    
C43   H19   S    
C101  H54   S    
C13   C86   S    
C19   C27   D    
C115  H103  S    
C76   C88   S    
N1    Ni1   S    
C122  H125  S    
N9    N17   A    
C47   H23   S    
C109  H83   S    
C9    C73   S    
C13   C77   S    
C1    H1    S    
C114  H101  S    
C99   H49   S    
C41   C65   A    
C123  H129  S    
C125  H134  S    
C119  H115  S    
C113  H98   S    
C100  H52   S    
C51   C99   S    
C4    N4    A    
C5    N5    A    
C97   H43   S    
C56   N32   A    
C77   N37   S    
C117  H109  S    
C11   C115  S    
C8    N8    A    
C35   N11   A    
C74   C86   S    
N37   C109  S    
C75   N35   S    
C33   N9    A    
C75   C92   S    
C17   C59   S    
C24   H39   S    
C18   C60   S    
C105  H67   S    
N9    Ni5   S    
C118  H113  S    
C103  H61   S    
C44   C68   A    
C50   C98   S    
C9    C93   S    
C28   C123  S    
N6    Ni4   S    
C104  H64   S    
C11   C95   S    
C13   C89   S    
C14   C85   S    
C111  H90   S    
C66   C91   S    
C31   C128  S    
C84   H28   S    
C27   C124  S    
C12   C76   S    
C70   C95   S    
C88   H32   S    
C10   C74   S    
C121  H122  S    
C14   C78   S    
C128  H142  S    
C115  H105  S    
C2    H2    S    
C26   C29   S    
C42   C66   A    
N2    N28   A    
C104  H63   S    
C38   N14   A    
C83   H27   S    
C3    C59   A    
