data_mof_unit_25355.cif
_audit_creation_date              2012-12-11T16:18:00-0500
_audit_creation_method            fapswitch 2.2
_symmetry_space_group_name_H-M    P1
_symmetry_Int_Tables_number       1
_space_group_crystal_system       triclinic
_cell_length_a                    14.029189
_cell_length_b                    14.061604
_cell_length_c                    30.143744
_cell_angle_alpha                 97.464806
_cell_angle_beta                  97.11577
_cell_angle_gamma                 61.2276
_cell_volume                      5155.31108741

loop_
_atom_site_label
_atom_site_type_symbol
_atom_type_description
_atom_site_fract_x
_atom_site_fract_y
_atom_site_fract_z
_atom_type_partial_charge
C1    C     C_R   0.386064 0.710034 0.442084 0.539875
C2    C     C_R   0.412812 0.270215 0.221375 0.103406
C3    C     C_R   0.421522 0.275872 0.268260 -0.114795
C4    C     C_R   0.332379 0.348033 0.292682 0.010434
C5    C     C_R   0.313095 0.338567 0.198858 0.052770
C6    C     C_1   0.301963 0.324565 0.150676 -0.029285
C7    C     C_1   0.348015 0.355064 0.340734 -0.063270
C8    C     C_1   0.291139 0.305025 0.110969 -0.012850
C9    C     C_R   0.765340 0.365474 0.399813 0.029919
C10   C     C_R   0.750731 0.284560 0.372018 -0.145562
C11   C     C_R   0.777625 0.261440 0.327514 -0.004494
C12   C     C_R   0.399058 0.381033 0.426408 0.541057
C13   C     C_R   0.822660 0.318440 0.310550 0.049240
C14   C     C_R   0.849190 0.391757 0.339212 0.008386
C15   C     C_R   0.819498 0.415692 0.384126 0.103695
C16   C     C_R   0.830095 0.402248 0.159666 0.005174
C17   C     C_R   0.856026 0.395315 0.115265 0.094153
C18   C     C_R   0.858368 0.219223 0.100285 -0.023204
C19   C     C_R   0.840827 0.221686 0.145781 0.018666
C20   C     C_R   0.832958 0.310951 0.175701 0.039824
C21   C     C_1   0.831144 0.308660 0.223124 -0.025648
C22   C     C_1   0.829544 0.310544 0.262931 -0.027819
C23   C     C_R   0.709986 0.405200 0.442224 0.565607
C24   C     C_R   0.881991 0.298544 0.086969 0.038802
C25   C     C_R   0.366085 0.765802 0.401245 0.020203
C26   C     C_R   0.451471 0.773881 0.384952 -0.129086
C27   C     C_R   0.442703 0.800626 0.341201 -0.110890
C28   C     C_R   0.348395 0.820411 0.313688 0.035806
C29   C     C_R   0.259786 0.821144 0.330669 -0.116320
C30   C     C_R   0.268322 0.794303 0.374386 -0.124242
C31   C     C_R   0.258051 0.831111 0.152854 -0.153719
C32   C     C_R   0.238757 0.856262 0.108244 0.060139
C33   C     C_R   0.391632 0.896709 0.118023 0.065702
C34   C     C_R   0.389472 0.712037 0.568183 0.542925
C35   C     C_R   0.409493 0.871211 0.163099 0.110097
C36   C     C_R   0.338998 0.843633 0.180492 0.039017
C37   C     C_1   0.344253 0.834841 0.227526 0.021985
C38   C     C_1   0.346321 0.829478 0.266985 -0.016006
C39   C     C_R   0.300670 0.896810 0.091124 0.072107
C40   C     C_R   0.362380 0.365401 0.592453 0.032562
C41   C     C_R   0.401285 0.258704 0.605601 -0.022624
C42   C     C_R   0.394503 0.244591 0.650568 -0.008730
C43   C     C_R   0.340456 0.337454 0.680273 0.052637
C44   C     C_R   0.287834 0.441948 0.665412 0.092122
C45   C     C_R   0.401373 0.383498 0.552340 0.554577
C46   C     C_R   0.298674 0.456722 0.621601 0.071393
C47   C     C_R   0.240327 0.408595 0.835056 0.107176
C48   C     C_R   0.225212 0.397906 0.879207 0.021079
C49   C     C_R   0.397249 0.228667 0.879512 -0.127047
C50   C     C_R   0.412322 0.238864 0.836016 -0.015899
C51   C     C_R   0.330907 0.326104 0.813120 0.041705
C52   C     C_1   0.336653 0.327734 0.766272 -0.022283
C53   C     C_1   0.339486 0.329408 0.726959 0.011356
C54   C     C_R   0.300948 0.302221 0.900259 -0.012473
C55   C     C_1   0.761604 0.376401 0.612445 -0.013972
C56   C     C_R   0.712805 0.407984 0.568557 0.547158
C57   C     C_R   0.909513 0.327178 0.719481 -0.110024
C58   C     C_R   0.932457 0.312463 0.765375 -0.008889
C59   C     C_R   0.764178 0.300896 0.766808 0.118024
C60   C     C_R   0.742888 0.313576 0.720240 0.051873
C61   C     C_R   0.815467 0.329030 0.697056 0.009330
C62   C     C_R   0.858442 0.301384 0.789368 0.046680
C63   C     C_1   0.880401 0.290339 0.837130 -0.061814
C64   C     C_1   0.790847 0.352870 0.650597 -0.059297
C65   C     C_1   0.906995 0.281075 0.876561 -0.021561
C66   C     C_1   0.375211 0.760302 0.613302 -0.018870
C67   C     C_1   0.367162 0.364151 0.380543 -0.017562
C68   C     C_R   0.414184 0.727068 0.729275 -0.015638
C69   C     C_R   0.399781 0.748847 0.775423 -0.096369
C70   C     C_R   0.276021 0.938616 0.764583 -0.092254
C71   C     C_R   0.289115 0.918853 0.718292 0.109257
C72   C     C_R   0.357871 0.812500 0.700519 0.075051
C73   C     C_R   0.330464 0.853888 0.792893 0.001608
C74   C     C_1   0.313189 0.876321 0.839934 -0.057214
C75   C     C_1   0.366295 0.788956 0.652659 -0.031742
C76   C     C_1   0.293277 0.903761 0.878646 -0.009543
C77   C     C_R   0.947492 0.274684 0.047536 0.558512
C78   C     C_R   0.232611 0.417844 0.270520 0.125386
C79   C     C_R   0.275347 0.270471 0.065363 0.542685
C80   C     C_R   0.261197 0.953712 0.049028 0.583650
C81   C     C_R   0.952446 0.268827 0.922018 0.542735
C82   C     C_R   0.277234 0.266654 0.939833 0.536861
C83   C     C_R   0.261656 0.950696 0.922875 0.545042
C84   C     C_R   0.222192 0.412507 0.223178 0.036889
Cr1   Cr    Cr6+3 0.581000 0.584320 0.508140 1.032121
Cr2   Cr    Cr6+3 0.339110 0.576430 0.496080 1.038749
Cr3   Cr    Cr6+3 0.579910 0.339270 0.495810 1.013332
Cr4   Cr    Cr6+3 0.082090 0.079210 0.982490 1.024506
Cr5   Cr    Cr6+3 0.082460 0.324610 0.994920 1.021264
Cr6   Cr    Cr6+3 0.323630 0.087860 0.996130 1.038551
H1    H     H_    0.206380 0.805937 0.166433 0.111517
H2    H     H_    0.186348 0.836871 0.309421 0.108603
H3    H     H_    0.201120 0.789115 0.386054 0.131210
H4    H     H_    0.527720 0.752555 0.404855 0.131164
H5    H     H_    0.511440 0.800328 0.328144 0.117912
H6    H     H_    0.458306 0.157836 0.895970 0.145403
H7    H     H_    0.964621 0.338441 0.701111 0.120047
H8    H     H_    0.441701 0.683941 0.797723 0.119282
H9    H     H_    0.222611 0.019972 0.778566 0.107414
H10   H     H_    0.498258 0.224006 0.285871 0.109230
H11   H     H_    0.711067 0.244033 0.384023 0.141882
O1    O     O_R   0.688580 0.499770 0.460490 -0.471398
O2    O     O_R   0.348600 0.476260 0.536540 -0.456227
O3    O     O_R   0.494840 0.313840 0.539010 -0.524422
O4    O     O_R   0.672120 0.351750 0.545910 -0.493510
O5    O     O_3   0.500010 0.500010 0.500010 -0.249758
O6    O     O_R   0.167510 0.972920 0.030390 -0.481789
O7    O     O_R   0.990840 0.178580 0.027590 -0.513470
O8    O     O_R   0.972840 0.345510 0.038590 -0.466538
O9    O     O_R   0.181550 0.320660 0.045200 -0.497128
O10   O     O_R   0.346150 0.177650 0.050510 -0.498781
O11   O     O_R   0.314200 0.996600 0.036060 -0.466625
O12   O     O_R   0.480400 0.672610 0.462660 -0.504852
O13   O     O_R   0.168690 0.969990 0.933130 -0.504133
O14   O     O_R   0.991920 0.175870 0.937430 -0.495542
O15   O     O_R   0.974010 0.342590 0.941330 -0.515872
O16   O     O_R   0.182630 0.317940 0.955040 -0.505329
O17   O     O_R   0.347320 0.174720 0.953250 -0.519256
O18   O     O_R   0.315290 0.993890 0.945900 -0.495547
O19   O     O_3   0.162730 0.163890 0.991180 -0.251811
O20   O     O_R   0.315310 0.685650 0.451800 -0.517180
O21   O     O_R   0.346220 0.474990 0.446280 -0.496452
O22   O     O_R   0.492270 0.312460 0.441630 -0.516072
O23   O     O_R   0.669740 0.350480 0.455640 -0.516099
O24   O     O_R   0.691150 0.501150 0.557860 -0.505040
O25   O     O_R   0.482790 0.673890 0.552920 -0.498476
O26   O     O_R   0.317880 0.687030 0.549170 -0.489413
N1    N     N_3   0.142166 0.494280 0.295784 -0.652852
H12   H     H_    0.124643 0.451176 0.316360 0.228084
H13   H     H_    0.165480 0.546569 0.316301 0.236793
C85   C     C_3   0.833158 0.127745 0.161894 -0.390898
H14   H     H_    0.832267 0.131557 0.198757 0.131243
H15   H     H_    0.756883 0.127189 0.147195 0.141451
H16   H     H_    0.904397 0.049480 0.151725 0.121486
C86   C     C_3   0.851861 0.132396 0.066478 -0.372271
H17   H     H_    0.829150 0.160307 0.032121 0.141208
H18   H     H_    0.930942 0.056529 0.067175 0.158063
H19   H     H_    0.786505 0.114638 0.073423 0.120190
C87   C     C_3   0.752407 0.180044 0.297878 -0.404842
H20   H     H_    0.692470 0.221006 0.269933 0.143191
H21   H     H_    0.828348 0.114010 0.283877 0.130451
H22   H     H_    0.717439 0.142436 0.316581 0.118598
N2    N     N_3   0.153785 0.843410 0.081015 -0.602927
H23   H     H_    0.172284 0.761680 0.079701 0.226416
H24   H     H_    0.081106 0.889764 0.096879 0.218338
N3    N     N_3   0.496421 0.876824 0.191948 -0.636862
H25   H     H_    0.570494 0.823271 0.178161 0.221323
H26   H     H_    0.485879 0.955996 0.193794 0.223065
N4    N     N_3   0.463503 0.925593 0.100066 -0.600170
H27   H     H_    0.461634 0.994305 0.118854 0.232138
H28   H     H_    0.542783 0.861008 0.102555 0.217648
C88   C     C_3   0.115100 0.483785 0.198314 -0.383671
H29   H     H_    0.085125 0.431806 0.176915 0.124752
H30   H     H_    0.050580 0.539164 0.220971 0.165019
H31   H     H_    0.127217 0.534749 0.176700 0.121972
C89   C     C_3   0.127798 0.486506 0.902617 -0.348053
H32   H     H_    0.090275 0.564274 0.886499 0.162995
H33   H     H_    0.064353 0.460681 0.902233 0.159369
H34   H     H_    0.153245 0.504471 0.937694 0.127817
N5    N     N_3   0.161114 0.501333 0.812062 -0.644986
H35   H     H_    0.200942 0.540522 0.801861 0.254214
H36   H     H_    0.127714 0.474327 0.783477 0.239220
N6    N     N_3   0.226966 0.533603 0.696047 -0.644571
H37   H     H_    0.146597 0.575482 0.682609 0.232747
H38   H     H_    0.261678 0.585622 0.700283 0.232909
N7    N     N_3   0.248801 0.565069 0.607384 -0.581692
H39   H     H_    0.279708 0.610675 0.628296 0.229458
H40   H     H_    0.164617 0.601254 0.609766 0.227074
C90   C     C_3   0.449165 0.159973 0.572179 -0.375057
H41   H     H_    0.538989 0.114538 0.578865 0.143564
H42   H     H_    0.413593 0.105564 0.574543 0.123864
H43   H     H_    0.429439 0.181789 0.536948 0.147359
C91   C     C_3   0.512368 0.152842 0.813602 -0.401313
H44   H     H_    0.488100 0.109155 0.784905 0.131148
H45   H     H_    0.555617 0.191532 0.801186 0.158459
H46   H     H_    0.570142 0.092001 0.836995 0.125947
C92   C     C_3   0.446907 0.130903 0.666386 -0.400348
H47   H     H_    0.440783 0.130025 0.702576 0.126475
H48   H     H_    0.406807 0.084556 0.648033 0.127050
H49   H     H_    0.534908 0.087793 0.660273 0.135316
N8    N     N_3   0.504658 0.194930 0.196344 -0.626394
H50   H     H_    0.486305 0.135204 0.179581 0.218752
H51   H     H_    0.573567 0.154679 0.217978 0.214065
C93   C     C_3   0.035628 0.309558 0.788358 -0.395500
H52   H     H_    0.085480 0.316975 0.764455 0.121904
H53   H     H_    0.015003 0.377703 0.814897 0.153588
H54   H     H_    0.086062 0.231216 0.803830 0.133521
N9    N     N_3   0.689777 0.287824 0.790935 -0.661579
H55   H     H_    0.660758 0.351079 0.816295 0.234311
H56   H     H_    0.732398 0.214076 0.805866 0.232607
C94   C     C_3   0.644123 0.310073 0.694980 -0.366623
H57   H     H_    0.592069 0.300051 0.716833 0.172896
H58   H     H_    0.592793 0.386445 0.678331 0.121965
H59   H     H_    0.671255 0.240726 0.668865 0.134545
C95   C     C_3   0.488436 0.612612 0.711156 -0.406506
H60   H     H_    0.526004 0.556003 0.738202 0.141243
H61   H     H_    0.441436 0.582298 0.686603 0.125596
H62   H     H_    0.555020 0.611426 0.694256 0.144984
N10   N     N_3   0.231272 0.005538 0.689119 -0.622429
H63   H     H_    0.288996 0.020005 0.676658 0.221512
H64   H     H_    0.179985 0.077601 0.707225 0.225761
N11   N     N_3   0.857642 0.485986 0.098833 -0.598497
H65   H     H_    0.779948 0.553211 0.100013 0.224261
H66   H     H_    0.913388 0.504693 0.119113 0.227201
C96   C     C_3   0.804218 0.506035 0.189699 -0.400048
H67   H     H_    0.777908 0.506008 0.222849 0.143367
H68   H     H_    0.877060 0.518724 0.195544 0.119037
H69   H     H_    0.736060 0.576771 0.173693 0.129865
C97   C     C_3   0.905037 0.447962 0.322355 -0.402354
H70   H     H_    0.931224 0.417892 0.287824 0.145014
H71   H     H_    0.849154 0.536835 0.322731 0.128064
H72   H     H_    0.979677 0.433322 0.344198 0.124756
N12   N     N_3   0.842057 0.492164 0.413750 -0.604699
H73   H     H_    0.804323 0.567118 0.399744 0.229129
H74   H     H_    0.926247 0.463795 0.417253 0.225983

loop_
_geom_bond_atom_site_label_1
_geom_bond_atom_site_label_2
_ccdc_geom_bond_type
C58   C62   A    
C86   H19   S    
C1    C25   S    
C55   C56   S    
C63   C65   T    
C26   H4    S    
C11   C13   A    
C90   H41   S    
C34   O26   A    
C27   H5    S    
C35   C36   A    
C89   H34   S    
Cr6   O11   S    
C15   N12   S    
C85   H16   S    
C78   N1    S    
N1    H12   S    
C34   C66   S    
C86   H17   S    
N12   H73   S    
C70   H9    S    
C40   C46   A    
C12   O22   A    
C80   O6    A    
C26   C27   A    
C29   C30   A    
N11   H66   S    
C50   C91   S    
C18   C24   A    
Cr6   O17   S    
C58   C93   S    
C36   C37   S    
N6    H38   S    
C30   H3    S    
N4    H28   S    
Cr3   O23   S    
Cr4   O7    S    
C87   H22   S    
C91   H46   S    
C23   O1    A    
C42   C92   S    
C16   C20   A    
C49   C54   A    
Cr5   O8    S    
C97   H72   S    
C93   H52   S    
N9    H56   S    
C18   C19   A    
C41   C42   A    
C32   C39   A    
C83   O18   A    
C11   C87   S    
C32   N2    S    
C45   O2    A    
C97   H71   S    
Cr1   O24   S    
C3    H10   S    
C43   C53   S    
N2    H24   S    
C62   C63   S    
N6    H37   S    
C16   C17   A    
C92   H48   S    
Cr2   O21   S    
C8    C79   S    
Cr5   O19   S    
C69   C73   A    
C70   C71   A    
C44   N6    S    
Cr4   O19   S    
C9    C10   A    
C31   C36   A    
C79   O9    A    
C34   O25   A    
C95   H62   S    
C69   H8    S    
N12   H74   S    
C48   C89   S    
Cr5   O15   S    
N10   H63   S    
C21   C22   T    
N7    H40   S    
C90   H42   S    
C83   O13   A    
C80   O11   A    
Cr1   O25   S    
Cr2   O5    S    
C1    O12   A    
Cr6   O10   S    
C70   C73   A    
C4    C7    S    
Cr2   O2    S    
C76   C83   S    
C44   C46   A    
C97   H70   S    
N3    H26   S    
C47   N5    S    
C96   H68   S    
C73   C74   S    
C19   C85   S    
C40   C45   S    
C12   C67   S    
C17   C24   A    
N11   H65   S    
C51   C52   S    
C47   C48   A    
C18   C86   S    
C16   C96   S    
N8    H51   S    
C5    C84   A    
C68   C69   A    
C47   C51   A    
C95   H60   S    
C25   C26   A    
C91   H44   S    
C41   C90   S    
Cr5   O9    S    
C94   H57   S    
N9    H55   S    
C35   N3    S    
Cr6   O19   S    
N8    H50   S    
C61   C64   S    
C48   C54   A    
C43   C44   A    
C94   H58   S    
C4    C78   A    
C37   C38   T    
C45   O3    A    
C65   C81   S    
C31   C32   A    
Cr3   O4    S    
C88   H31   S    
C28   C38   S    
C68   C72   A    
C92   H49   S    
C57   H7    S    
C55   C64   T    
C81   O14   A    
Cr2   O20   S    
C89   H32   S    
C50   C51   A    
C59   N9    S    
C33   C39   A    
C56   O24   A    
C88   H29   S    
C77   O8    A    
C91   H45   S    
C74   C76   T    
C77   O7    A    
C84   C88   S    
C40   C41   A    
Cr5   O16   S    
C49   C50   A    
C31   H1    S    
N7    H39   S    
C90   H43   S    
C2    C5    A    
C42   C43   A    
C82   O17   A    
C71   N10   S    
C3    C4    A    
C54   C82   S    
C52   C53   T    
N3    H25   S    
C96   H69   S    
C25   C30   A    
C86   H18   S    
C96   H67   S    
C28   C29   A    
C59   C62   A    
C46   N7    S    
C14   C97   S    
Cr2   O26   S    
Cr4   O6    S    
C10   H11   S    
C9    C23   S    
Cr1   O5    S    
C88   H30   S    
C85   H15   S    
C85   H14   S    
N1    H13   S    
C6    C8    T    
C87   H20   S    
C57   C61   A    
C23   O23   A    
C93   H54   S    
C79   O10   A    
Cr6   O18   S    
C19   C20   A    
C89   H33   S    
C2    C3    A    
C9    C15   A    
C94   H59   S    
C71   C72   A    
C33   N4    S    
N4    H27   S    
C39   C80   S    
Cr3   O22   S    
C87   H21   S    
C72   C75   S    
C57   C58   A    
C5    C6    S    
Cr3   O5    S    
Cr4   O14   S    
C60   C94   S    
C66   C75   T    
C81   O15   A    
Cr1   O12   S    
C33   C35   A    
C93   H53   S    
C13   C22   S    
C68   C95   S    
C49   H6    S    
Cr4   O13   S    
C17   N11   S    
N5    H35   S    
C1    O20   A    
C56   O4    A    
C10   C11   A    
C7    C67   T    
Cr3   O3    S    
C78   C84   A    
C24   C77   S    
C59   C60   A    
C12   O21   A    
C20   C21   S    
C92   H47   S    
C27   C28   A    
N10   H64   S    
C14   C15   A    
C60   C61   A    
C82   O16   A    
C13   C14   A    
C2    N8    S    
C29   H2    S    
Cr1   O1    S    
N2    H23   S    
N5    H36   S    
C95   H61   S    
