data_mof_unit_30578.cif
_audit_creation_date              2013-03-05T15:48:29-0500
_audit_creation_method            fapswitch 2.2
_symmetry_space_group_name_H-M    P1
_symmetry_Int_Tables_number       1
_space_group_crystal_system       triclinic
_cell_length_a                    20.206209
_cell_length_b                    7.382971
_cell_length_c                    13.916791
_cell_angle_alpha                 90.000014
_cell_angle_beta                  104.288111
_cell_angle_gamma                 90.0
_cell_volume                      2011.91160919

loop_
_atom_site_label
_atom_site_type_symbol
_atom_site_description
_atom_site_fract_x
_atom_site_fract_y
_atom_site_fract_z
_atom_type_partial_charge
O1    O     O_R   0.449830 0.506740 0.599960 -0.596412
O2    O     O_R   0.550170 0.006740 0.400040 -0.596412
O3    O     O_R   0.588980 0.179860 0.596720 -0.586394
O4    O     O_R   0.411020 0.679860 0.403280 -0.586395
C1    C     C_R   0.616144 0.343897 0.616292 0.988514
C2    C     C_R   0.383856 0.843897 0.383708 0.988514
O5    O     O_R   0.452740 0.177340 0.612040 -0.574795
O6    O     O_R   0.547260 0.677340 0.387960 -0.574795
O7    O     O_R   0.412960 0.002070 0.415460 -0.603729
O8    O     O_R   0.587040 0.502070 0.584540 -0.603729
C3    C     C_R   0.435457 0.345367 0.633511 0.929108
C4    C     C_R   0.564543 0.845367 0.366489 0.929108
O9    O     O_3   0.487110 0.337570 0.435490 -0.282830
O10   O     O_3   0.512890 0.837570 0.564510 -0.282830
V1    V     V_3+5 0.502390 0.064650 0.511970 1.232739
V2    V     V_3+5 0.497610 0.564650 0.488030 1.232740
C5    C     C_R   0.598504 0.889699 0.119305 -0.071596
C6    C     C_R   0.401496 0.389695 0.880695 -0.071596
H1    H     H_    0.509949 0.901781 0.175499 0.182995
H2    H     H_    0.490051 0.401776 0.824501 0.182996
H3    H     H_    0.665790 0.879820 0.991994 0.232393
H4    H     H_    0.334210 0.379815 0.008006 0.232393
H5    H     H_    0.568665 0.908702 0.043704 0.153210
H6    H     H_    0.431335 0.408696 0.956296 0.153210
C7    C     C_R   0.601430 0.855129 0.290405 -0.090692
C8    C     C_R   0.398570 0.355129 0.709595 -0.090692
C9    C     C_R   0.925714 0.831836 0.301087 -0.179589
C10   C     C_R   0.074286 0.331838 0.698913 -0.179590
C11   C     C_R   0.892957 0.818470 0.376524 -0.027123
C12   C     C_R   0.107043 0.318472 0.623476 -0.027123
C13   C     C_R   0.822680 0.826629 0.355906 -0.116691
C14   C     C_R   0.177320 0.326630 0.644093 -0.116691
C15   C     C_R   0.782160 0.843884 0.257645 0.050262
C16   C     C_R   0.217840 0.343885 0.742354 0.050262
C17   C     C_R   0.815387 0.854970 0.176099 -0.053909
C18   C     C_R   0.184613 0.354969 0.823901 -0.053908
C19   C     C_R   0.709165 0.851307 0.239560 0.104805
C20   C     C_R   0.290835 0.351307 0.760440 0.104805
C21   C     C_R   0.669790 0.871334 0.141877 0.049926
C22   C     C_R   0.330209 0.371331 0.858123 0.049926
C23   C     C_R   0.700255 0.871388 0.064962 -0.128471
C24   C     C_R   0.299745 0.371385 0.935038 -0.128471
C25   C     C_R   0.771035 0.863328 0.076235 0.429922
C26   C     C_R   0.228965 0.363327 0.923765 0.429922
C27   C     C_R   0.672793 0.839769 0.314506 -0.220883
C28   C     C_R   0.327207 0.339771 0.685494 -0.220882
C29   C     C_R   0.564707 0.884306 0.193624 -0.116657
C30   C     C_R   0.435293 0.384303 0.806376 -0.116658
C31   C     C_R   0.889565 0.855317 0.202454 -0.117730
C32   C     C_R   0.110435 0.355318 0.797546 -0.117731
H7    H     H_    0.697357 0.819370 0.391677 0.101943
H8    H     H_    0.302643 0.319375 0.608323 0.101943
H9    H     H_    0.980648 0.821102 0.320173 0.168086
H10   H     H_    0.019351 0.321105 0.679827 0.168087
H11   H     H_    0.801794 0.817863 0.419706 0.132472
H12   H     H_    0.198206 0.317863 0.580294 0.132472
H13   H     H_    0.922535 0.801818 0.452304 0.157327
H14   H     H_    0.077464 0.301821 0.547695 0.157327
C33   C     C_3   0.229805 0.696007 0.161461 0.130452
C34   C     C_3   0.770195 0.196008 0.838539 0.130453
H15   H     H_    0.199870 0.575701 0.173617 0.136477
H16   H     H_    0.800130 0.075701 0.826383 0.136477
C35   C     C_3   0.301345 0.682901 0.240262 0.199565
C36   C     C_3   0.698655 0.182902 0.759738 0.199564
H17   H     H_    0.296842 0.561979 0.286439 0.074521
H18   H     H_    0.703158 0.061980 0.713561 0.074522
H19   H     H_    0.158256 0.718395 0.305214 0.093232
H20   H     H_    0.841744 0.218394 0.694786 0.093232
H21   H     H_    0.262066 0.710985 0.413942 0.157507
H22   H     H_    0.737934 0.210985 0.586058 0.157507
C37   C     C_3   0.184772 0.847941 0.297306 0.194806
C38   C     C_3   0.815228 0.347940 0.702694 0.194806
C39   C     C_3   0.232926 0.028701 0.172028 0.314244
C40   C     C_3   0.767074 0.528702 0.827972 0.314243
C41   C     C_3   0.188790 0.861247 0.185489 -0.494139
C42   C     C_3   0.811210 0.361247 0.814511 -0.494140
H23   H     H_    0.203942 0.151808 0.181073 0.177094
H24   H     H_    0.796059 0.651808 0.818927 0.177094
C43   C     C_3   0.313096 0.849491 0.312678 -0.208189
C44   C     C_3   0.686903 0.349491 0.687322 -0.208189
C45   C     C_3   0.257033 0.839074 0.370486 -0.540787
C46   C     C_3   0.742967 0.339073 0.629514 -0.540786
C47   C     C_3   0.301359 0.031054 0.254322 -0.347745
C48   C     C_3   0.698641 0.531054 0.745678 -0.347744
H25   H     H_    0.346564 0.065403 0.226413 0.243813
H26   H     H_    0.653436 0.565403 0.773586 0.243814
H27   H     H_    0.298777 0.143607 0.306562 0.178075
H28   H     H_    0.701223 0.643607 0.693438 0.178074
H29   H     H_    0.264216 0.950475 0.426027 0.217426
H30   H     H_    0.735784 0.450475 0.573973 0.217425
O11   O     O_R   0.912980 0.203550 0.915410 -0.565912
O12   O     O_R   0.087020 0.703550 0.084590 -0.565912
O13   O     O_R   0.047270 0.535570 0.887960 -0.553392
O14   O     O_R   0.952730 0.035570 0.112040 -0.553392
C49   C     C_R   0.065687 0.368091 0.865972 1.021176
C50   C     C_R   0.934313 0.868091 0.134028 1.021177
O15   O     O_R   0.911030 0.532970 0.903270 -0.555108
O16   O     O_R   0.088970 0.032970 0.096730 -0.555108
O17   O     O_R   0.949820 0.708150 0.099970 -0.568466
O18   O     O_R   0.050180 0.208150 0.900030 -0.568466
C51   C     C_R   0.884320 0.365761 0.882439 1.025582
C52   C     C_R   0.115680 0.865762 0.117561 1.025583
O19   O     O_3   0.012900 0.375230 0.064480 -0.270935
O20   O     O_3   0.987100 0.875230 0.935520 -0.270935
V3    V     V_3+5 0.997610 0.648190 0.988040 1.352005
V4    V     V_3+5 0.002390 0.148190 0.011960 1.352006
N1    N     N_R   0.232700 0.697374 0.055186 0.283876
O21   O     O_R   0.176637 0.695843 0.984648 -0.361350
O22   O     O_R   0.289668 0.702112 0.027738 -0.311754
N2    N     N_R   0.767300 0.197375 0.944814 0.283876
O23   O     O_R   0.823363 0.195844 0.015352 -0.361350
O24   O     O_R   0.710331 0.202114 0.972262 -0.311755
N3    N     N_R   0.360846 0.647112 0.199776 0.282920
O25   O     O_R   0.387461 0.485563 0.207445 -0.360066
O26   O     O_R   0.394942 0.779774 0.173557 -0.393146
N4    N     N_R   0.639154 0.147113 0.800224 0.282920
O27   O     O_R   0.612539 0.985564 0.792556 -0.360066
O28   O     O_R   0.605058 0.279775 0.826443 -0.393147
N5    N     N_R   0.245454 0.032144 0.071663 0.273982
O29   O     O_R   0.194158 0.026490 0.993647 -0.363281
O30   O     O_R   0.306852 0.044972 0.058031 -0.334259
N6    N     N_R   0.754546 0.532145 0.928337 0.273983
O31   O     O_R   0.805842 0.526490 0.006353 -0.363281
O32   O     O_R   0.693148 0.544974 0.941969 -0.334257
N7    N     N_R   0.145115 0.996767 0.325707 0.245812
O33   O     O_R   0.167887 0.162380 0.332871 -0.437939
O34   O     O_R   0.092545 0.959493 0.360186 -0.447506
N8    N     N_R   0.854885 0.496766 0.674293 0.245811
O35   O     O_R   0.832114 0.662380 0.667129 -0.437939
O36   O     O_R   0.907454 0.459491 0.639811 -0.447506
N9    N     N_R   0.789792 0.862019 0.981348 0.236142
O37   O     O_R   0.741274 0.865642 0.899795 -0.469168
O38   O     O_R   0.851206 0.854966 0.969786 -0.401767
N10   N     N_R   0.210208 0.362019 0.018652 0.236142
O39   O     O_R   0.258726 0.365641 0.100205 -0.469169
O40   O     O_R   0.148794 0.354965 0.030214 -0.401767

loop_
_geom_bond_atom_site_label_1
_geom_bond_atom_site_label_2
_geom_bond_distance
_ccdc_geom_bond_type
C47   H27   1.113777 S    
C35   H17   1.116757 S    
C39   N5    1.479924 S    
C7    C27   1.402109 A    
C9    C11   1.375862 A    
C39   C41   1.562490 S    
O1    C3    1.337438 A    
C44   C48   1.554862 S    
O2    C4    1.337438 A    
N8    O35   1.301562 A    
C2    O7    1.332878 A    
O20   V4    2.264100 S    
O3    V1    2.038946 S    
C21   C23   1.360128 A    
C35   C43   1.570551 S    
O5    C3    1.342269 A    
C5    H5    1.084928 S    
C40   C42   1.562489 S    
C38   N8    1.470360 S    
C6    H6    1.084928 S    
C20   C22   1.403225 A    
C48   H26   1.106640 S    
H1    C29   1.080160 S    
C32   C49   1.469105 S    
C27   H7    1.076730 S    
C50   O17   1.338102 A    
C28   H8    1.076731 S    
N4    O27   1.301852 A    
C34   H16   1.110826 S    
C5    C21   1.403049 A    
C6    C22   1.403052 A    
N2    O23   1.303136 A    
O13   V3    2.080371 S    
C10   C32   1.397451 A    
C43   C47   1.554862 S    
C17   C31   1.452496 A    
C41   C52   1.545247 S    
N1    O21   1.303134 A    
C13   C15   1.415603 A    
C17   C25   1.457285 A    
C7    C29   1.384837 A    
H19   C37   1.114924 S    
C8    C30   1.384837 A    
C45   H29   1.113377 S    
C22   C24   1.360128 A    
O13   C49   1.348049 A    
C37   C41   1.581197 S    
C11   C13   1.378896 A    
C36   C44   1.570551 S    
O11   V4    2.009532 S    
C24   C26   1.401028 A    
O11   C51   1.359782 A    
O20   V3    1.820017 S    
N2    O24   1.299712 A    
N5    O30   1.303942 A    
C26   N10   1.461006 S    
O17   V3    2.073012 S    
C33   H15   1.110827 S    
C5    C29   1.373430 A    
H21   C45   1.113566 S    
C44   C46   1.544769 S    
C43   C45   1.544769 S    
C10   H10   1.078625 S    
C49   O18   1.338102 A    
N10   O40   1.291162 A    
O5    V1    2.080337 S    
C3    C8    1.439263 S    
O3    C1    1.329802 A    
O16   C52   1.349845 A    
C36   N4    1.472121 S    
C34   C42   1.556842 S    
C15   C19   1.434779 A    
C6    C30   1.373428 A    
H20   C38   1.114924 S    
C36   H18   1.116756 S    
O4    V2    2.038946 S    
O6    C4    1.342269 A    
O15   C51   1.349847 A    
C38   C42   1.581196 S    
O19   V3    2.264100 S    
O1    V2    2.069701 S    
C46   H30   1.113377 S    
C1    C44   1.524965 S    
O14   C50   1.348048 A    
O2    V1    2.069701 S    
H2    C30   1.080161 S    
H3    C23   1.082130 S    
O4    C2    1.329801 A    
C47   H25   1.106640 S    
C11   H13   1.083253 S    
N7    O33   1.301560 A    
C18   C26   1.457285 A    
C19   C27   1.419026 A    
N9    O37   1.304125 A    
C33   C41   1.556843 S    
C18   C32   1.452496 A    
N3    O25   1.301852 A    
C42   C51   1.545247 S    
O14   V4    2.080373 S    
C40   N6    1.479925 S    
C16   C20   1.434779 A    
C33   C35   1.587182 S    
C23   C25   1.401030 A    
C48   H28   1.113779 S    
C40   C48   1.562789 S    
N9    O38   1.291164 A    
N8    O36   1.298440 A    
N5    O29   1.303619 A    
C9    H9    1.078626 S    
N10   O39   1.304126 A    
O12   C52   1.359783 A    
O18   V4    2.073012 S    
O16   V4    2.038936 S    
C37   C45   1.561867 S    
C4    C7    1.439263 S    
C34   C36   1.587182 S    
C10   C12   1.375861 A    
O7    V1    2.021094 S    
O15   V3    2.038934 S    
C1    O8    1.332877 A    
C19   C21   1.403226 A    
O8    V2    2.021097 S    
C12   C14   1.378896 A    
C2    C43   1.524965 S    
N1    O22   1.299712 A    
C12   H14   1.083252 S    
C25   N9    1.461006 S    
C15   C17   1.456536 A    
N4    O28   1.300453 A    
O19   V4    1.820016 S    
C16   C18   1.456538 A    
C31   C50   1.469106 S    
C14   H12   1.074975 S    
H22   C46   1.113566 S    
C33   N1    1.494550 S    
C20   C28   1.419026 A    
C34   N2    1.494550 S    
C8    C28   1.402108 A    
C35   N3    1.472121 S    
O12   V3    2.009530 S    
O6    V2    2.080338 S    
C40   H24   1.105136 S    
O9    V2    1.820388 S    
H4    C24   1.082130 S    
N7    O34   1.298440 A    
C39   H23   1.105136 S    
O10   V1    1.820388 S    
C37   N7    1.470360 S    
C13   H11   1.074975 S    
N6    O31   1.303619 A    
N6    O32   1.303945 A    
C39   C47   1.562787 S    
C38   C46   1.561867 S    
C9    C31   1.397452 A    
C14   C16   1.415603 A    
N3    O26   1.300453 A    
