data_mof_unit_68202.cif
_audit_creation_date              2013-03-05T16:03:14-0500
_audit_creation_method            fapswitch 2.2
_symmetry_space_group_name_H-M    P1
_symmetry_Int_Tables_number       1
_space_group_crystal_system       triclinic
_cell_length_a                    6.920648
_cell_length_b                    14.666606
_cell_length_c                    15.879376
_cell_angle_alpha                 90.110629
_cell_angle_beta                  89.947849
_cell_angle_gamma                 89.680917
_cell_volume                      1611.7663698

loop_
_atom_site_label
_atom_site_type_symbol
_atom_site_description
_atom_site_fract_x
_atom_site_fract_y
_atom_site_fract_z
_atom_type_partial_charge
O1    O     O_R   0.361630 0.167340 0.164570 -0.613545
O2    O     O_R   0.638370 0.832660 0.835430 -0.618516
O3    O     O_R   0.690860 0.157560 0.338690 -0.583695
O4    O     O_R   0.309140 0.842440 0.661310 -0.562567
O5    O     O_R   0.861260 0.336420 0.339380 -0.576402
O6    O     O_R   0.138740 0.663580 0.660620 -0.584218
C1    C     C_R   0.521848 0.134841 0.368272 1.014879
C2    C     C_R   0.478132 0.865164 0.631765 1.023651
O7    O     O_R   0.691330 0.156310 0.165190 -0.610126
O8    O     O_R   0.308670 0.843690 0.834810 -0.589878
O9    O     O_R   0.861730 0.335160 0.164640 -0.631896
O10   O     O_R   0.138270 0.664840 0.835360 -0.635956
C3    C     C_R   0.523000 0.133940 0.136300 0.938008
C4    C     C_R   0.477012 0.866027 0.863701 0.941320
O11   O     O_R   0.361150 0.168600 0.339320 -0.599471
O12   O     O_R   0.638850 0.831400 0.660680 -0.602827
O13   O     O_3   0.527950 0.310560 0.252000 -0.239551
O14   O     O_3   0.472050 0.689440 0.748000 -0.248029
V1    V     V_3+5 0.802770 0.240990 0.251980 1.201256
V2    V     V_3+5 0.197230 0.759010 0.748020 1.237426
O15   O     O_R   0.191450 0.346190 0.165260 -0.561891
O16   O     O_R   0.808550 0.653810 0.834740 -0.565472
C5    C     C_R   0.019143 0.368453 0.136601 0.992469
C6    C     C_R   0.980882 0.631407 0.863280 0.985083
O17   O     O_R   0.190980 0.347440 0.338770 -0.572673
O18   O     O_R   0.809020 0.652560 0.661230 -0.573481
C7    C     C_R   0.021608 0.370284 0.367029 1.056859
C8    C     C_R   0.978475 0.629589 0.633067 1.052850
V3    V     V_3+5 0.302780 0.262760 0.251980 1.229747
V4    V     V_3+5 0.697220 0.737240 0.748020 1.239336
O19   O     O_3   0.027730 0.193200 0.251960 -0.299366
O20   O     O_3   0.972270 0.806800 0.748040 -0.269843
C9    C     C_3   0.935661 0.418051 0.526494 -0.239608
C10   C     C_3   0.064888 0.581658 0.473694 -0.229343
C11   C     C_3   0.108128 0.471015 0.563091 0.533648
C12   C     C_3   0.892496 0.528706 0.437077 0.558059
H1    H     H_    0.884583 0.350680 0.548896 0.191083
H2    H     H_    0.116069 0.649007 0.451287 0.186654
C13   C     C_3   0.989834 0.559974 0.563116 -0.294245
C14   C     C_3   0.010607 0.439755 0.437085 -0.308493
C15   C     C_3   0.815347 0.508094 0.526096 -0.233864
C16   C     C_3   0.185063 0.491629 0.474055 -0.274576
H3    H     H_    0.662474 0.515204 0.546338 0.194833
H4    H     H_    0.337912 0.484122 0.453970 0.192160
C17   C     C_R   0.773887 0.657889 0.019585 -0.373790
C18   C     C_R   0.226353 0.341836 0.980281 -0.373961
C19   C     C_R   0.638764 0.664995 0.084789 0.281615
C20   C     C_R   0.361233 0.334625 0.914973 0.277261
C21   C     C_R   0.574432 0.584451 0.122930 0.326302
C22   C     C_R   0.425252 0.415107 0.876611 0.330960
C23   C     C_R   0.692609 0.506504 0.117524 -0.277342
C24   C     C_R   0.306943 0.493031 0.881975 -0.278617
C25   C     C_R   0.856351 0.503909 0.063515 0.114554
C26   C     C_R   0.143505 0.495729 0.936158 0.113093
C27   C     C_R   0.873814 0.575423 0.004286 0.094854
C28   C     C_R   0.126252 0.424280 0.995487 0.094672
C29   C     C_R   0.997505 0.432304 0.064043 -0.213293
C30   C     C_R   0.002514 0.567422 0.935730 -0.210656
H5    H     H_    0.810699 0.718709 0.984701 0.165422
H6    H     H_    0.189832 0.281086 0.015326 0.166769
H7    H     H_    0.646662 0.448311 0.152709 0.221430
H8    H     H_    0.352617 0.551192 0.846680 0.221119
C31   C     C_3   0.320815 0.020662 0.472716 -0.219272
C32   C     C_3   0.679072 0.979406 0.527454 -0.221714
C33   C     C_3   0.415167 0.923943 0.469817 -0.246497
C34   C     C_3   0.584517 0.076148 0.530390 -0.252653
H9    H     H_    0.347176 0.861677 0.443584 0.199315
H10   H     H_    0.652393 0.138430 0.556649 0.195858
H11   H     H_    0.171915 0.038747 0.453023 0.218264
H12   H     H_    0.827940 0.961669 0.547609 0.209440
C35   C     C_3   0.489393 0.936611 0.561204 -0.355064
C36   C     C_3   0.510465 0.063437 0.438931 -0.342320
C37   C     C_3   0.396629 0.032152 0.563533 0.642614
C38   C     C_3   0.603081 0.967838 0.436641 0.612953
H13   H     H_    0.073211 0.888658 0.212368 0.200427
H14   H     H_    0.932019 0.108850 0.788544 0.182275
C39   C     C_R   0.758312 0.148888 0.984260 -0.198997
C40   C     C_R   0.242133 0.850884 0.015692 -0.210884
C41   C     C_R   0.867854 0.159641 0.911602 -0.004771
C42   C     C_R   0.133913 0.839578 0.088603 0.020735
C43   C     C_R   0.851305 0.098130 0.845927 0.027392
C44   C     C_R   0.151759 0.900528 0.154617 0.008865
C45   C     C_R   0.725051 0.025136 0.852356 -0.091132
C46   C     C_R   0.276669 0.974094 0.147986 -0.126536
C47   C     C_R   0.616154 0.009823 0.926754 0.128533
C48   C     C_R   0.384396 0.989892 0.073350 0.147218
C49   C     C_R   0.632373 0.073547 0.994383 0.167838
C50   C     C_R   0.367917 0.926290 0.005634 0.170028
C51   C     C_R   0.485647 0.935492 0.932563 -0.254013
C52   C     C_R   0.514458 0.064421 0.067439 -0.260645
H15   H     H_    0.769368 0.203021 0.029930 0.134239
H16   H     H_    0.230513 0.796961 0.969851 0.131732
H17   H     H_    0.960465 0.218191 0.904786 0.184468
H18   H     H_    0.041631 0.780902 0.095397 0.187529
H19   H     H_    0.710170 0.983421 0.796721 0.149324
H20   H     H_    0.292004 0.015756 0.203645 0.146618
S1    S     S_3+6 0.258210 0.431352 0.645991 -0.008800
O21   O     O_2   0.379808 0.509669 0.674618 -0.263086
O22   O     O_2   0.134443 0.398632 0.717452 -0.253779
O23   O     O_3   0.403791 0.346269 0.612803 -0.450455
H21   H     H_    0.356659 0.329502 0.556014 0.323673
S2    S     S_3+6 0.744645 0.568161 0.353592 0.004729
O24   O     O_2   0.870065 0.595056 0.280598 -0.221164
O25   O     O_2   0.613290 0.492238 0.327703 -0.288412
O26   O     O_3   0.612200 0.658405 0.385092 -0.437424
H22   H     H_    0.533970 0.635879 0.432907 0.314411
S3    S     S_3+6 0.251724 0.074961 0.647601 -0.043135
O27   O     O_2   0.083020 0.012676 0.661098 -0.342903
O28   O     O_2   0.371008 0.078822 0.726447 -0.265445
O29   O     O_3   0.170412 0.179731 0.623068 -0.522561
H23   H     H_    0.103614 0.201794 0.674454 0.401991
S4    S     S_3+6 0.745409 0.924085 0.352180 -0.023070
O30   O     O_2   0.816908 0.830068 0.373467 -0.204688
O31   O     O_2   0.623849 0.919945 0.273962 -0.279512
O32   O     O_3   0.935773 0.992598 0.336131 -0.579244
H24   H     H_    0.915244 0.019750 0.279792 0.363773
N1    N     N_R   0.612407 0.419075 0.836841 0.267448
O33   O     O_R   0.655924 0.485592 0.786487 -0.321574
O34   O     O_R   0.751935 0.367106 0.863948 -0.408566
N2    N     N_R   0.387178 0.580468 0.162580 0.265868
O35   O     O_R   0.247767 0.632465 0.135423 -0.405185
O36   O     O_R   0.343480 0.513892 0.212826 -0.324025
N3    N     N_R   0.585716 0.753233 0.117704 0.253033
O37   O     O_R   0.496403 0.759696 0.189626 -0.251229
O38   O     O_R   0.669911 0.825726 0.088635 -0.444996
N4    N     N_R   0.414429 0.246309 0.882245 0.248838
O39   O     O_R   0.503620 0.239631 0.810307 -0.269876
O40   O     O_R   0.330532 0.173862 0.911566 -0.445978

loop_
_geom_bond_atom_site_label_1
_geom_bond_atom_site_label_2
_geom_bond_distance
_ccdc_geom_bond_type
C34   H10   1.110228 S    
C31   C33   1.558881 S    
N4    O39   1.301216 A    
C3    C52   1.495067 S    
C22   N1    1.441994 S    
O13   V3    1.712316 S    
C23   H7    1.070641 S    
O4    C2    1.304965 A    
V1    O19   1.703811 S    
C21   C23   1.404375 A    
S4    O31   1.502097 D    
S1    O21   1.497876 D    
N3    O37   1.301157 A    
C19   C21   1.403088 A    
C34   C36   1.551778 S    
O9    V1    2.002557 S    
C46   C48   1.419681 A    
C41   H17   1.079950 S    
O3    C1    1.305281 A    
N1    O34   1.300966 A    
C38   S4    1.779901 S    
C9    C11   1.541301 S    
C40   C42   1.389043 A    
N3    O38   1.300522 A    
C21   N2    1.441782 S    
O12   V4    1.999018 S    
O32   H24   0.989996 S    
C28   C29   1.410480 A    
S2    O26   1.680875 S    
C12   S2    1.771480 S    
C46   H20   1.079171 S    
C17   C19   1.397908 A    
C11   C16   1.541403 S    
O7    C3    1.296094 A    
O29   H23   0.990389 S    
S1    O22   1.502181 D    
O5    C7    1.295025 A    
O7    V1    2.010631 S    
O6    C8    1.294731 A    
C31   H11   1.108107 S    
O8    V2    2.010632 S    
C33   H9    1.110223 S    
C10   C16   1.556624 S    
C22   C24   1.404600 A    
S3    O27   1.501920 D    
O3    V1    2.002020 S    
O14   V4    1.712316 S    
C32   H12   1.108824 S    
O14   V2    2.153337 S    
C47   C49   1.427180 A    
C2    O12   1.299561 A    
C15   H3    1.109746 S    
C12   C15   1.541654 S    
C16   H4    1.109394 S    
V2    O20   1.703810 S    
S4    O30   1.501674 D    
C43   C45   1.389489 A    
C24   C26   1.420848 A    
O11   V3    1.999019 S    
C18   C20   1.398109 A    
C25   C27   1.415741 A    
O17   V3    2.005302 S    
C26   C28   1.415956 A    
C9    C14   1.545426 S    
C48   C50   1.427228 A    
C32   C35   1.553567 S    
C10   C13   1.545794 S    
C6    C30   1.493176 S    
C12   C14   1.535667 S    
C13   C15   1.546784 S    
C48   C52   1.423046 A    
C1    C36   1.538564 S    
C35   C37   1.538434 S    
C25   C29   1.430355 A    
N4    O40   1.300460 A    
C1    O11   1.299627 A    
C31   C37   1.544284 S    
C8    C13   1.508999 S    
C40   H16   1.077224 S    
C33   C35   1.551031 S    
C34   C37   1.547110 S    
O15   V3    1.996283 S    
C9    H1    1.110338 S    
C33   C38   1.546819 S    
C23   C25   1.420832 A    
C32   C34   1.559778 S    
C11   C13   1.536436 S    
C4    C51   1.494579 S    
C19   N3    1.440331 S    
C7    C14   1.508676 S    
C45   H19   1.078980 S    
O10   V2    2.002557 S    
O1    V3    2.009019 S    
C39   C41   1.389681 A    
C50   C51   1.424253 A    
S2    O25   1.498511 D    
C20   C22   1.403149 A    
C39   C49   1.420450 A    
C36   C38   1.538776 S    
C45   C47   1.419646 A    
O18   V4    2.005304 S    
C44   C46   1.390402 A    
O15   C5    1.316416 A    
O8    C4    1.296053 A    
S3    O29   1.680095 S    
O16   C6    1.316417 A    
C27   C30   1.410246 A    
O1    C3    1.296477 A    
C42   H18   1.080032 S    
S1    O23   1.683016 S    
N2    O35   1.300868 A    
N2    O36   1.298984 A    
C41   C43   1.382873 A    
C26   C30   1.430518 A    
C40   C50   1.420414 A    
C5    C29   1.493252 S    
C39   H15   1.077343 S    
C2    C35   1.537812 S    
C47   C51   1.422668 A    
O16   V4    1.996283 S    
C18   H6    1.082408 S    
C10   H2    1.110305 S    
C14   C16   1.546272 S    
H14   C43   1.080571 S    
H13   C44   1.080540 S    
O5    V1    2.012165 S    
O17   C7    1.296790 A    
O6    V2    2.012167 S    
O26   H22   0.990443 S    
O10   C6    1.276445 A    
O18   C8    1.297258 A    
O2    V4    2.009016 S    
C9    C15   1.557313 S    
V3    O19   2.164685 S    
C24   H8    1.070610 S    
N1    O33   1.299090 A    
V4    O20   2.164684 S    
S3    O28   1.501452 D    
O9    C5    1.276465 A    
O23   H21   0.990276 S    
O13   V1    2.153336 S    
C42   C44   1.382411 A    
C10   C12   1.540939 S    
S2    O24   1.502089 D    
O2    C4    1.296227 A    
C37   S3    1.780257 S    
C20   N4    1.440541 S    
O4    V2    2.002024 S    
C31   C36   1.553463 S    
C17   C27   1.410460 A    
C17   H5    1.082422 S    
C49   C52   1.424695 A    
C18   C28   1.410521 A    
C32   C38   1.544760 S    
C11   S1    1.774502 S    
S4    O32   1.680908 S    
