data_mof_unit_27653.cif
_audit_creation_date              2012-12-10T16:56:29-0500
_audit_creation_method            fapswitch 2.2
_symmetry_space_group_name_H-M    P1
_symmetry_Int_Tables_number       1
_space_group_crystal_system       triclinic
_cell_length_a                    8.158365
_cell_length_b                    8.594134
_cell_length_c                    15.738543
_cell_angle_alpha                 101.581913
_cell_angle_beta                  81.516135
_cell_angle_gamma                 92.103467
_cell_volume                      1069.16715469

loop_
_atom_site_label
_atom_site_type_symbol
_atom_type_description
_atom_site_fract_x
_atom_site_fract_y
_atom_site_fract_z
_atom_type_partial_charge
C1    C     C_R   0.542786 0.793184 0.498644 0.923837
C2    C     C_3   0.421577 0.370180 0.021533 -0.165600
C3    C     C_1   0.485074 0.502714 0.752015 -0.167971
C4    C     C_1   0.514926 0.497286 0.247985 -0.167971
C5    C     C_3   0.339748 0.502650 0.988971 -0.163554
C6    C     C_3   0.660252 0.497350 0.011029 -0.163554
C7    C     C_3   0.490594 0.501489 0.918298 0.210588
C8    C     C_3   0.509406 0.498511 0.081702 0.210588
C9    C     C_1   0.483991 0.502620 0.827644 -0.091005
C10   C     C_1   0.516009 0.497380 0.172356 -0.091005
C11   C     C_R   0.993418 0.307405 0.411283 0.251135
C12   C     C_R   0.457214 0.206816 0.501356 0.923837
C13   C     C_R   0.867859 0.219045 0.368029 -0.127137
C14   C     C_R   0.885549 0.063366 0.319871 -0.217762
C15   C     C_R   0.037091 0.989650 0.304962 -0.068554
C16   C     C_R   0.170954 0.077375 0.332631 -0.218835
C17   C     C_R   0.149280 0.233402 0.380363 -0.132518
C18   C     C_R   0.006582 0.692595 0.588717 0.251135
C19   C     C_R   0.132141 0.780955 0.631971 -0.127137
C20   C     C_R   0.114451 0.936635 0.680129 -0.217762
C21   C     C_R   0.962909 0.010350 0.695038 -0.068555
C22   C     C_R   0.829046 0.922625 0.667369 -0.218835
C23   C     C_R   0.495140 0.501710 0.661898 0.853421
C24   C     C_R   0.850720 0.766597 0.619637 -0.132518
C25   C     C_R   0.504860 0.498289 0.338102 0.853420
C26   C     C_2   0.565615 0.956058 0.498191 -0.383062
C27   C     C_2   0.434385 0.043942 0.501809 -0.383063
C28   C     C_3   0.427625 0.630973 0.050850 -0.166351
C29   C     C_3   0.572375 0.369027 0.949150 -0.166351
C30   C     C_3   0.578423 0.629820 0.978467 -0.165600
H1    H     H_    0.642091 0.736340 0.958967 0.130647
H2    H     H_    0.781282 0.001567 0.292523 0.138568
H3    H     H_    0.052859 0.869741 0.267290 0.136184
H4    H     H_    0.293967 0.026865 0.314273 0.132567
H5    H     H_    0.262083 0.286696 0.382901 0.199649
H6    H     H_    0.247966 0.736412 0.633609 0.202080
H7    H     H_    0.218718 0.998432 0.707477 0.138568
H8    H     H_    0.947141 0.130259 0.732710 0.136184
H9    H     H_    0.706033 0.973135 0.685727 0.132567
H10   H     H_    0.737917 0.713304 0.617099 0.199649
H11   H     H_    0.357908 0.263660 0.041033 0.130647
H12   H     H_    0.368854 0.738341 0.094439 0.127483
H13   H     H_    0.631146 0.261659 0.905561 0.127483
H14   H     H_    0.791516 0.495107 0.021858 0.128071
H15   H     H_    0.208484 0.504893 0.978142 0.128071
H16   H     H_    0.691431 0.003364 0.494958 0.209389
H17   H     H_    0.308569 0.996636 0.505042 0.209389
H18   H     H_    0.752034 0.263587 0.366391 0.202081
N1    N     N_2   0.950320 0.457950 0.477300 -0.109910
N2    N     N_2   0.049680 0.542050 0.522700 -0.109910
O1    O     O_R   0.389250 0.738570 0.505570 -0.633091
O2    O     O_R   0.610750 0.261430 0.494430 -0.633091
O3    O     O_R   0.678390 0.711630 0.491020 -0.632999
O4    O     O_R   0.321610 0.288370 0.508980 -0.632999
O5    O     O_R   0.355460 0.513480 0.630490 -0.642554
O6    O     O_R   0.644540 0.486520 0.369510 -0.642553
O7    O     O_R   0.644600 0.486540 0.615950 -0.633612
O8    O     O_R   0.355400 0.513460 0.384050 -0.633612
Zn1   Zn    Zn3+2 0.306940 0.517990 0.509710 0.910896
Zn2   Zn    Zn3+2 0.693060 0.482010 0.490290 0.910896

loop_
_geom_bond_atom_site_label_1
_geom_bond_atom_site_label_2
_ccdc_geom_bond_type
C13   H18   S    
C23   O5    A    
C7    C29   S    
O5    Zn1   S    
C5    C28   S    
C11   C13   A    
C3    C23   S    
C19   C20   A    
C25   O6    A    
C12   O4    A    
C19   H6    S    
C16   H4    S    
C23   O7    A    
C28   C30   S    
C4    C25   S    
C2    H11   S    
C7    C30   S    
C6    H14   S    
C21   C22   A    
C29   H13   S    
C20   H7    S    
C1    O1    A    
C26   C27   D    
C1    C26   S    
N1    Zn2   S    
C5    H15   S    
C2    C29   S    
C11   N1    S    
N2    Zn1   S    
C28   H12   S    
C12   O2    A    
O3    Zn2   S    
N1    N2    D    
O4    Zn1   S    
C30   H1    S    
C8    C28   S    
C22   C24   A    
C3    C9    T    
C2    C5    S    
O1    Zn1   S    
C25   O8    A    
C26   H16   S    
C12   C27   S    
C4    C10   T    
C15   C16   A    
C6    C29   S    
C17   H5    S    
C20   C21   A    
C18   N2    S    
C18   C24   A    
C7    C9    S    
C18   C19   A    
C27   H17   S    
C5    C7    S    
C1    O3    A    
C14   C15   A    
C24   H10   S    
O7    Zn2   S    
C6    C8    S    
O2    Zn2   S    
C6    C30   S    
O8    Zn1   S    
C13   C14   A    
C22   H9    S    
C15   H3    S    
C8    C10   S    
C2    C8    S    
C21   H8    S    
O6    Zn2   S    
C14   H2    S    
C16   C17   A    
C11   C17   A    
