data_mof_unit_63681.cif
_audit_creation_date              2012-12-10T17:22:34-0500
_audit_creation_method            fapswitch 2.2
_symmetry_space_group_name_H-M    P1
_symmetry_Int_Tables_number       1
_space_group_crystal_system       monoclinic
_cell_length_a                    21.683845
_cell_length_b                    21.683845
_cell_length_c                    30.387608
_cell_angle_alpha                 90.0
_cell_angle_beta                  90.0
_cell_angle_gamma                 89.952278
_cell_volume                      14287.9181334

loop_
_atom_site_label
_atom_site_type_symbol
_atom_type_description
_atom_site_fract_x
_atom_site_fract_y
_atom_site_fract_z
_atom_type_partial_charge
C1    C     C_R   0.118917 0.499980 0.500005 0.784627
C2    C     C_R   0.500021 0.881082 0.499996 0.784665
C3    C     C_R   0.881083 0.500020 0.500005 0.784627
C4    C     C_R   0.499979 0.118918 0.499996 0.784664
C5    C     C_R   0.618918 0.999979 0.000004 0.784664
C6    C     C_R   0.000020 0.381083 0.999995 0.784627
C7    C     C_R   0.381082 0.000021 0.000004 0.784665
C8    C     C_R   0.999979 0.618917 0.999995 0.784626
C9    C     C_R   0.499991 0.380971 0.500000 0.780033
C10   C     C_R   0.380970 0.499994 0.500000 0.780021
C11   C     C_R   0.500009 0.619029 0.500000 0.780033
C12   C     C_R   0.619030 0.500006 0.500000 0.780021
C13   C     C_R   0.999994 0.880970 0.999999 0.780021
C14   C     C_R   0.880970 0.999991 0.000000 0.780033
C15   C     C_R   0.000006 0.119030 0.999999 0.780021
C16   C     C_R   0.119029 0.000009 0.000000 0.780033
C17   C     C_R   0.314089 0.499976 0.500005 -0.010453
C18   C     C_R   0.500029 0.685908 0.499995 -0.010737
C19   C     C_R   0.685911 0.500024 0.500005 -0.010453
C20   C     C_R   0.499971 0.314092 0.499995 -0.010737
C21   C     C_R   0.814092 0.999971 0.000005 -0.010737
C22   C     C_R   0.000024 0.185911 0.999995 -0.010453
C23   C     C_R   0.185908 0.000029 0.000005 -0.010737
C24   C     C_R   0.999976 0.814089 0.999995 -0.010453
C25   C     C_R   0.281970 0.539332 0.528460 -0.177002
C26   C     C_R   0.539462 0.717957 0.528399 -0.177037
C27   C     C_R   0.718030 0.460668 0.528460 -0.177003
C28   C     C_R   0.460538 0.282043 0.528399 -0.177036
C29   C     C_R   0.282040 0.460594 0.471565 -0.177048
C30   C     C_R   0.539380 0.281974 0.471578 -0.177430
C31   C     C_R   0.717960 0.539405 0.471565 -0.177047
C32   C     C_R   0.460620 0.718026 0.471578 -0.177430
C33   C     C_R   0.781974 0.039379 0.028422 -0.177430
C34   C     C_R   0.039405 0.217960 0.028435 -0.177048
C35   C     C_R   0.218026 0.960620 0.028422 -0.177430
C36   C     C_R   0.960594 0.782040 0.028435 -0.177048
C37   C     C_R   0.782043 0.960538 0.971601 -0.177036
C38   C     C_R   0.039332 0.781970 0.971540 -0.177003
C39   C     C_R   0.217957 0.039462 0.971601 -0.177036
C40   C     C_R   0.960668 0.218030 0.971540 -0.177003
C41   C     C_R   0.000000 0.500000 0.414908 0.783794
C42   C     C_R   0.500000 1.000000 0.414908 0.783993
C43   C     C_R   0.000000 0.500000 0.585091 0.784012
C44   C     C_R   0.500000 0.000000 0.585092 0.783991
C45   C     C_R   0.500000 1.000000 0.914908 0.783990
C46   C     C_R   1.000000 0.500000 0.914909 0.784010
C47   C     C_R   0.500000 0.000000 0.085092 0.783994
C48   C     C_R   0.000000 0.500000 0.085092 0.783795
C49   C     C_R   0.185805 0.499944 0.500023 -0.010159
C50   C     C_R   0.500058 0.814193 0.499980 -0.011502
C51   C     C_R   0.814195 0.500056 0.500023 -0.010160
C52   C     C_R   0.499942 0.185807 0.499980 -0.011502
C53   C     C_R   0.685807 0.999942 0.000020 -0.011502
C54   C     C_R   0.000056 0.314195 0.999977 -0.010159
C55   C     C_R   0.314193 0.000058 0.000020 -0.011502
C56   C     C_R   0.999944 0.685805 0.999977 -0.010159
C57   C     C_R   0.217859 0.540071 0.527927 -0.176499
C58   C     C_R   0.540231 0.782069 0.527849 -0.176420
C59   C     C_R   0.782141 0.459929 0.527927 -0.176499
C60   C     C_R   0.459769 0.217931 0.527849 -0.176420
C61   C     C_R   0.217928 0.459823 0.472115 -0.176040
C62   C     C_R   0.540119 0.217863 0.472113 -0.176600
C63   C     C_R   0.782072 0.540176 0.472115 -0.176040
C64   C     C_R   0.459881 0.782137 0.472113 -0.176600
C65   C     C_R   0.717863 0.040119 0.027887 -0.176600
C66   C     C_R   0.040176 0.282072 0.027885 -0.176040
C67   C     C_R   0.282137 0.959881 0.027887 -0.176600
C68   C     C_R   0.959823 0.717928 0.027885 -0.176039
C69   C     C_R   0.717931 0.959769 0.972151 -0.176420
C70   C     C_R   0.040071 0.717859 0.972073 -0.176499
C71   C     C_R   0.282069 0.040231 0.972151 -0.176420
C72   C     C_R   0.959929 0.282141 0.972073 -0.176499
C73   C     C_R   0.018920 0.552589 0.297387 -0.169754
C74   C     C_R   0.552609 0.981046 0.297387 -0.169737
C75   C     C_R   0.981080 0.447411 0.297387 -0.169754
C76   C     C_R   0.447391 0.018954 0.297387 -0.169737
C77   C     C_R   0.980978 0.447447 0.702607 -0.169005
C78   C     C_R   0.552589 0.018920 0.702613 -0.169647
C79   C     C_R   0.019022 0.552553 0.702607 -0.169005
C80   C     C_R   0.447410 0.981080 0.702613 -0.169647
C81   C     C_R   0.518920 0.052589 0.797387 -0.169647
C82   C     C_R   0.947450 0.480969 0.797393 -0.169003
C83   C     C_R   0.481080 0.947410 0.797387 -0.169647
C84   C     C_R   0.052550 0.519031 0.797393 -0.169004
C85   C     C_R   0.518954 0.947391 0.202613 -0.169737
C86   C     C_R   0.052589 0.518920 0.202613 -0.169753
C87   C     C_R   0.481046 0.052609 0.202613 -0.169737
C88   C     C_R   0.947411 0.481080 0.202613 -0.169754
C89   C     C_R   0.018453 0.552777 0.343259 -0.184187
C90   C     C_R   0.552796 0.981514 0.343260 -0.184169
C91   C     C_R   0.981547 0.447223 0.343259 -0.184186
C92   C     C_R   0.447204 0.018486 0.343260 -0.184169
C93   C     C_R   0.981437 0.447262 0.656735 -0.184321
C94   C     C_R   0.552777 0.018453 0.656740 -0.184115
C95   C     C_R   0.018563 0.552738 0.656735 -0.184321
C96   C     C_R   0.447223 0.981547 0.656740 -0.184114
C97   C     C_R   0.518453 0.052776 0.843260 -0.184114
C98   C     C_R   0.947265 0.481429 0.843265 -0.184321
C99   C     C_R   0.481547 0.947223 0.843260 -0.184115
C100  C     C_R   0.052735 0.518571 0.843265 -0.184320
C101  C     C_R   0.518485 0.947204 0.156740 -0.184169
C102  C     C_R   0.052776 0.518453 0.156740 -0.184187
C103  C     C_R   0.481514 0.052796 0.156740 -0.184169
C104  C     C_R   0.947223 0.481547 0.156740 -0.184186
C105  C     C_R   0.000000 0.500000 0.366551 -0.029434
C106  C     C_R   0.500000 0.000000 0.366551 -0.029493
C107  C     C_R   1.000000 0.500000 0.633445 -0.026777
C108  C     C_R   0.500000 1.000000 0.633449 -0.029379
C109  C     C_R   0.500000 1.000000 0.866551 -0.029380
C110  C     C_R   1.000000 0.500000 0.866555 -0.026774
C111  C     C_R   0.500000 0.000000 0.133449 -0.029492
C112  C     C_R   0.000000 0.500000 0.133449 -0.029433
C113  C     C_R   1.000000 0.500000 0.274191 0.100711
C114  C     C_R   0.500000 0.000000 0.274191 0.100675
C115  C     C_R   0.000000 0.500000 0.725807 0.101303
C116  C     C_R   0.500000 1.000000 0.725809 0.100856
C117  C     C_R   0.500000 1.000000 0.774191 0.100857
C118  C     C_R   1.000000 0.500000 0.774194 0.101302
C119  C     C_R   0.500000 0.000000 0.225809 0.100675
C120  C     C_R   1.000000 0.500000 0.225809 0.100711
Cu1   Cu    Cu3+1 1.000000 0.438210 0.500000 0.943493
Cu2   Cu    Cu3+1 0.438210 1.000000 0.500000 0.943119
Cu3   Cu    Cu3+1 1.000000 0.561790 0.500000 0.943493
Cu4   Cu    Cu3+1 0.561790 1.000000 0.500000 0.943119
Cu5   Cu    Cu3+1 0.500000 0.938210 0.000000 0.943119
Cu6   Cu    Cu3+1 0.938210 0.500000 0.000000 0.943494
Cu7   Cu    Cu3+1 0.500000 0.061790 0.000000 0.943119
Cu8   Cu    Cu3+1 0.061790 0.500000 0.000000 0.943493
Cu9   Cu    Cu3+1 0.500000 0.500000 0.544060 0.947264
Cu10  Cu    Cu3+1 0.500000 0.500000 0.455940 0.946989
Cu11  Cu    Cu3+1 1.000000 1.000000 0.044060 0.946989
Cu12  Cu    Cu3+1 1.000000 1.000000 0.955940 0.947264
H1    H     H_    0.033324 0.593716 0.279967 0.130393
H2    H     H_    0.593749 0.966616 0.279967 0.130425
H3    H     H_    0.966676 0.406284 0.279967 0.130393
H4    H     H_    0.406251 0.033384 0.279967 0.130425
H5    H     H_    0.966498 0.406345 0.720023 0.129683
H6    H     H_    0.593716 0.033323 0.720032 0.130250
H7    H     H_    0.033502 0.593655 0.720023 0.129684
H8    H     H_    0.406284 0.966676 0.720032 0.130250
H9    H     H_    0.533323 0.093716 0.779968 0.130250
H10   H     H_    0.906350 0.466483 0.779977 0.129683
H11   H     H_    0.466677 0.906284 0.779968 0.130250
H12   H     H_    0.093650 0.533517 0.779977 0.129683
H13   H     H_    0.533384 0.906250 0.220033 0.130425
H14   H     H_    0.093716 0.533324 0.220032 0.130393
H15   H     H_    0.466616 0.093749 0.220033 0.130425
H16   H     H_    0.906284 0.466676 0.220032 0.130393
H17   H     H_    0.193275 0.571062 0.549728 0.136949
H18   H     H_    0.571265 0.806597 0.549619 0.139868
H19   H     H_    0.806724 0.428938 0.549728 0.136949
H20   H     H_    0.428735 0.193402 0.549619 0.139868
H21   H     H_    0.193399 0.428830 0.450316 0.139480
H22   H     H_    0.571153 0.193283 0.450343 0.139573
H23   H     H_    0.806601 0.571170 0.450316 0.139480
H24   H     H_    0.428847 0.806717 0.450343 0.139573
H25   H     H_    0.693283 0.071153 0.049657 0.139573
H26   H     H_    0.071170 0.306601 0.049684 0.139480
H27   H     H_    0.306717 0.928847 0.049657 0.139573
H28   H     H_    0.928830 0.693399 0.049684 0.139480
H29   H     H_    0.693402 0.928735 0.950381 0.139868
H30   H     H_    0.071062 0.693275 0.950272 0.136948
H31   H     H_    0.306598 0.071265 0.950381 0.139868
H32   H     H_    0.928938 0.306724 0.950272 0.136948
O1    O     O_R   0.090160 0.447820 0.500030 -0.582965
O2    O     O_R   0.447820 0.909840 0.500030 -0.585250
O3    O     O_R   0.909840 0.552180 0.500030 -0.582965
O4    O     O_R   0.552180 0.090160 0.500030 -0.585250
O5    O     O_R   0.090160 0.552180 0.499970 -0.587178
O6    O     O_R   0.447820 0.090160 0.499970 -0.584998
O7    O     O_R   0.909840 0.447820 0.499970 -0.587178
O8    O     O_R   0.552180 0.909840 0.499970 -0.584998
O9    O     O_R   0.590160 0.947820 0.000030 -0.584998
O10   O     O_R   0.947820 0.409840 0.000030 -0.587178
O11   O     O_R   0.409840 0.052180 0.000030 -0.584998
O12   O     O_R   0.052180 0.590160 0.000030 -0.587178
O13   O     O_R   0.590160 0.052180 0.999970 -0.585250
O14   O     O_R   0.947820 0.590160 0.999970 -0.582965
O15   O     O_R   0.409840 0.947820 0.999970 -0.585250
O16   O     O_R   0.052180 0.409840 0.999970 -0.582965
O17   O     O_R   0.999980 0.447820 0.435750 -0.588774
O18   O     O_R   0.447820 0.000020 0.435750 -0.588721
O19   O     O_R   0.000020 0.552180 0.435750 -0.588775
O20   O     O_R   0.552180 0.999980 0.435750 -0.588721
O21   O     O_R   0.999980 0.552180 0.564250 -0.588470
O22   O     O_R   0.447820 0.999980 0.564250 -0.588699
O23   O     O_R   0.000020 0.447820 0.564250 -0.588470
O24   O     O_R   0.552180 0.000020 0.564250 -0.588699
O25   O     O_R   0.499980 0.947820 0.935750 -0.588698
O26   O     O_R   0.947820 0.500020 0.935750 -0.588468
O27   O     O_R   0.500020 0.052180 0.935750 -0.588698
O28   O     O_R   0.052180 0.499980 0.935750 -0.588468
O29   O     O_R   0.499980 0.052180 0.064250 -0.588722
O30   O     O_R   0.947820 0.499980 0.064250 -0.588775
O31   O     O_R   0.500020 0.947820 0.064250 -0.588722
O32   O     O_R   0.052180 0.500020 0.064250 -0.588776
O33   O     O_R   0.499980 0.409740 0.537200 -0.586028
O34   O     O_R   0.409740 0.500020 0.537200 -0.585889
O35   O     O_R   0.500020 0.590260 0.537200 -0.586028
O36   O     O_R   0.590260 0.499980 0.537200 -0.585889
O37   O     O_R   0.499980 0.590260 0.462800 -0.585991
O38   O     O_R   0.409740 0.499980 0.462800 -0.586115
O39   O     O_R   0.500020 0.409740 0.462800 -0.585991
O40   O     O_R   0.590260 0.500020 0.462800 -0.586115
O41   O     O_R   0.999980 0.909740 0.037200 -0.586115
O42   O     O_R   0.909740 0.000020 0.037200 -0.585991
O43   O     O_R   0.000020 0.090260 0.037200 -0.586115
O44   O     O_R   0.090260 0.999980 0.037200 -0.585991
O45   O     O_R   0.999980 0.090260 0.962800 -0.585889
O46   O     O_R   0.909740 0.999980 0.962800 -0.586028
O47   O     O_R   0.000020 0.909740 0.962800 -0.585889
O48   O     O_R   0.090260 0.000020 0.962800 -0.586028
H33   H     H_    0.033085 0.593974 0.360479 0.150658
H34   H     H_    0.594009 0.966856 0.360480 0.150692
H35   H     H_    0.966915 0.406026 0.360480 0.150658
H36   H     H_    0.405991 0.033144 0.360480 0.150692
H37   H     H_    0.966713 0.406099 0.639512 0.148512
H38   H     H_    0.593974 0.033085 0.639521 0.150564
H39   H     H_    0.033287 0.593901 0.639512 0.148512
H40   H     H_    0.406026 0.966915 0.639521 0.150564
H41   H     H_    0.533085 0.093974 0.860479 0.150564
H42   H     H_    0.906104 0.466699 0.860488 0.148509
H43   H     H_    0.466915 0.906026 0.860479 0.150564
H44   H     H_    0.093896 0.533301 0.860488 0.148508
H45   H     H_    0.533143 0.905991 0.139520 0.150693
H46   H     H_    0.093974 0.533085 0.139520 0.150658
H47   H     H_    0.466856 0.094008 0.139520 0.150693
H48   H     H_    0.906026 0.466915 0.139520 0.150658
H49   H     H_    0.306503 0.570088 0.550429 0.139118
H50   H     H_    0.570246 0.693367 0.550345 0.140121
H51   H     H_    0.693497 0.429912 0.550429 0.139119
H52   H     H_    0.429754 0.306633 0.550345 0.140121
H53   H     H_    0.306629 0.429850 0.449591 0.139785
H54   H     H_    0.570175 0.306508 0.449638 0.139656
H55   H     H_    0.693371 0.570149 0.449591 0.139784
H56   H     H_    0.429825 0.693492 0.449638 0.139656
H57   H     H_    0.806508 0.070175 0.050362 0.139656
H58   H     H_    0.070149 0.193371 0.050409 0.139785
H59   H     H_    0.193492 0.929825 0.050362 0.139656
H60   H     H_    0.929851 0.806629 0.050409 0.139785
H61   H     H_    0.806633 0.929754 0.949655 0.140121
H62   H     H_    0.070088 0.806503 0.949571 0.139119
H63   H     H_    0.193367 0.070245 0.949655 0.140121
H64   H     H_    0.929912 0.193497 0.949571 0.139119

loop_
_geom_bond_atom_site_label_1
_geom_bond_atom_site_label_2
_ccdc_geom_bond_type
C36   H60   S    
C79   H7    S    
C38   C70   A    
C11   C18   S    
C100  C110  A    
Cu2   O2    S    
C79   C115  A    
C17   C29   A    
C91   C105  A    
C102  C112  A    
Cu12  O48   S    
C7    C55   S    
C82   H10   S    
Cu11  O43   S    
C34   C66   A    
C2    C50   S    
Cu5   O9    S    
C76   H4    S    
C33   C65   A    
Cu1   O1    S    
C67   H27   S    
C20   C30   A    
C26   H50   S    
C79   C95   A    
C25   H49   S    
C24   C36   A    
C87   H15   S    
C52   C60   A    
C4    C52   S    
C100  H44   S    
C98   C110  A    
C50   C64   A    
C14   C21   S    
C89   H33   S    
C6    C54   S    
Cu4   O20   S    
C37   C69   A    
Cu7   O29   S    
C11   O37   A    
C45   C109  S    
Cu2   O22   S    
C6    O16   A    
C21   C33   A    
C84   H12   S    
C10   C17   S    
C103  H47   S    
C74   C114  A    
C70   H30   S    
C102  H46   S    
C73   C113  A    
C116  C117  S    
C93   H37   S    
C60   H20   S    
C77   C93   A    
Cu6   O26   S    
C94   H38   S    
C13   O47   A    
C85   C101  A    
C91   H35   S    
C9    O39   A    
C3    O7    A    
C77   C115  A    
Cu4   O4    S    
Cu4   O24   S    
C45   O27   A    
C15   C22   S    
C95   C107  A    
C8    O12   A    
C80   C116  A    
Cu2   O6    S    
C7    O11   A    
Cu5   O15   S    
C76   C114  A    
Cu6   O14   S    
Cu8   O16   S    
C35   C67   A    
C88   C120  A    
C53   C65   A    
C28   H52   S    
Cu9   O34   S    
Cu10  O38   S    
C43   O21   A    
C75   C91   A    
Cu3   O3    S    
C81   H9    S    
C96   C108  A    
C19   C31   A    
C29   C61   A    
C83   C99   A    
C48   O32   A    
C80   H8    S    
C82   C98   A    
C8    C56   S    
Cu12  O47   S    
C25   C57   A    
C46   O26   A    
C38   H62   S    
Cu11  O44   S    
C78   H6    S    
C19   C27   A    
C88   C104  A    
C9    O33   A    
C104  H48   S    
C51   C59   A    
C39   H63   S    
C44   C108  S    
Cu7   O11   S    
C22   C34   A    
C99   H43   S    
Cu8   O12   S    
C37   H61   S    
C14   O46   A    
C3    O3    A    
Cu7   O13   S    
C31   C63   A    
C16   O48   A    
C51   C63   A    
C32   C64   A    
Cu5   O25   S    
C65   H25   S    
C26   C58   A    
C104  C112  A    
C3    C51   S    
C10   O34   A    
Cu8   O32   S    
C6    O10   A    
C54   C72   A    
C42   O20   A    
C53   C69   A    
C56   C68   A    
C31   H55   S    
C44   O24   A    
C42   O18   A    
C4    O4    A    
C13   C24   S    
C57   H17   S    
Cu8   O28   S    
C85   C119  A    
C84   C100  A    
C80   C96   A    
Cu3   O21   S    
C15   O43   A    
C55   C71   A    
C4    O6    A    
C87   C119  A    
C8    O14   A    
Cu1   O23   S    
C113  C120  S    
C97   C109  A    
Cu6   O30   S    
C9    C20   S    
C24   C38   A    
C10   O38   A    
C1    O1    A    
C101  H45   S    
C115  C118  S    
C22   C40   A    
C18   C26   A    
C83   H11   S    
C45   O25   A    
C88   H16   S    
C50   C58   A    
Cu12  O46   S    
C43   C107  S    
C30   H54   S    
C61   H21   S    
C41   O17   A    
C66   H26   S    
C5    O13   A    
C40   H64   S    
Cu10  O37   S    
C71   H31   S    
C76   C92   A    
C35   H59   S    
C75   C113  A    
C81   C117  A    
C27   H51   S    
C48   C112  S    
C73   H1    S    
C16   C23   S    
C23   C35   A    
C30   C62   A    
C87   C103  A    
C12   O36   A    
C28   C60   A    
C18   C32   A    
C82   C118  A    
C27   C59   A    
Cu2   Cu4   S    
Cu11  Cu12  S    
Cu11  O41   S    
C94   C108  A    
C90   H34   S    
Cu10  O40   S    
Cu1   O17   S    
Cu9   Cu10  S    
C32   H56   S    
C92   C106  A    
Cu1   O7    S    
C2    O2    A    
Cu6   Cu8   S    
C40   C72   A    
C48   O30   A    
C5    O9    A    
C47   O29   A    
C78   C116  A    
Cu12  O45   S    
C114  C119  S    
C77   H5    S    
C16   O44   A    
Cu6   O10   S    
C43   O23   A    
C74   H2    S    
C49   C57   A    
C86   C120  A    
C36   C68   A    
C72   H32   S    
C54   C66   A    
C103  C111  A    
C59   H19   S    
C101  C111  A    
C20   C28   A    
C64   H24   S    
C56   C70   A    
C69   H29   S    
C7    O15   A    
C17   C25   A    
Cu9   O35   S    
C99   C109  A    
C14   O42   A    
C5    C53   S    
C63   H23   S    
C55   C67   A    
C15   O45   A    
C46   C110  S    
C96   H40   S    
C93   C107  A    
C46   O28   A    
C29   H53   S    
C49   C61   A    
C83   C117  A    
C47   O31   A    
C75   H3    S    
C81   C97   A    
C78   C94   A    
C47   C111  S    
C74   C90   A    
C98   H42   S    
C12   C19   S    
C1    O5    A    
Cu3   O5    S    
C97   H41   S    
C92   H36   S    
C13   O41   A    
Cu4   O8    S    
C12   O40   A    
C34   H58   S    
C11   O35   A    
Cu1   Cu3   S    
Cu9   O36   S    
C33   H57   S    
C90   C106  A    
C73   C89   A    
C42   C106  S    
C62   H22   S    
Cu2   O18   S    
C21   C37   A    
C41   C105  S    
C86   H14   S    
C84   C118  A    
Cu3   O19   S    
C89   C105  A    
C95   H39   S    
Cu5   Cu7   S    
Cu5   O31   S    
C41   O19   A    
Cu7   O27   S    
C52   C62   A    
C85   H13   S    
C68   H28   S    
Cu11  O42   S    
C1    C49   S    
C44   O22   A    
C23   C39   A    
Cu9   O33   S    
Cu10  O39   S    
C58   H18   S    
C2    O8    A    
C39   C71   A    
C86   C102  A    
