data_mof_unit_19758.cif
_audit_creation_date              2012-12-11T15:47:08-0500
_audit_creation_method            fapswitch 2.2
_symmetry_space_group_name_H-M    P1
_symmetry_Int_Tables_number       1
_space_group_crystal_system       triclinic
_cell_length_a                    20.155968
_cell_length_b                    7.254824
_cell_length_c                    13.583325
_cell_angle_alpha                 90.003033
_cell_angle_beta                  102.88209
_cell_angle_gamma                 89.996371
_cell_volume                      1936.27007318

loop_
_atom_site_label
_atom_site_type_symbol
_atom_type_description
_atom_site_fract_x
_atom_site_fract_y
_atom_site_fract_z
_atom_type_partial_charge
O1    O     O_R   0.449560 0.506810 0.599700 -0.533592
O2    O     O_R   0.550440 0.006810 0.400300 -0.533584
O3    O     O_R   0.587960 0.180060 0.595760 -0.546407
O4    O     O_R   0.412040 0.680060 0.404240 -0.546400
C1    C     C_R   0.614753 0.344402 0.617668 0.700981
C2    C     C_R   0.385247 0.844405 0.382334 0.700987
O5    O     O_R   0.452380 0.177430 0.611700 -0.537822
O6    O     O_R   0.547620 0.677430 0.388300 -0.537822
O7    O     O_R   0.413900 0.001890 0.416350 -0.542227
O8    O     O_R   0.586100 0.501890 0.583650 -0.542223
C3    C     C_R   0.436479 0.345624 0.637737 0.706392
C4    C     C_R   0.563520 0.845609 0.362261 0.706395
O9    O     O_3   0.487530 0.337490 0.435890 -0.379088
O10   O     O_3   0.512470 0.837490 0.564110 -0.379102
V1    V     V_3+5 0.502310 0.064660 0.511890 1.423770
V2    V     V_3+5 0.497690 0.564660 0.488110 1.423807
C5    C     C_R   0.607326 0.856038 0.107705 0.377850
C6    C     C_R   0.392673 0.357080 0.892282 0.377845
H1    H     H_    0.514905 0.847039 0.161296 0.134642
H2    H     H_    0.485099 0.348139 0.838699 0.134716
C7    C     C_R   0.602875 0.852954 0.284222 -0.108801
C8    C     C_R   0.397120 0.353045 0.715768 -0.108805
C9    C     C_R   0.930712 0.873588 0.316260 -0.169035
C10   C     C_R   0.069275 0.372998 0.683725 -0.169053
C11   C     C_R   0.894764 0.878538 0.392284 -0.121120
C12   C     C_R   0.105217 0.377709 0.607689 -0.121110
C13   C     C_R   0.823870 0.873928 0.368630 -0.156908
C14   C     C_R   0.176114 0.373321 0.631344 -0.156911
C15   C     C_R   0.786673 0.862347 0.266971 0.101692
C16   C     C_R   0.213320 0.362219 0.733016 0.101703
C17   C     C_R   0.824063 0.854799 0.189637 0.062425
C18   C     C_R   0.175937 0.354961 0.810365 0.062393
C19   C     C_R   0.713850 0.859550 0.239597 0.039153
C20   C     C_R   0.286144 0.359636 0.760389 0.039169
C21   C     C_R   0.679774 0.854046 0.135430 0.028113
C22   C     C_R   0.320226 0.354740 0.864563 0.028062
C23   C     C_R   0.718490 0.840109 0.061733 -0.186453
C24   C     C_R   0.281521 0.341062 0.938284 -0.186452
C25   C     C_R   0.789000 0.841030 0.088269 -0.176981
C26   C     C_R   0.211010 0.341697 0.911749 -0.177090
C27   C     C_R   0.673666 0.859645 0.312571 -0.219379
C28   C     C_R   0.326324 0.359379 0.687411 -0.219369
C29   C     C_R   0.570028 0.850215 0.182617 -0.143600
C30   C     C_R   0.429973 0.350986 0.817376 -0.143664
C31   C     C_R   0.896132 0.861809 0.215261 -0.073680
C32   C     C_R   0.103865 0.361722 0.784737 -0.073644
H3    H     H_    0.800083 0.881539 0.431989 0.107509
H4    H     H_    0.199896 0.380733 0.567974 0.107513
H5    H     H_    0.815972 0.829883 0.028005 0.148976
H6    H     H_    0.184045 0.330755 0.972028 0.149100
C33   C     C_R   0.213109 0.015970 0.235695 -0.243390
C34   C     C_R   0.786893 0.515955 0.764289 -0.243433
H7    H     H_    0.184886 0.144069 0.228004 0.156759
H8    H     H_    0.815120 0.644039 0.771955 0.156747
C35   C     C_R   0.278241 0.013500 0.298853 -0.162285
C36   C     C_R   0.721762 0.513479 0.701126 -0.162280
C37   C     C_R   0.316725 0.850585 0.313095 -0.065737
C38   C     C_R   0.683273 0.350583 0.686913 -0.065747
C39   C     C_R   0.288815 0.690821 0.261583 -0.248403
C40   C     C_R   0.711174 0.190846 0.738465 -0.248386
H9    H     H_    0.318028 0.564193 0.270966 0.118667
H10   H     H_    0.681953 0.064240 0.729109 0.118649
C41   C     C_R   0.223494 0.691565 0.197030 0.370508
C42   C     C_R   0.776492 0.191600 0.803027 0.370573
C43   C     C_R   0.184478 0.856100 0.184136 -0.066567
C44   C     C_R   0.815516 0.356109 0.815880 -0.066597
O11   O     O_R   0.913920 0.203370 0.916260 -0.501466
O12   O     O_R   0.086080 0.703370 0.083740 -0.501470
O13   O     O_R   0.047620 0.535540 0.888290 -0.536035
O14   O     O_R   0.952380 0.035540 0.111710 -0.536018
C45   C     C_R   0.063797 0.368385 0.862363 0.679136
C46   C     C_R   0.936199 0.868401 0.137633 0.679205
O15   O     O_R   0.912040 0.532780 0.904220 -0.552865
O16   O     O_R   0.087960 0.032780 0.095780 -0.552849
O17   O     O_R   0.949550 0.708160 0.099720 -0.541157
O18   O     O_R   0.050450 0.208160 0.900280 -0.541133
C47   C     C_R   0.885166 0.364395 0.883447 0.699500
C48   C     C_R   0.114832 0.864391 0.116559 0.699502
O19   O     O_3   0.012480 0.375300 0.064060 -0.374858
O20   O     O_3   0.987520 0.875300 0.935940 -0.374868
V3    V     V_3+5 0.997690 0.648180 0.988110 1.473895
V4    V     V_3+5 0.002310 0.148180 0.011890 1.473957
H11   H     H_    0.298048 0.139184 0.337517 0.128687
H12   H     H_    0.701962 0.639143 0.662435 0.128700
O21   O     O_3   0.197774 0.533563 0.145616 -0.648468
H13   H     H_    0.231862 0.433197 0.161828 0.265093
O22   O     O_3   0.802199 0.033639 0.854497 -0.648416
H14   H     H_    0.768111 0.933278 0.838292 0.265119
H15   H     H_    0.695055 0.824531 0.982445 0.131990
H16   H     H_    0.304967 0.325906 0.017594 0.132011
O23   O     O_3   0.570890 0.862116 0.008901 -0.633983
H17   H     H_    0.595844 0.940544 0.969751 0.283011
O24   O     O_3   0.429107 0.363817 0.991075 -0.633960
H18   H     H_    0.404091 0.442339 0.030096 0.283058
H19   H     H_    0.695528 0.860552 0.392497 0.106009
H20   H     H_    0.304457 0.359783 0.607485 0.105995
H21   H     H_    0.985802 0.880362 0.336162 0.103449
H22   H     H_    0.014181 0.379552 0.663818 0.103437
H23   H     H_    0.922053 0.888097 0.470383 0.121919
H24   H     H_    0.077921 0.386889 0.529579 0.121921

loop_
_geom_bond_atom_site_label_1
_geom_bond_atom_site_label_2
_ccdc_geom_bond_type
C16   C18   A    
O22   H14   S    
C41   C43   A    
O24   H18   S    
C9    C31   A    
C13   C15   A    
O11   C47   A    
O2    C4    A    
C2    O7    A    
O3    V1    S    
C27   H19   S    
O21   H13   S    
O5    C3    A    
C1    C38   S    
C10   H22   S    
O12   V3    S    
C21   C23   A    
C10   C12   A    
C45   O18   A    
C37   C39   A    
C38   C40   A    
C15   C19   A    
C40   H10   S    
C33   C43   A    
O13   C45   A    
C7    C29   A    
C11   H23   S    
C8    C30   A    
H1    C29   S    
C20   C28   A    
O1    C3    A    
C42   O22   S    
C33   C35   A    
O5    V1    S    
O6    V2    S    
C41   O21   S    
C31   C46   S    
C2    C37   S    
C18   C32   A    
O16   V4    S    
C46   O17   A    
O15   V3    S    
H2    C30   S    
C34   H8    S    
C36   H12   S    
O12   C48   A    
C39   H9    S    
C16   C20   A    
O4    C2    A    
O18   V4    S    
O23   H17   S    
O17   V3    S    
C4    C7    S    
C33   H7    S    
C42   C44   A    
O4    V2    S    
C5    C29   A    
C6    C30   A    
O6    C4    A    
O1    V2    S    
O2    V1    S    
C32   C45   S    
C7    C27   A    
C9    H21   S    
C35   C37   A    
C17   C31   A    
C28   H20   S    
C5    O23   S    
C35   H11   S    
C34   C44   A    
C13   H3    S    
C44   C47   S    
C14   H4    S    
C43   C48   S    
C25   H5    S    
C39   C41   A    
O20   V3    S    
O3    C1    A    
O19   V4    S    
C11   C13   A    
C24   H16   S    
C3    C8    S    
C12   C14   A    
C23   H15   S    
C40   C42   A    
C10   C32   A    
C14   C16   A    
O7    V1    S    
C19   C27   A    
C1    O8    A    
C23   C25   A    
O8    V2    S    
C24   C26   A    
C8    C28   A    
C26   H6    S    
C22   C24   A    
C19   C21   A    
C36   C38   A    
C20   C22   A    
C18   C26   A    
O14   V4    S    
O13   V3    S    
C9    C11   A    
O11   V4    S    
C15   C17   A    
O16   C48   A    
O9    V2    S    
C17   C25   A    
C6    O24   S    
O15   C47   A    
O10   V1    S    
O14   C46   A    
C5    C21   A    
C6    C22   A    
C34   C36   A    
C12   H24   S    
