data_mof_unit_16124.cif
_audit_creation_date              2012-12-10T17:03:40-0500
_audit_creation_method            fapswitch 2.2
_symmetry_space_group_name_H-M    P1
_symmetry_Int_Tables_number       1
_space_group_crystal_system       triclinic
_cell_length_a                    10.089902
_cell_length_b                    10.707701
_cell_length_c                    13.006477
_cell_angle_alpha                 90.145429
_cell_angle_beta                  73.052412
_cell_angle_gamma                 88.359919
_cell_volume                      1343.5516442

loop_
_atom_site_label
_atom_site_type_symbol
_atom_type_description
_atom_site_fract_x
_atom_site_fract_y
_atom_site_fract_z
_atom_type_partial_charge
C1    C     C_R   0.500620 0.736897 0.492972 0.764992
C2    C     C_R   0.436152 0.607770 0.978507 0.060406
C3    C     C_R   0.476679 0.605307 0.866000 -0.095680
C4    C     C_R   0.541441 0.577154 0.026959 0.021053
C5    C     C_R   0.682380 0.569842 0.962894 0.010530
C6    C     C_R   0.716368 0.628359 0.861479 0.120635
C7    C     C_R   0.609353 0.649250 0.813206 0.234924
C8    C     C_R   0.509516 0.538852 0.132904 -0.288284
C9    C     C_R   0.749148 0.485676 0.114617 0.619412
C10   C     C_R   0.380004 0.570310 0.812883 -0.233711
C11   C     C_2   0.620798 0.062500 0.441432 0.155842
C12   C     C_R   0.424908 0.519632 0.701667 0.901147
C13   C     C_2   0.509329 0.129829 0.499727 -0.218572
C14   C     C_2   0.620035 0.928491 0.454487 -0.319287
C15   C     C_2   0.503533 0.866480 0.467762 0.450177
C16   C     C_2   0.105021 0.454728 0.421917 0.553880
C17   C     C_2   0.953946 0.438370 0.430810 0.652706
C18   C     C_R   0.502820 0.262618 0.498399 0.881964
C19   C     C_R   0.574717 0.497750 0.296226 0.915841
C20   C     C_R   0.781170 0.506015 0.003964 0.013815
C21   C     C_R   0.613639 0.507807 0.179711 -0.233571
C22   C     C_R   0.238698 0.586466 0.867807 0.563664
C23   C     C_R   0.196431 0.623878 0.975499 -0.221525
C24   C     C_R   0.293456 0.634178 0.033035 0.136821
H1    H     H_    0.420054 0.086412 0.553828 0.173575
H2    H     H_    0.716022 0.881596 0.457044 0.178380
H3    H     H_    0.076274 0.512043 0.572641 0.180007
H4    H     H_    0.403124 0.530979 0.179808 0.254723
H5    H     H_    0.087658 0.645655 0.014132 0.180087
N1    N     N_2   0.148270 0.498670 0.498870 -0.228583
N2    N     N_2   0.852610 0.498640 0.498840 0.051489
O1    O     O_R   0.386950 0.680940 0.500020 -0.555736
O2    O     O_R   0.613110 0.680900 0.499980 -0.629888
O3    O     O_R   0.330780 0.500000 0.653640 -0.553239
O4    O     O_R   0.556930 0.499960 0.653610 -0.598086
O5    O     O_R   0.386890 0.319100 0.500020 -0.580522
O6    O     O_R   0.613050 0.319060 0.499980 -0.604649
O7    O     O_R   0.443070 0.500040 0.346390 -0.573311
O8    O     O_R   0.669220 0.500000 0.346360 -0.531307
Zn1   Zn    Zn3+2 0.349000 0.500030 0.500020 1.064197
Zn2   Zn    Zn3+2 0.651000 0.499970 0.499980 1.064130
F1    F     F_    0.846597 0.434690 0.156657 -0.617163
F2    F     F_    0.388839 0.920336 0.448834 -0.640348
F3    F     F_    0.199905 0.413000 0.330401 -0.620924
F4    F     F_    0.924095 0.360144 0.359049 -0.619312
F5    F     F_    0.887576 0.601201 0.542045 -0.677918
C25   C     C_3   0.856712 0.684224 0.814087 -0.753310
H6    H     H_    0.845819 0.784356 0.795698 0.231396
H7    H     H_    0.917998 0.682198 0.872189 0.275852
H8    H     H_    0.914046 0.633407 0.739232 0.291517
C26   C     C_3   0.904000 0.433815 0.932751 -0.700474
H9    H     H_    0.919681 0.449734 0.846037 0.259832
H10   H     H_    0.998257 0.455021 0.955446 0.286192
H11   H     H_    0.886570 0.332406 0.945846 0.230861
F6    F     F_    0.142608 0.576877 0.814545 -0.701115
C27   C     C_3   0.242943 0.694848 0.142970 -0.806768
H12   H     H_    0.184495 0.627109 0.202377 0.275594
H13   H     H_    0.329257 0.732735 0.169140 0.248919
H14   H     H_    0.172362 0.775850 0.141137 0.242194
C28   C     C_3   0.623071 0.746222 0.726934 -0.784451
H15   H     H_    0.640271 0.838682 0.758786 0.211557
H16   H     H_    0.711259 0.722759 0.656267 0.321192
H17   H     H_    0.527340 0.757510 0.702059 0.203330
C29   C     C_3   0.749772 0.118157 0.368584 -0.650606
H18   H     H_    0.817609 0.044834 0.316944 0.222237
H19   H     H_    0.722444 0.188554 0.314927 0.259944
H20   H     H_    0.809341 0.161088 0.418129 0.273325

loop_
_geom_bond_atom_site_label_1
_geom_bond_atom_site_label_2
_ccdc_geom_bond_type
C2    C4    A    
C23   C24   A    
C18   O5    A    
C6    C7    A    
C1    C15   S    
C19   O7    A    
C24   C27   S    
C16   F3    S    
C9    C20   A    
C25   H6    S    
C27   H14   S    
C4    C8    A    
C26   H11   S    
O2    Zn2   S    
C29   H18   S    
C8    C21   A    
N1    Zn1   S    
C20   C26   S    
C25   H7    S    
C3    C10   A    
C10   C22   A    
H3    N1    S    
O7    Zn1   S    
C11   C13   D    
C9    C21   A    
C9    F1    S    
C22   F6    S    
C10   C12   S    
C13   C18   S    
C28   H17   S    
O3    Zn1   S    
C23   H5    S    
C28   H16   S    
C19   C21   S    
C18   O6    A    
C17   F4    S    
C2    C3    A    
C25   H8    S    
C3    C7    A    
O1    Zn1   S    
O6    Zn2   S    
C5    C6    A    
O4    Zn2   S    
C11   C14   S    
C12   O4    A    
C16   C17   S    
C6    C25   S    
C1    O2    A    
C16   N1    D    
C15   F2    S    
C26   H9    S    
C29   H20   S    
C7    C28   S    
O5    Zn1   S    
C27   H12   S    
O8    Zn2   S    
C8    H4    S    
C19   O8    A    
C11   C29   S    
C5    C20   A    
C14   C15   D    
C28   H15   S    
C2    C24   A    
N2    Zn2   S    
C22   C23   A    
C12   O3    A    
C1    O1    A    
C14   H2    S    
C17   N2    D    
C13   H1    S    
C27   H13   S    
C4    C5    A    
C26   H10   S    
N2    F5    S    
C29   H19   S    
