data_mof_unit_36657.cif
_audit_creation_date              2012-12-10T17:56:41-0500
_audit_creation_method            fapswitch 2.2
_symmetry_space_group_name_H-M    P1
_symmetry_Int_Tables_number       1
_space_group_crystal_system       triclinic
_cell_length_a                    10.980863
_cell_length_b                    9.598556
_cell_length_c                    10.856258
_cell_angle_alpha                 89.124396
_cell_angle_beta                  90.973316
_cell_angle_gamma                 90.833871
_cell_volume                      1143.83862226

loop_
_atom_site_label
_atom_site_type_symbol
_atom_type_description
_atom_site_fract_x
_atom_site_fract_y
_atom_site_fract_z
_atom_type_partial_charge
C1    C     C_R   0.262825 0.498609 0.507745 0.792527
C2    C     C_R   0.737817 0.500718 0.499560 0.795970
C3    C     C_R   0.939536 0.622587 0.536643 -0.076845
C4    C     C_R   0.066676 0.619236 0.545892 -0.074064
C5    C     C_R   0.431551 0.073312 0.415520 0.078716
C6    C     C_R   0.569056 0.072949 0.583827 0.067165
C7    C     C_R   0.432772 0.925322 0.415241 -0.042214
C8    C     C_R   0.565789 0.924907 0.585708 -0.027112
C9    C     C_R   0.506387 0.501989 0.262343 0.800670
C10   C     C_R   0.490499 0.499451 0.737148 0.783956
C11   C     C_R   0.536419 0.764176 0.103664 -0.228173
C12   C     C_R   0.414664 0.745448 0.878500 -0.216279
C13   C     C_R   0.515159 0.885501 0.033678 0.121081
C14   C     C_R   0.439860 0.877001 0.926435 0.110016
C15   C     C_R   0.463057 0.625548 0.934965 0.072254
C16   C     C_R   0.501544 0.632701 0.058435 0.071501
C17   C     C_R   0.510565 0.506900 0.127549 -0.095778
C18   C     C_R   0.479272 0.500259 0.871398 -0.100012
C19   C     C_R   0.510912 0.380888 0.065626 -0.200934
C20   C     C_R   0.503856 0.378777 0.938248 -0.206031
C21   C     C_R   0.061503 0.371000 0.500425 -0.071150
C22   C     C_R   0.935414 0.375333 0.483198 -0.069168
C23   C     C_R   0.872405 0.500836 0.503639 -0.146512
C24   C     C_R   0.129002 0.495749 0.519297 -0.152314
Cu1   Cu    Cu3+1 0.500000 0.640660 0.500000 0.959844
Cu2   Cu    Cu3+1 0.500000 0.359340 0.500000 0.979290
H1    H     H_    0.520274 0.285007 0.116965 0.167004
H2    H     H_    0.517844 0.283026 0.891199 0.165805
H3    H     H_    0.590603 0.773420 0.187143 0.173927
H4    H     H_    0.359289 0.736961 0.795534 0.173075
H5    H     H_    0.378813 0.868865 0.347536 0.134663
H6    H     H_    0.616888 0.868062 0.655606 0.148052
N1    N     N_R   0.500000 0.852070 0.500000 -0.174162
N2    N     N_R   0.500000 0.147940 0.500000 -0.204048
O1    O     O_R   0.319640 0.618740 0.499990 -0.575443
O2    O     O_R   0.680360 0.618740 0.500010 -0.576481
O3    O     O_R   0.319620 0.381170 0.499990 -0.573013
O4    O     O_R   0.680380 0.381170 0.500010 -0.570286
O5    O     O_R   0.500000 0.618810 0.319650 -0.597742
O6    O     O_R   0.500000 0.618810 0.680350 -0.593008
O7    O     O_R   0.499970 0.381240 0.319640 -0.581330
O8    O     O_R   0.500030 0.381240 0.680360 -0.589190
C25   C     C_3   0.578376 0.017833 0.073317 -0.452736
C26   C     C_3   0.717563 0.006846 0.068129 -0.331547
C27   C     C_3   0.779151 0.149059 0.085213 -0.789865
H7    H     H_    0.755393 0.219913 0.006933 0.262125
H8    H     H_    0.749616 0.196601 0.172091 0.262964
H9    H     H_    0.879555 0.137047 0.088890 0.246855
H10   H     H_    0.751007 0.934775 0.141826 0.223967
H11   H     H_    0.744071 0.965358 0.977472 0.230842
H12   H     H_    0.552126 0.102490 0.010744 0.204485
H13   H     H_    0.550660 0.043504 0.168111 0.192201
C28   C     C_3   0.388984 0.002277 0.857634 -0.430229
C29   C     C_3   0.293885 0.076739 0.933731 -0.337672
C30   C     C_3   0.226763 0.186556 0.856477 -0.782141
H14   H     H_    0.292112 0.261640 0.814135 0.254593
H15   H     H_    0.171970 0.135827 0.782358 0.268550
H16   H     H_    0.164342 0.244519 0.915925 0.242545
H17   H     H_    0.225984 0.999622 0.969144 0.231363
H18   H     H_    0.338625 0.127916 0.013734 0.231210
H19   H     H_    0.463513 0.073625 0.830008 0.177276
H20   H     H_    0.344989 0.969817 0.769615 0.232746
C31   C     C_1   0.117373 0.234854 0.507982 0.300922
N3    N     N_1   0.159683 0.125377 0.515564 -0.269980
C32   C     C_1   0.873768 0.248784 0.441225 0.294847
N4    N     N_1   0.825677 0.147635 0.408112 -0.274989
C33   C     C_1   0.881684 0.754208 0.560996 0.295300
N5    N     N_1   0.838722 0.860761 0.580351 -0.285500
C34   C     C_1   0.131303 0.741890 0.591505 0.285071
N6    N     N_1   0.182100 0.839557 0.628189 -0.291065
C35   C     C_1   0.355667 0.142861 0.325267 0.283896
N7    N     N_1   0.293849 0.197870 0.252696 -0.315415
C36   C     C_1   0.649407 0.142424 0.669827 0.295614
N8    N     N_1   0.714755 0.197281 0.739048 -0.310457

loop_
_geom_bond_atom_site_label_1
_geom_bond_atom_site_label_2
_ccdc_geom_bond_type
C26   H10   S    
C15   C18   A    
C25   C26   S    
C5    C7    A    
Cu2   O3    S    
C28   C29   S    
C31   N3    T    
C10   O8    A    
C19   H1    S    
C28   H20   S    
C2    O4    A    
C22   C32   S    
C3    C23   A    
C19   C20   A    
C12   C15   A    
C1    O3    A    
C30   H14   S    
C6    N2    A    
C5    N2    A    
Cu1   N1    S    
C27   H8    S    
C35   N7    T    
C5    C35   S    
C29   H18   S    
C13   C14   A    
Cu1   O5    S    
C11   C13   A    
C25   H12   S    
C22   C23   A    
C28   H19   S    
C1    C24   S    
C4    C24   A    
C9    C17   S    
C4    C34   S    
C17   C19   A    
Cu1   O1    S    
C18   C20   A    
C8    N1    A    
C30   H15   S    
Cu1   O6    S    
C34   N6    T    
C10   C18   S    
C25   H13   S    
C21   C24   A    
C11   C16   A    
C21   C31   S    
C7    N1    A    
Cu1   O2    S    
C26   H11   S    
C15   C16   A    
C8    H6    S    
C20   H2    S    
C27   H7    S    
C29   H17   S    
C13   C25   S    
C14   C28   S    
C7    H5    S    
C26   C27   S    
C11   H3    S    
C6    C36   S    
C10   O6    A    
C32   N4    T    
C36   N8    T    
C30   H16   S    
C2    O2    A    
C2    C23   S    
Cu2   O8    S    
C1    O1    A    
C29   C30   S    
Cu2   O4    S    
C6    C8    A    
C27   H9    S    
C12   H4    S    
Cu1   Cu2   S    
C21   C22   A    
C9    O7    A    
Cu2   N2    S    
C9    O5    A    
C3    C33   S    
C3    C4    A    
C33   N5    T    
Cu2   O7    S    
C12   C14   A    
C16   C17   A    
