data_mof_unit_25716.cif
_audit_creation_date              2012-12-11T15:11:46-0500
_audit_creation_method            fapswitch 2.2
_symmetry_space_group_name_H-M    P1
_symmetry_Int_Tables_number       1
_space_group_crystal_system       triclinic
_cell_length_a                    20.16833
_cell_length_b                    7.09991
_cell_length_c                    13.473785
_cell_angle_alpha                 89.997406
_cell_angle_beta                  103.573563
_cell_angle_gamma                 90.002885
_cell_volume                      1875.46802526

loop_
_atom_site_label
_atom_site_type_symbol
_atom_type_description
_atom_site_fract_x
_atom_site_fract_y
_atom_site_fract_z
_atom_type_partial_charge
O1    O     O_R   0.449830 0.506740 0.599960 -0.535941
O2    O     O_R   0.550170 0.006740 0.400040 -0.535938
O3    O     O_R   0.588980 0.179860 0.596720 -0.547300
O4    O     O_R   0.411020 0.679860 0.403280 -0.547301
C1    C     C_R   0.616230 0.344213 0.619545 0.666552
C2    C     C_R   0.383770 0.844211 0.380455 0.666547
O5    O     O_R   0.452740 0.177340 0.612040 -0.539092
O6    O     O_R   0.547260 0.677340 0.387960 -0.539092
O7    O     O_R   0.412960 0.002070 0.415460 -0.540905
O8    O     O_R   0.587040 0.502070 0.584540 -0.540907
C3    C     C_R   0.436572 0.345687 0.638698 0.690165
C4    C     C_R   0.563428 0.845700 0.361303 0.690166
O9    O     O_3   0.487110 0.337570 0.435490 -0.373504
O10   O     O_3   0.512890 0.837570 0.564510 -0.373504
V1    V     V_3+5 0.502390 0.064650 0.511970 1.393633
V2    V     V_3+5 0.497610 0.564650 0.488030 1.393627
C5    C     C_R   0.608812 0.856217 0.106797 -0.163638
C6    C     C_R   0.391187 0.355250 0.893211 -0.163648
H1    H     H_    0.515264 0.852119 0.156585 0.099177
H2    H     H_    0.484734 0.351040 0.843423 0.099180
H3    H     H_    0.691717 0.859469 0.980495 0.117814
H4    H     H_    0.308282 0.358214 0.019514 0.117859
H5    H     H_    0.582470 0.856975 0.026811 0.111531
H6    H     H_    0.417527 0.355529 0.973199 0.111532
C7    C     C_R   0.603174 0.853147 0.283710 -0.027233
C8    C     C_R   0.396828 0.353067 0.716295 -0.027243
C9    C     C_R   0.931964 0.857171 0.318949 -0.153526
C10   C     C_R   0.068039 0.357689 0.681046 -0.153563
C11   C     C_R   0.896630 0.852129 0.395826 -0.099331
C12   C     C_R   0.103373 0.352844 0.604166 -0.099234
C13   C     C_R   0.825555 0.851055 0.371772 -0.154792
C14   C     C_R   0.174448 0.351575 0.628223 -0.154754
C15   C     C_R   0.787636 0.854689 0.268834 0.071045
C16   C     C_R   0.212365 0.354813 0.731166 0.071053
C17   C     C_R   0.824314 0.857885 0.190310 0.070364
C18   C     C_R   0.175686 0.357752 0.809691 0.070385
C19   C     C_R   0.714719 0.855217 0.241184 0.074682
C20   C     C_R   0.285282 0.355160 0.758818 0.074688
C21   C     C_R   0.680390 0.856798 0.136045 0.147097
C22   C     C_R   0.319610 0.356175 0.863960 0.147107
C23   C     C_R   0.717555 0.858560 0.060735 -0.217678
C24   C     C_R   0.282444 0.357703 0.939271 -0.217729
C25   C     C_R   0.788304 0.859415 0.087249 -0.206949
C26   C     C_R   0.211696 0.358833 0.912755 -0.206976
C27   C     C_R   0.674401 0.854150 0.314100 -0.215717
C28   C     C_R   0.325602 0.354434 0.685903 -0.215720
C29   C     C_R   0.570451 0.853813 0.180285 -0.177308
C30   C     C_R   0.429549 0.353072 0.819723 -0.177295
C31   C     C_R   0.896578 0.859978 0.216566 -0.080729
C32   C     C_R   0.103424 0.360057 0.783434 -0.080780
H7    H     H_    0.696439 0.853081 0.395098 0.087752
H8    H     H_    0.303565 0.353865 0.604901 0.087762
H9    H     H_    0.987238 0.858742 0.339323 0.143980
H10   H     H_    0.012767 0.359448 0.660673 0.144081
H11   H     H_    0.802094 0.847015 0.435740 0.114145
H12   H     H_    0.197909 0.347677 0.564254 0.114089
H13   H     H_    0.924563 0.849453 0.474959 0.156389
H14   H     H_    0.075440 0.350481 0.525029 0.156233
H15   H     H_    0.814612 0.860916 0.025864 0.107172
H16   H     H_    0.185388 0.360163 0.974141 0.107205
C33   C     C_3   0.217941 0.657895 0.194008 -0.341877
C34   C     C_3   0.782070 0.157873 0.805948 -0.341908
H17   H     H_    0.184615 0.556680 0.222548 0.140368
H18   H     H_    0.815405 0.056709 0.777401 0.140388
H19   H     H_    0.220421 0.610903 0.116157 0.144892
H20   H     H_    0.779584 0.110817 0.883786 0.144857
C35   C     C_3   0.290234 0.651876 0.264903 -0.314729
C36   C     C_3   0.709781 0.151849 0.735041 -0.314711
H21   H     H_    0.326957 0.600217 0.220967 0.134690
H22   H     H_    0.673060 0.100073 0.778955 0.134654
H23   H     H_    0.290616 0.548923 0.327383 0.136679
H24   H     H_    0.709412 0.048976 0.672533 0.136688
H25   H     H_    0.155565 0.810541 0.331216 0.126981
H26   H     H_    0.844427 0.310704 0.668762 0.127013
H27   H     H_    0.261588 0.818211 0.436356 0.130048
H28   H     H_    0.738404 0.318459 0.563623 0.130066
C37   C     C_3   0.186296 0.917734 0.301290 -0.112121
C38   C     C_3   0.813699 0.417849 0.698718 -0.112112
C39   C     C_3   0.236817 0.992050 0.148833 -0.329656
C40   C     C_3   0.763179 0.491968 0.851195 -0.329580
C41   C     C_3   0.187302 0.859729 0.189211 0.052489
C42   C     C_3   0.812698 0.359730 0.810786 0.052479
H29   H     H_    0.217464 0.139206 0.141911 0.129349
H30   H     H_    0.782522 0.639139 0.858135 0.129369
H31   H     H_    0.239673 0.947159 0.070795 0.146097
H32   H     H_    0.760333 0.447017 0.929229 0.146073
C43   C     C_3   0.312592 0.849983 0.310595 0.110578
C44   C     C_3   0.687408 0.349988 0.689405 0.110578
C45   C     C_3   0.260033 0.915330 0.370976 -0.371998
C46   C     C_3   0.739959 0.415476 0.629040 -0.372033
C47   C     C_3   0.309400 0.988257 0.220360 -0.333163
C48   C     C_3   0.690592 0.488152 0.779679 -0.333142
H33   H     H_    0.347053 0.945365 0.176066 0.126765
H34   H     H_    0.652949 0.445145 0.823972 0.126785
H35   H     H_    0.323360 0.132834 0.249917 0.140624
H36   H     H_    0.676614 0.632748 0.750164 0.140619
H37   H     H_    0.275082 0.056832 0.404556 0.126886
H38   H     H_    0.724903 0.557014 0.595514 0.126864
O11   O     O_R   0.912980 0.203550 0.915410 -0.544698
O12   O     O_R   0.087020 0.703550 0.084590 -0.544697
O13   O     O_R   0.047270 0.535570 0.887960 -0.529659
O14   O     O_R   0.952730 0.035570 0.112040 -0.529658
C49   C     C_R   0.063791 0.368179 0.861568 0.701638
C50   C     C_R   0.936213 0.868165 0.138435 0.701652
O15   O     O_R   0.911030 0.532970 0.903270 -0.540658
O16   O     O_R   0.088970 0.032970 0.096730 -0.540678
O17   O     O_R   0.949820 0.708150 0.099970 -0.541193
O18   O     O_R   0.050180 0.208150 0.900030 -0.541180
C51   C     C_R   0.883834 0.365018 0.881628 0.663919
C52   C     C_R   0.116167 0.865020 0.118369 0.663895
O19   O     O_3   0.012900 0.375230 0.064480 -0.371086
O20   O     O_3   0.987100 0.875230 0.935520 -0.371064
V3    V     V_3+5 0.997610 0.648190 0.988040 1.450552
V4    V     V_3+5 0.002390 0.148190 0.011960 1.450525
C53   C     C_2   0.153630 0.107545 0.307728 0.359887
H39   H     H_    0.177013 0.234406 0.286807 0.039639
O21   O     O_2   0.101088 0.120092 0.337446 -0.549038
C54   C     C_2   0.846362 0.607687 0.692319 0.359816
H40   H     H_    0.822973 0.734514 0.713255 0.039665
O22   O     O_2   0.898908 0.620293 0.662613 -0.549111

loop_
_geom_bond_atom_site_label_1
_geom_bond_atom_site_label_2
_ccdc_geom_bond_type
C20   C22   A    
O12   C52   A    
C43   C47   S    
C9    C11   A    
O13   V3    S    
O1    C3    A    
C40   H30   S    
O2    C4    A    
O11   V4    S    
O20   V4    S    
O3    V1    S    
C21   C23   A    
C38   C46   S    
O5    C3    A    
C37   C45   S    
C5    H5    S    
O16   V4    S    
C6    H6    S    
O15   V3    S    
C38   C54   S    
H1    C29   S    
C35   H23   S    
C27   H7    S    
C53   H39   S    
O11   C51   A    
C28   H8    S    
C48   H36   S    
C5    C21   A    
O18   V4    S    
C33   H17   S    
C33   C35   S    
C54   H40   S    
O17   V3    S    
C6    C22   A    
C1    C44   S    
C10   C32   A    
C44   C48   S    
C53   O21   D    
C17   C31   A    
C40   H32   S    
C13   C15   A    
C49   O18   A    
C12   C14   A    
C17   C25   A    
C7    C29   A    
C39   C47   S    
C8    C30   A    
O5    V1    S    
C34   C42   S    
C32   C49   S    
O6    V2    S    
C23   C25   A    
C24   C26   A    
C2    O7    A    
O20   V3    S    
C19   C21   A    
C34   H20   S    
C42   C51   S    
C40   C42   S    
C39   C41   S    
C10   H10   S    
C3    C8    S    
C15   C19   A    
C2    C43   S    
C45   H37   S    
C36   H24   S    
C35   H21   S    
C14   C16   A    
C40   C48   S    
O14   V4    S    
C47   H33   S    
C38   C42   S    
C37   C41   S    
O6    C4    A    
C48   H34   S    
O19   V3    S    
O1    V2    S    
O14   C50   A    
O2    V1    S    
H2    C30   S    
H3    C23   S    
O4    C2    A    
C11   H13   S    
C43   C45   S    
C36   C44   S    
C18   C26   A    
O4    V2    S    
C19   C27   A    
C7    C27   A    
C39   H31   S    
C18   C32   A    
O16   C52   A    
O15   C51   A    
C16   C20   A    
O12   V3    S    
C5    C29   A    
C44   C46   S    
O3    C1    A    
C6    C30   A    
C9    H9    S    
O9    V2    S    
C25   H15   S    
C35   C43   S    
O13   C49   A    
C34   C36   S    
C4    C7    S    
C31   C50   S    
C10   C12   A    
C34   H18   S    
O7    V1    S    
C1    O8    A    
C11   C13   A    
O8    V2    S    
C39   H29   S    
H4    C24   S    
C26   H16   S    
C12   H14   S    
C22   C24   A    
C15   C17   A    
C14   H12   S    
O19   V4    S    
C16   C18   A    
C54   O22   D    
C20   C28   A    
C8    C28   A    
C47   H35   S    
C33   H19   S    
C41   C52   S    
C36   H22   S    
H26   C38   S    
H27   C45   S    
H25   C37   S    
O10   V1    S    
C33   C41   S    
C13   H11   S    
C37   C53   S    
C46   H38   S    
C50   O17   A    
C9    C31   A    
H28   C46   S    
