data_mof_unit_9421.cif
_audit_creation_date              2012-12-10T17:21:09-0500
_audit_creation_method            fapswitch 2.2
_symmetry_space_group_name_H-M    P1
_symmetry_Int_Tables_number       1
_space_group_crystal_system       triclinic
_cell_length_a                    10.238652
_cell_length_b                    10.772839
_cell_length_c                    10.635689
_cell_angle_alpha                 90.597755
_cell_angle_beta                  94.520116
_cell_angle_gamma                 81.946003
_cell_volume                      1157.92565235

loop_
_atom_site_label
_atom_site_type_symbol
_atom_type_description
_atom_site_fract_x
_atom_site_fract_y
_atom_site_fract_z
_atom_type_partial_charge
C1    C     C_R   0.445099 0.507153 0.266459 0.943851
C2    C     C_3   0.491739 0.878099 0.486025 -0.051597
C3    C     C_3   0.572977 0.917867 0.603707 -0.459518
C4    C     C_3   0.344706 0.944363 0.490365 -0.216940
C5    C     C_2   0.415461 0.496556 0.131678 0.047630
C6    C     C_2   0.502256 0.418367 0.069373 -0.091533
C7    C     C_2   0.580862 0.466560 0.869444 0.039469
C8    C     C_2   0.494096 0.411594 0.933159 0.151147
C9    C     C_2   0.068909 0.513210 0.470799 -0.022879
C10   C     C_2   0.922619 0.527818 0.488305 0.070357
C11   C     C_R   0.496250 0.258423 0.491213 0.913780
C12   C     C_R   0.554323 0.487871 0.733832 0.986942
C13   C     C_R   0.498147 0.741492 0.493239 0.863988
C14   C     C_3   0.541430 0.061800 0.352408 0.155663
C15   C     C_3   0.552746 0.915591 0.365362 -0.394875
C16   C     C_3   0.590244 0.055929 0.593741 -0.208743
C17   C     C_3   0.340050 0.090767 0.499588 0.014236
C18   C     C_3   0.489856 0.121621 0.483812 -0.104699
H1    H     H_    0.310394 0.911541 0.579348 0.178370
H2    H     H_    0.523722 0.897455 0.689101 0.246354
H3    H     H_    0.589048 0.365019 0.118536 0.146705
H4    H     H_    0.103350 0.474136 0.383266 0.127933
H5    H     H_    0.510019 0.869553 0.281409 0.229638
H6    H     H_    0.658516 0.872730 0.372287 0.227184
H7    H     H_    0.691558 0.054568 0.565003 0.173902
H8    H     H_    0.672400 0.862193 0.612423 0.209957
N1    N     N_2   0.157300 0.551950 0.551120 -0.043366
N2    N     N_2   0.842730 0.448000 0.448950 -0.092936
O1    O     O_R   0.568940 0.489540 0.307530 -0.645500
O2    O     O_R   0.348880 0.522880 0.340350 -0.606817
O3    O     O_R   0.610030 0.298130 0.483570 -0.589471
O4    O     O_R   0.389960 0.331470 0.516390 -0.602857
O5    O     O_R   0.651120 0.477120 0.659650 -0.525554
O6    O     O_R   0.431060 0.510460 0.692470 -0.645531
O7    O     O_R   0.610040 0.668530 0.483610 -0.609996
O8    O     O_R   0.389970 0.701870 0.516430 -0.613144
Zn1   Zn    Zn3+2 0.646940 0.477740 0.478080 1.001418
Zn2   Zn    Zn3+2 0.353060 0.522260 0.521920 0.986058
C19   C     C_3   0.679225 0.091907 0.318304 -0.919119
H9    H     H_    0.762076 0.062681 0.389365 0.254327
H10   H     H_    0.707291 0.040759 0.230809 0.242812
H11   H     H_    0.676314 0.192396 0.296097 0.253339
C20   C     C_2   0.603157 0.118906 0.722167 0.892808
O9    O     O_2   0.653781 0.214995 0.731714 -0.646395
O10   O     O_R   0.573163 0.061373 0.831712 -0.750478
H12   H     H_    0.591781 0.111387 0.910812 0.351292
C21   C     C_3   0.383449 0.347053 0.871917 -0.764638
H13   H     H_    0.356755 0.275865 0.936469 0.250484
H14   H     H_    0.294281 0.415731 0.848230 0.229614
H15   H     H_    0.413517 0.298328 0.785000 0.259251
C22   C     C_3   0.699726 0.513778 0.937342 -0.916997
H16   H     H_    0.759098 0.556122 0.871392 0.287910
H17   H     H_    0.667099 0.586438 0.007424 0.248441
H18   H     H_    0.764496 0.434756 0.986391 0.251422
C23   C     C_3   0.293662 0.573030 0.068188 -0.863736
H19   H     H_    0.245095 0.641171 0.134997 0.264798
H20   H     H_    0.320735 0.626887 0.987999 0.252366
H21   H     H_    0.221164 0.510436 0.034068 0.245249
C24   C     C_2   0.867827 0.643536 0.550276 0.954207
O11   O     O_2   0.871948 0.744830 0.501084 -0.664311
O12   O     O_R   0.825565 0.637464 0.671278 -0.817610
H22   H     H_    0.813924 0.721542 0.715302 0.318050
C25   C     C_3   0.887147 0.334232 0.381452 -0.624489
H23   H     H_    0.826600 0.333737 0.290413 0.201355
H24   H     H_    0.991182 0.323595 0.359409 0.177805
H25   H     H_    0.873212 0.252203 0.438422 0.238804
C26   C     C_2   0.452240 0.110120 0.236261 0.915091
O13   O     O_2   0.416628 0.222660 0.223725 -0.698807
O14   O     O_R   0.417930 0.029068 0.139309 -0.759336
H26   H     H_    0.360628 0.074348 0.067154 0.362383
C27   C     C_3   0.126720 0.597559 0.675901 -0.562922
H27   H     H_    0.218539 0.603370 0.735554 0.220798
H28   H     H_    0.075902 0.695400 0.670992 0.220609
H29   H     H_    0.070258 0.533268 0.723423 0.198719
C28   C     C_2   0.291077 0.134944 0.629117 0.928094
O15   O     O_2   0.328779 0.074506 0.724931 -0.631366
O16   O     O_R   0.196255 0.241563 0.637507 -0.781838
H30   H     H_    0.166297 0.256274 0.725679 0.340560
C29   C     C_3   0.229548 0.155623 0.400329 -0.795080
H31   H     H_    0.130679 0.140866 0.428830 0.234455
H32   H     H_    0.227676 0.257595 0.390406 0.274553
H33   H     H_    0.231021 0.116522 0.304429 0.249942
C30   C     C_2   0.246608 0.896589 0.391054 0.934800
O17   O     O_2   0.271629 0.883489 0.280880 -0.626409
O18   O     O_R   0.127144 0.865897 0.428458 -0.775750
H34   H     H_    0.070404 0.834261 0.355939 0.356316

loop_
_geom_bond_atom_site_label_1
_geom_bond_atom_site_label_2
_ccdc_geom_bond_type
C23   H19   S    
C25   H24   S    
C11   C18   S    
C14   C18   S    
C28   O15   D    
C7    C8    D    
C19   H10   S    
O16   H30   S    
C1    C5    S    
O7    Zn1   S    
C13   O7    A    
O18   H34   S    
C5    C6    D    
C9    H4    S    
N1    Zn2   S    
C17   C29   S    
O2    Zn2   S    
C2    C13   S    
C14   C19   S    
C4    H1    S    
C30   O17   D    
C14   C26   S    
O4    Zn2   S    
C19   H11   S    
C9    C10   S    
C15   H5    S    
C25   H25   S    
C11   O3    A    
C24   O11   D    
O14   H26   S    
C21   H15   S    
C7    C12   S    
C24   O12   S    
C22   H16   S    
C13   O8    A    
C21   H14   S    
C19   H9    S    
C29   H32   S    
C6    C8    S    
O10   H12   S    
C6    H3    S    
O5    Zn1   S    
C26   O13   D    
C26   O14   S    
C2    C4    S    
C20   O9    D    
C27   H29   S    
C20   O10   S    
C21   H13   S    
C1    O1    A    
C17   C18   S    
C3    H2    S    
C2    C15   S    
C28   O16   S    
C16   C20   S    
C4    C17   S    
C15   H6    S    
C30   O18   S    
C11   O4    A    
C23   H20   S    
C12   O6    A    
N1    C27   S    
C9    N1    D    
C27   H28   S    
C10   N2    D    
C16   H7    S    
O6    Zn2   S    
C5    C23   S    
C3    H8    S    
C25   H23   S    
C29   H33   S    
C22   H18   S    
O8    Zn2   S    
C2    C3    S    
C8    C21   S    
C7    C22   S    
C27   H27   S    
C4    C30   S    
N2    Zn1   S    
C1    O2    A    
C10   C24   S    
O12   H22   S    
C29   H31   S    
N2    C25   S    
O3    Zn1   S    
C16   C18   S    
C23   H21   S    
O1    Zn1   S    
C17   C28   S    
C14   C15   S    
C22   H17   S    
C12   O5    A    
C3    C16   S    
