data_mof_unit_16478.cif
_audit_creation_date              2012-10-26T19:21:52-0400
_audit_creation_method            fapswitch 2.2
_symmetry_space_group_name_H-M    P1
_symmetry_Int_Tables_number       1
_space_group_crystal_system       triclinic
_cell_length_a                    23.359112
_cell_length_b                    11.133867
_cell_length_c                    9.968861
_cell_angle_alpha                 112.647979
_cell_angle_beta                  96.661692
_cell_angle_gamma                 93.835993
_cell_volume                      2358.92323772

loop_
_atom_site_label
_atom_site_type_symbol
_atom_type_description
_atom_site_fract_x
_atom_site_fract_y
_atom_site_fract_z
_atom_type_partial_charge
C1    C     C_R   0.494250 0.252764 0.438477 0.563852
C2    C     C_R   0.707456 0.627802 0.623306 0.018435
C3    C     C_R   0.230260 0.409767 0.480015 0.263716
C4    C     C_R   0.768145 0.641749 0.632439 0.259147
C5    C     C_R   0.211384 0.536373 0.531260 0.150172
C6    C     C_R   0.794701 0.557142 0.519461 0.174301
C7    C     C_2   0.491883 0.109677 0.400797 0.059680
C8    C     C_2   0.506470 0.889638 0.603735 0.045963
C9    C     C_2   0.488630 0.063732 0.507933 0.193924
C10   C     C_2   0.513569 0.941860 0.503630 0.198195
C11   C     C_2   0.508370 0.502217 0.076609 0.405071
C12   C     C_R   0.505390 0.746933 0.561960 0.551347
C13   C     C_2   0.490898 0.501301 0.925340 0.407708
C14   C     C_R   0.391353 0.501147 0.502145 0.560511
C15   C     C_R   0.609151 0.505237 0.499388 0.583268
C16   C     C_R   0.890190 0.660242 0.523728 0.517354
C17   C     C_R   0.125558 0.472442 0.626905 0.506915
C18   C     C_R   0.881312 0.471125 0.580265 0.450938
C19   C     C_R   0.134512 0.678415 0.622054 0.437448
C20   C     C_R   0.941907 0.465900 0.590640 -0.014543
C21   C     C_R   0.073980 0.682227 0.605092 -0.014767
C22   C     C_R   0.977189 0.569951 0.580853 -0.075348
C23   C     C_R   0.246808 0.634997 0.510345 0.047591
C24   C     C_R   0.038236 0.572305 0.599044 -0.078118
C25   C     C_R   0.951523 0.672254 0.554004 0.038811
C26   C     C_R   0.064405 0.468382 0.619819 0.036654
C27   C     C_R   0.968195 0.362154 0.612989 0.049945
C28   C     C_R   0.048647 0.788923 0.589598 0.059810
C29   C     C_R   0.028986 0.363440 0.626905 0.242995
C30   C     C_R   0.987855 0.782326 0.559641 0.242200
C31   C     C_2   0.932740 0.245753 0.610778 0.723499
C32   C     C_2   0.085248 0.904720 0.594449 0.716306
C33   C     C_2   0.219952 0.719372 0.441041 0.656195
C34   C     C_R   0.760791 0.458380 0.394022 0.037266
C35   C     C_2   0.790323 0.368768 0.276814 0.656326
C36   C     C_2   0.346257 0.739114 0.517532 0.615372
C37   C     C_2   0.664031 0.335689 0.255422 0.661151
C38   C     C_2   0.310521 0.266834 0.426412 0.647149
C39   C     C_2   0.680420 0.725825 0.738367 0.675367
C40   C     C_2   0.505872 0.973718 0.761084 0.646029
C41   C     C_2   0.487055 0.017936 0.243660 0.644708
C42   C     C_R   0.307116 0.628384 0.516329 -0.015956
C43   C     C_R   0.699615 0.441520 0.385223 0.001746
C44   C     C_R   0.329062 0.510950 0.507233 -0.069065
C45   C     C_R   0.672863 0.524560 0.501770 -0.062715
C46   C     C_R   0.289762 0.397703 0.473737 0.032757
Cl1   Cl    Cl    0.558881 0.712730 0.965553 -0.329701
Cl2   Cl    Cl    0.577799 0.579133 0.171724 -0.379688
Cl3   Cl    Cl    0.439110 0.289672 0.031952 -0.297581
Cl4   Cl    Cl    0.058521 0.224036 0.636570 -0.358504
Cl5   Cl    Cl    0.959399 0.918556 0.538000 -0.361576
Cl6   Cl    Cl    0.179167 0.266547 0.395799 -0.358102
Cl7   Cl    Cl    0.812268 0.765578 0.786819 -0.384250
Cl8   Cl    Cl    0.564976 0.879047 0.384860 -0.394701
Cl9   Cl    Cl    0.441844 0.134970 0.637126 -0.384204
Cl10  Cl    Cl    0.419354 0.435435 0.837778 -0.371249
Cu1   Cu    Cu3+1 0.509980 0.521810 0.644910 1.237928
Cu2   Cu    Cu3+1 0.490020 0.478190 0.355090 1.240758
H1    H     H_    0.872639 0.089903 0.494830 0.403055
H2    H     H_    0.454491 0.840813 0.085491 0.393412
H3    H     H_    0.138534 0.070307 0.719722 0.403243
H4    H     H_    0.221445 0.895114 0.425691 0.385006
H5    H     H_    0.796929 0.183181 0.140208 0.389552
H6    H     H_    0.393039 0.812291 0.402582 0.360472
H7    H     H_    0.607733 0.171205 0.177406 0.380931
H8    H     H_    0.304382 0.082905 0.271814 0.369644
H9    H     H_    0.624664 0.861622 0.785988 0.370308
H10   H     H_    0.539091 0.140050 0.935866 0.385661
N1    N     N_R   0.857067 0.562658 0.540193 -0.378001
N2    N     N_R   0.155762 0.560494 0.587821 -0.377802
N3    N     N_2   0.475010 0.445410 0.137370 -0.065896
N4    N     N_2   0.524990 0.554590 0.862630 -0.065480
O1    O     O_R   0.505330 0.332340 0.577400 -0.453961
O2    O     O_2   0.154991 0.397376 0.681890 -0.343548
O3    O     O_2   0.846338 0.387249 0.611643 -0.412177
O4    O     O_2   0.171261 0.790336 0.683575 -0.403404
O5    O     O_2   0.935491 0.222425 0.721449 -0.365787
O6    O     O_R   0.896062 0.163624 0.481904 -0.581483
O7    O     O_2   0.092623 0.915532 0.479995 -0.384591
O8    O     O_R   0.111624 0.000266 0.730271 -0.553924
O9    O     O_2   0.176152 0.674688 0.349141 -0.447149
O10   O     O_R   0.244079 0.848948 0.480509 -0.582699
O11   O     O_2   0.830085 0.413220 0.233118 -0.431268
O12   O     O_R   0.494670 0.667660 0.422600 -0.453433
O13   O     O_R   0.773344 0.233490 0.218269 -0.598750
O14   O     O_2   0.356993 0.840532 0.628219 -0.380313
O15   O     O_R   0.369101 0.728448 0.390502 -0.638191
O16   O     O_2   0.667399 0.330398 0.131781 -0.411773
O17   O     O_R   0.627534 0.240955 0.274671 -0.638550
O18   O     O_2   0.349820 0.247201 0.504451 -0.414440
O19   O     O_R   0.286106 0.166981 0.291591 -0.581476
O20   O     O_2   0.693975 0.744758 0.867760 -0.356710
O21   O     O_R   0.639576 0.796765 0.698083 -0.647836
O22   O     O_2   0.474946 0.937590 0.832692 -0.384328
O23   O     O_R   0.488470 0.295500 0.332650 -0.457222
O24   O     O_R   0.542240 0.092650 0.828007 -0.620859
O25   O     O_2   0.508274 0.052687 0.156136 -0.433015
O26   O     O_R   0.456008 0.893021 0.194832 -0.641039
O27   O     O_R   0.511530 0.704500 0.667350 -0.466437
O28   O     O_R   0.426310 0.518390 0.622390 -0.447467
O29   O     O_R   0.573690 0.481610 0.377610 -0.453599
O30   O     O_R   0.409450 0.481550 0.377650 -0.458494
O31   O     O_R   0.590550 0.518450 0.622350 -0.476261
O32   O     O_2   0.863195 0.744038 0.478039 -0.342357

loop_
_geom_bond_atom_site_label_1
_geom_bond_atom_site_label_2
_ccdc_geom_bond_type
C6    N1    S    
C30   Cl5   S    
C18   O3    S    
C4    Cl7   S    
C27   C29   A    
C11   C13   S    
C37   O16   D    
C36   C42   S    
H7    O17   S    
H10   O24   S    
C23   C42   A    
C17   C26   A    
C19   O4    S    
C19   C21   A    
C24   C26   A    
H2    O26   S    
C11   N3    D    
Cu2   N3    S    
C14   O30   A    
H3    O8    S    
Cu1   O27   S    
C16   C25   A    
C12   O12   A    
C34   C35   S    
Cu1   O1    S    
C39   O21   S    
C12   O27   A    
C2    C39   S    
C16   O32   S    
C23   C33   S    
C22   C25   A    
C9    Cl9   S    
C33   O10   S    
H6    O15   S    
C18   C20   A    
C8    C12   S    
C13   Cl10  S    
C18   N1    A    
H4    O10   S    
C17   N2    A    
C36   O15   S    
H5    O13   S    
C11   Cl2   S    
C42   C44   A    
C40   O24   S    
H1    O6    S    
C44   C46   A    
C31   O5    D    
C29   Cl4   S    
C2    C45   A    
Cu1   O31   S    
C34   C43   A    
C27   C31   S    
C28   C32   S    
C4    C6    A    
C35   O11   D    
C36   O14   D    
Cu1   O28   S    
C38   O19   S    
C6    C34   A    
C37   C43   S    
C2    C4    A    
Cu2   O23   S    
C5    N2    S    
Cu2   O12   S    
C32   O8    S    
C5    C23   A    
C1    O23   A    
Cu2   O29   S    
C15   O29   A    
C43   C45   A    
Cu2   O30   S    
C20   C27   A    
C21   C28   A    
C20   C22   A    
C17   O2    S    
C41   O25   D    
C15   C45   S    
C39   O20   D    
C31   O6    S    
C14   C44   S    
C9    C10   S    
C25   C30   A    
C7    C9    D    
C1    C7    S    
C16   N1    A    
C40   O22   D    
C3    C5    A    
C3    Cl6   S    
C14   O28   A    
H8    O19   S    
C13   N4    D    
C38   O18   D    
C3    C46   A    
C37   O17   S    
C1    O1    A    
C28   C30   A    
C32   O7    D    
C35   O13   S    
Cu1   Cu2   S    
C22   C24   A    
C7    C41   S    
Cu1   N4    S    
C10   Cl8   S    
Cl1   N4    S    
C38   C46   S    
C26   C29   A    
C8    C10   D    
Cl3   N3    S    
C21   C24   A    
H9    O21   S    
C41   O26   S    
C19   N2    A    
C8    C40   S    
C15   O31   A    
C33   O9    D    
