data_mof_unit_18466.cif
_audit_creation_date              2012-12-10T16:39:37-0500
_audit_creation_method            fapswitch 2.2
_symmetry_space_group_name_H-M    P1
_symmetry_Int_Tables_number       1
_space_group_crystal_system       triclinic
_cell_length_a                    16.894107
_cell_length_b                    16.854443
_cell_length_c                    16.874815
_cell_angle_alpha                 65.698131
_cell_angle_beta                  65.644639
_cell_angle_gamma                 65.807706
_cell_volume                      3819.03332764

loop_
_atom_site_label
_atom_site_type_symbol
_atom_type_description
_atom_site_fract_x
_atom_site_fract_y
_atom_site_fract_z
_atom_type_partial_charge
C1    C     C_R   0.309267 0.009246 0.433990 0.028943
C2    C     C_R   0.327206 0.455686 0.950555 0.039931
C3    C     C_R   0.524392 0.403711 0.031220 -0.043485
C4    C     C_R   0.016220 0.454147 0.586334 -0.041840
C5    C     C_R   0.037112 0.526069 0.399423 -0.043346
C6    C     C_3   0.242183 0.052216 0.836790 -0.219588
C7    C     C_3   0.767686 0.822347 0.250401 -0.373497
C8    C     C_3   0.216757 0.738694 0.214281 -0.263341
C9    C     C_3   0.843171 0.231777 0.774971 -0.373464
C10   C     C_3   0.708216 0.232770 0.239715 -0.232829
C11   C     C_3   0.187973 0.776737 0.904830 -0.298633
C12   C     C_3   0.125133 0.043751 0.706427 -0.207825
C13   C     C_R   0.064860 0.669791 0.538239 0.036712
C14   C     C_3   0.872460 0.890258 0.353965 -0.273209
C15   C     C_3   0.715434 0.133577 0.053105 -0.204413
C16   C     C_3   0.414774 0.849594 0.755857 -0.266174
C17   C     C_3   0.013757 0.731591 0.146222 -0.290505
C18   C     C_3   0.904810 0.341521 0.873056 -0.288955
C19   C     C_R   0.961362 0.324027 0.454374 0.040378
C20   C     C_R   0.448730 0.004629 0.449008 0.064973
C21   C     C_R   0.537926 0.035878 0.538201 0.061021
C22   C     C_R   0.006993 0.447531 0.449343 0.062249
C23   C     C_R   0.040046 0.536203 0.537771 0.062765
C24   C     C_R   0.451156 0.453253 0.993300 0.059281
C25   C     C_R   0.548397 0.545291 0.009628 0.056261
C26   C     C_R   0.964240 0.179347 0.437334 0.884469
C27   C     C_R   0.675598 0.047537 0.542082 0.046458
C28   C     C_R   0.037905 0.820507 0.562003 0.917712
C29   C     C_R   0.179387 0.437910 0.962461 0.885858
C30   C     C_R   0.820646 0.561816 0.038086 0.912445
C31   C     C_R   0.437155 0.964210 0.179390 0.899941
C32   C     C_R   0.561961 0.038091 0.820448 0.901111
C33   C     C_R   0.570038 0.824617 0.017811 0.908309
C34   C     C_R   0.429741 0.174970 0.983077 0.913658
C35   C     C_R   0.035049 0.563193 0.820988 0.906327
C36   C     C_R   0.981216 0.430556 0.175544 0.911496
C37   C     C_R   0.821135 0.033658 0.563714 0.904769
C38   C     C_R   0.007109 0.435239 0.310109 0.024706
C39   C     C_R   0.174916 0.982770 0.430021 0.917254
C40   C     C_R   0.404043 0.990087 0.403488 0.071252
C41   C     C_R   0.583916 0.049115 0.583543 0.067667
C42   C     C_R   0.990594 0.403053 0.404882 0.068601
C43   C     C_R   0.052968 0.582089 0.583428 0.073317
C44   C     C_R   0.403701 0.407063 0.983467 0.072540
C45   C     C_R   0.595884 0.591628 0.019193 0.073518
C46   C     C_R   0.267665 0.983607 0.393136 -0.105032
C47   C     C_R   0.723183 0.052689 0.592570 -0.116232
C48   C     C_R   0.981361 0.394185 0.268684 -0.105135
C49   C     C_R   0.053135 0.540203 0.674646 0.029488
C50   C     C_R   0.055738 0.591772 0.722712 -0.116096
C51   C     C_R   0.392005 0.268315 0.983103 -0.112467
C52   C     C_R   0.607499 0.730777 0.018952 -0.109487
C53   C     C_R   0.590939 0.060042 0.720907 -0.117919
C54   C     C_R   0.404683 0.953279 0.276752 -0.125328
C55   C     C_R   0.722900 0.593581 0.052454 -0.129563
C56   C     C_R   0.276915 0.405566 0.949337 -0.121636
C57   C     C_R   0.060425 0.721008 0.590880 -0.126055
C58   C     C_R   0.952998 0.276709 0.405600 -0.119676
C59   C     C_R   0.442701 0.083942 0.700305 -0.180102
C60   C     C_R   0.431861 0.311658 0.007573 0.021711
C61   C     C_R   0.548695 0.939685 0.296651 -0.167169
C62   C     C_R   0.082241 0.701565 0.442595 -0.200581
C63   C     C_R   0.944326 0.293864 0.549700 -0.167897
C64   C     C_R   0.696451 0.447294 0.081242 -0.198042
C65   C     C_R   0.304915 0.551345 0.918867 -0.167139
C66   C     C_R   0.260077 0.052997 0.503580 -0.172657
C67   C     C_R   0.715943 0.038958 0.452464 -0.218377
C68   C     C_R   0.498896 0.263516 0.053829 -0.180703
C69   C     C_R   0.502854 0.735015 0.945886 -0.181470
C70   C     C_R   0.048537 0.506729 0.260785 -0.182817
C71   C     C_R   0.568000 0.687125 0.994419 0.020249
C72   C     C_R   0.048272 0.449174 0.714382 -0.173888
C73   C     C_R   0.315788 0.955245 0.316754 -0.304647
C74   C     C_R   0.679483 0.061744 0.678849 -0.307709
C75   C     C_R   0.953330 0.317522 0.317052 -0.309195
C76   C     C_R   0.062828 0.678899 0.679329 -0.293106
C77   C     C_R   0.315612 0.315516 0.954911 -0.290583
C78   C     C_R   0.683659 0.683532 0.047644 -0.299450
C79   C     C_R   0.678174 0.006192 0.417276 -0.135939
C80   C     C_R   0.303625 0.060330 0.554393 -0.111491
C81   C     C_R   0.016496 0.412332 0.677096 -0.118845
C82   C     C_R   0.538425 0.063955 0.669858 0.029127
C83   C     C_R   0.056491 0.556714 0.304547 -0.101425
C84   C     C_R   0.455254 0.689994 0.935761 -0.092815
C85   C     C_R   0.548035 0.308172 0.062097 -0.094842
C86   C     C_R   0.593513 0.957619 0.338574 -0.097511
C87   C     C_R   0.394994 0.077018 0.652524 -0.109344
C88   C     C_R   0.354977 0.598148 0.923362 -0.084094
C89   C     C_R   0.646764 0.400267 0.076469 -0.092586
C90   C     C_R   0.965778 0.333827 0.593721 -0.100907
C91   C     C_R   0.076219 0.653063 0.395219 -0.097147
C92   C     C_R   0.729807 0.972728 0.340952 0.444159
C93   C     C_R   0.453419 0.959946 0.325027 0.038853
C94   C     C_R   0.253674 0.091355 0.632483 0.419573
C95   C     C_R   0.986363 0.333808 0.728528 0.472381
C96   C     C_R   0.083447 0.637032 0.254738 0.417102
C97   C     C_R   0.387823 0.738663 0.890504 0.416405
C98   C     C_R   0.621919 0.258505 0.098812 0.400788
C99   C     C_R   0.687961 0.945838 0.303459 0.483666
C100  C     C_R   0.299309 0.097008 0.682835 0.437120
C101  C     C_R   0.335288 0.693555 0.887624 0.427413
C102  C     C_R   0.669193 0.304478 0.108685 0.397081
C103  C     C_R   0.959353 0.295678 0.687224 0.490279
C104  C     C_R   0.672798 0.543145 0.051388 0.040606
C105  C     C_R   0.095779 0.683638 0.299653 0.396445
C106  C     C_R   0.543094 0.989566 0.415651 -0.052176
C107  C     C_R   0.443943 0.048666 0.573176 -0.066449
C108  C     C_R   0.995565 0.412220 0.543302 -0.048124
C109  C     C_R   0.049884 0.572562 0.444259 -0.046281
C110  C     C_R   0.426890 0.548779 0.963048 -0.051040
C111  C     C_R   0.573342 0.449700 0.038959 -0.047910
C112  C     C_R   0.586648 0.009136 0.457827 -0.038334
C113  C     C_R   0.398779 0.036669 0.526378 -0.045955
C114  C     C_R   0.476020 0.594744 0.970566 -0.050814
H1    H     H_    0.281862 0.940898 0.283949 0.194736
H2    H     H_    0.912443 0.240288 0.591062 0.201616
H3    H     H_    0.751139 0.409015 0.111951 0.202650
H4    H     H_    0.251354 0.589402 0.886592 0.199045
H5    H     H_    0.187748 0.083800 0.518033 0.211954
H6    H     H_    0.775227 0.059625 0.406069 0.210782
H7    H     H_    0.512509 0.191082 0.085726 0.218408
H8    H     H_    0.490030 0.807330 0.913417 0.212305
H9    H     H_    0.078005 0.523536 0.188069 0.223549
H10   H     H_    0.070164 0.403902 0.773364 0.222131
H11   H     H_    0.215000 0.005117 0.831700 0.160069
H12   H     H_    0.717575 0.061989 0.717079 0.191561
H13   H     H_    0.194652 0.077049 0.896168 0.187311
H14   H     H_    0.308825 0.014254 0.850590 0.176828
H15   H     H_    0.712619 0.790846 0.299497 0.146706
H16   H     H_    0.825419 0.795358 0.278672 0.173532
H17   H     H_    0.792210 0.801040 0.188246 0.190220
H18   H     H_    0.241119 0.699714 0.164991 0.193654
H19   H     H_    0.250203 0.699434 0.269319 0.145040
H20   H     H_    0.237618 0.801983 0.177030 0.188256
H21   H     H_    0.803260 0.292399 0.732439 0.137752
H22   H     H_    0.823256 0.239025 0.843542 0.185804
H23   H     H_    0.938393 0.284928 0.283315 0.194931
H24   H     H_    0.824355 0.172159 0.783928 0.188549
H25   H     H_    0.664111 0.187559 0.267673 0.195743
H26   H     H_    0.670803 0.295004 0.262724 0.131113
H27   H     H_    0.766616 0.195517 0.268000 0.188843
H28   H     H_    0.194930 0.823848 0.930707 0.190022
H29   H     H_    0.164523 0.720250 0.962358 0.187157
H30   H     H_    0.134965 0.815784 0.869260 0.167922
H31   H     H_    0.086914 0.045435 0.777511 0.197195
H32   H     H_    0.177169 0.976032 0.708088 0.115516
H33   H     H_    0.076460 0.049543 0.674537 0.191561
H34   H     H_    0.061869 0.717609 0.717744 0.195991
H35   H     H_    0.845474 0.830519 0.385090 0.116843
H36   H     H_    0.876911 0.907313 0.408448 0.203680
H37   H     H_    0.942520 0.869386 0.309667 0.215015
H38   H     H_    0.778039 0.152355 0.034777 0.184014
H39   H     H_    0.690737 0.159958 0.992585 0.117764
H40   H     H_    0.733653 0.058376 0.073631 0.219372
H41   H     H_    0.363453 0.896175 0.719495 0.185913
H42   H     H_    0.449903 0.788853 0.729910 0.147742
H43   H     H_    0.466100 0.884021 0.737786 0.176759
H44   H     H_    0.990150 0.790244 0.173118 0.200897
H45   H     H_    0.282050 0.280304 0.943168 0.200352
H46   H     H_    0.960709 0.695904 0.176036 0.149849
H47   H     H_    0.023307 0.759337 0.071993 0.161947
H48   H     H_    0.843379 0.362559 0.851431 0.120254
H49   H     H_    0.914981 0.402660 0.872491 0.198826
H50   H     H_    0.890955 0.297383 0.944405 0.206850
H51   H     H_    0.717074 0.718820 0.059478 0.191020
H52   H     H_    0.404508 0.108906 0.758928 0.203841
H53   H     H_    0.589126 0.908238 0.242750 0.203579
H54   H     H_    0.104479 0.761856 0.403651 0.211034
O1    O     O_R   0.982940 0.138950 0.510160 -0.645161
O2    O     O_R   0.982940 0.510160 0.138950 -0.651152
O3    O     O_R   0.861050 0.017060 0.489840 -0.656855
O4    O     O_R   0.138950 0.982940 0.510160 -0.652789
O5    O     O_R   0.867700 0.025880 0.612340 -0.628229
O6    O     O_R   0.132300 0.974120 0.387660 -0.626270
O7    O     O_R   0.025880 0.612340 0.867700 -0.625840
O8    O     O_R   0.974120 0.387660 0.132300 -0.624843
O9    O     O_R   0.612340 0.867700 0.025880 -0.630872
O10   O     O_R   0.387660 0.132300 0.974120 -0.629208
O11   O     O_R   0.387660 0.974120 0.132300 -0.622332
O12   O     O_R   0.017060 0.861050 0.489840 -0.644951
O13   O     O_R   0.612340 0.025880 0.867700 -0.626097
O14   O     O_R   0.132300 0.387660 0.974120 -0.619328
O15   O     O_R   0.867700 0.612340 0.025880 -0.621237
O16   O     O_R   0.974120 0.132300 0.387660 -0.622309
O17   O     O_R   0.025880 0.867700 0.612340 -0.618746
O18   O     O_3   0.248720 0.127942 0.758498 -0.578625
O19   O     O_3   0.738053 0.918271 0.225727 -0.582480
O20   O     O_3   0.121377 0.762584 0.250080 -0.615702
O21   O     O_3   0.938092 0.214279 0.735711 -0.570929
O22   O     O_3   0.741787 0.254776 0.144103 -0.604487
O23   O     O_R   0.138950 0.510160 0.982940 -0.640213
O24   O     O_3   0.269669 0.742784 0.842708 -0.606388
O25   O     O_3   0.159654 0.119735 0.658901 -0.570695
O26   O     O_3   0.821138 0.967143 0.300746 -0.583981
O27   O     O_3   0.647765 0.164411 0.126633 -0.597821
O28   O     O_3   0.371115 0.831497 0.850547 -0.635656
O29   O     O_3   0.096994 0.671373 0.161748 -0.614737
O30   O     O_3   0.983728 0.292563 0.819179 -0.573526
O31   O     O_R   0.861050 0.489840 0.017060 -0.638556
O32   O     O_R   0.510160 0.982940 0.138950 -0.634023
O33   O     O_R   0.489840 0.017060 0.861050 -0.646759
O34   O     O_R   0.489840 0.861050 0.017060 -0.640124
O35   O     O_R   0.510160 0.138950 0.982940 -0.645892
O36   O     O_R   0.017060 0.489840 0.861050 -0.655856
Zn1   Zn    Zn3+2 0.004880 0.004880 0.583590 0.937406
Zn2   Zn    Zn3+2 0.995120 0.995120 0.416410 0.961643
Zn3   Zn    Zn3+2 0.004880 0.583590 0.004880 0.935718
Zn4   Zn    Zn3+2 0.995120 0.416410 0.995120 0.969114
Zn5   Zn    Zn3+2 0.583590 0.004880 0.004880 0.947420
Zn6   Zn    Zn3+2 0.416410 0.995120 0.995120 0.946287

loop_
_geom_bond_atom_site_label_1
_geom_bond_atom_site_label_2
_ccdc_geom_bond_type
C62   H54   S    
C96   C105  A    
C38   C70   A    
C89   C102  A    
C3    C85   A    
C94   O25   S    
O15   Zn3   S    
C12   O25   S    
C91   C105  A    
C53   C74   A    
C59   C82   A    
O7    Zn3   S    
C40   C93   A    
C2    C65   A    
C99   O19   S    
C88   C101  A    
C23   C43   A    
C22   C108  A    
C106  C112  A    
C28   C57   S    
C8    O20   S    
C33   C52   S    
C4    C108  A    
O11   Zn6   S    
C34   C51   S    
C10   O22   S    
C12   H33   S    
C79   C112  A    
C16   O28   S    
C84   C97   A    
C105  O20   S    
C7    O19   S    
O4    Zn1   S    
C6    H13   S    
C38   C42   A    
C92   O26   S    
O1    Zn1   S    
C20   C113  A    
C81   C95   A    
C9    O21   S    
C1    C46   A    
C13   C57   A    
C41   C82   A    
C12   H32   S    
C33   O34   A    
O16   Zn2   S    
O10   Zn6   S    
O13   Zn5   S    
C11   O24   S    
C9    H24   S    
O9    Zn5   S    
C32   O33   A    
C69   C71   A    
C17   H46   S    
C107  C113  A    
C7    H16   S    
C85   C98   A    
C1    C40   A    
C18   H50   S    
C70   H9    S    
C5    C22   A    
O36   Zn4   S    
C26   O1    A    
C19   C63   A    
C15   H40   S    
C49   C72   A    
C14   H37   S    
C16   H42   S    
C65   H4    S    
C29   O23   A    
C17   O29   S    
C103  O21   S    
C37   C47   S    
C67   H6    S    
C110  C114  A    
C16   H41   S    
C7    H17   S    
C72   C81   A    
C19   C42   A    
C88   C110  A    
C101  O24   S    
C30   O31   A    
C14   O26   S    
C72   H10   S    
C68   C85   A    
C48   C75   A    
C3    C24   A    
C86   C106  A    
C10   H26   S    
C64   C89   A    
O34   Zn6   S    
C39   O6    A    
O12   Zn2   S    
C15   H38   S    
C90   C108  A    
C95   C103  A    
C58   C75   A    
C20   C106  A    
C19   C58   A    
C96   O29   S    
C23   C109  A    
C7    H15   S    
C29   O14   A    
C13   C62   A    
C8    H20   S    
O17   Zn1   S    
C32   O13   A    
C24   C110  A    
C47   C74   A    
C75   H23   S    
C2    C44   A    
C55   C78   A    
C25   C111  A    
C43   C49   A    
C98   C102  A    
C33   O9    A    
C55   C104  A    
C17   H44   S    
C64   H3    S    
C31   O11   A    
C53   C82   A    
C61   H53   S    
C10   H27   S    
C12   H31   S    
C100  O18   S    
C51   C77   A    
C5    C83   A    
C8    H18   S    
C18   O30   S    
C70   C83   A    
C45   C104  A    
C50   C76   A    
C54   C73   A    
C28   O12   A    
C18   H49   S    
C27   C41   A    
C31   O32   A    
C94   C100  A    
C34   O35   A    
C62   C91   A    
C14   H36   S    
C35   C50   S    
C1    C66   A    
C67   C79   A    
C74   H12   S    
O23   Zn3   S    
O3    Zn2   S    
C86   C99   A    
C26   C58   S    
C76   H34   S    
C79   C92   A    
C21   C107  A    
C59   H52   S    
C17   H47   S    
C77   H45   S    
C39   C46   S    
C21   C41   A    
C63   H2    S    
C9    H21   S    
C36   O8    A    
C66   H5    S    
C24   C44   A    
C3    C111  A    
C34   O10   A    
C10   H25   S    
C63   C90   A    
C80   C94   A    
C25   C45   A    
C32   C53   S    
C13   C43   A    
C21   C112  A    
C45   C71   A    
C57   C76   A    
C65   C88   A    
O6    Zn2   S    
C87   C100  A    
C11   H30   S    
C27   C47   A    
C64   C104  A    
C89   C111  A    
C78   H51   S    
C84   C114  A    
C16   H43   S    
C38   C48   A    
O8    Zn4   S    
C6    H11   S    
C37   O5    A    
C68   H7    S    
C37   O3    A    
C97   O28   S    
C30   O15   A    
C29   C56   S    
C66   C80   A    
C30   C55   S    
C6    O18   S    
C36   O2    A    
O32   Zn5   S    
C73   H1    S    
C35   O7    A    
C54   C93   A    
C8    H19   S    
O33   Zn6   S    
C15   O27   S    
O2    Zn3   S    
C69   C84   A    
C2    C56   A    
C25   C114  A    
C18   H48   S    
C91   C109  A    
C22   C42   A    
C5    C109  A    
C69   H8    S    
C44   C60   A    
C95   O30   S    
C20   C40   A    
C83   C96   A    
C4    C81   A    
C14   H35   S    
O31   Zn4   S    
C102  O22   S    
C98   O27   S    
C36   C48   S    
O14   Zn4   S    
C31   C54   S    
C35   O36   A    
C11   H28   S    
C59   C87   A    
C90   C103  A    
C15   H39   S    
C27   C67   A    
C61   C86   A    
C56   C77   A    
C6    H14   S    
C9    H22   S    
C52   C78   A    
C87   C107  A    
C80   C113  A    
C60   C68   A    
C39   O4    A    
C49   C50   A    
C52   C71   A    
O35   Zn5   S    
O5    Zn1   S    
C51   C60   A    
C4    C23   A    
C28   O17   A    
C61   C93   A    
C11   H29   S    
C46   C73   A    
C97   C101  A    
C92   C99   A    
C26   O16   A    
