data_mof_unit_11129.cif
_audit_creation_date              2012-12-11T14:40:25-0500
_audit_creation_method            fapswitch 2.2
_symmetry_space_group_name_H-M    P1
_symmetry_Int_Tables_number       1
_space_group_crystal_system       triclinic
_cell_length_a                    19.530958
_cell_length_b                    10.997066
_cell_length_c                    19.481966
_cell_angle_alpha                 89.722098
_cell_angle_beta                  97.133328
_cell_angle_gamma                 90.006361
_cell_volume                      4151.96253319

loop_
_atom_site_label
_atom_site_type_symbol
_atom_type_description
_atom_site_fract_x
_atom_site_fract_y
_atom_site_fract_z
_atom_type_partial_charge
C1    C     C_R   0.723685 0.956927 0.362467 0.572971
C2    C     C_3   0.257680 0.394564 0.566331 0.062993
C3    C     C_3   0.234148 0.858053 0.439248 0.025797
C4    C     C_3   0.753059 0.911153 0.569548 0.066070
C5    C     C_3   0.729912 0.532527 0.458033 0.027918
C6    C     C_3   0.314692 0.434679 0.523607 0.060127
C7    C     C_3   0.211612 0.979619 0.467020 0.060317
C8    C     C_3   0.810754 0.945921 0.526040 0.066065
C9    C     C_3   0.802878 0.543327 0.500808 -0.146493
C10   C     C_3   0.262480 0.523428 0.484806 -0.124970
C11   C     C_3   0.282972 0.987711 0.511939 -0.105823
C12   C     C_R   0.273340 0.950690 0.640246 0.555688
C13   C     C_3   0.761392 0.039988 0.487403 -0.110576
C14   C     C_3   0.823765 0.421245 0.471642 0.237867
C15   C     C_3   0.205989 0.480891 0.528544 0.188082
C16   C     C_3   0.304245 0.865261 0.484063 0.245411
C17   C     C_3   0.704144 0.003509 0.531830 0.200327
C18   C     C_3   0.796966 0.349837 0.530528 -0.072981
C19   C     C_3   0.183270 0.381132 0.476333 -0.058137
C20   C     C_3   0.274082 0.795090 0.541479 -0.088844
C21   C     C_3   0.677649 0.906025 0.479143 -0.070852
C22   C     C_3   0.775709 0.471125 0.559758 -0.009443
C23   C     C_R   0.225600 0.450939 0.360538 0.557597
C24   C     C_3   0.240307 0.421563 0.433162 0.010006
C25   C     C_3   0.252974 0.916147 0.569416 0.006827
C26   C     C_3   0.735779 0.939320 0.436112 0.008440
C27   C     C_3   0.528577 0.271238 0.975873 0.116328
C28   C     C_3   0.471479 0.271650 0.023391 0.114906
C29   C     C_3   0.028582 0.771232 0.975869 0.116028
C30   C     C_3   0.971485 0.771654 0.023388 0.115549
C31   C     C_3   0.567948 0.171444 0.020324 -0.125788
C32   C     C_3   0.432025 0.171633 0.979756 -0.129251
C33   C     C_3   0.067950 0.671436 0.020321 -0.126563
C34   C     C_R   0.792475 0.499321 0.633141 0.557170
C35   C     C_3   0.932027 0.671638 0.979757 -0.127677
C36   C     C_3   0.509949 0.171969 0.067304 0.034829
C37   C     C_3   0.490021 0.171277 0.932762 0.031898
C38   C     C_3   0.009952 0.671970 0.067303 0.034222
C39   C     C_3   0.990022 0.671273 0.932761 0.033853
C40   C     C_R   0.534128 0.179916 0.337221 0.542187
C41   C     C_R   0.435708 0.183740 0.651994 0.551119
C42   C     C_R   0.034966 0.679997 0.337723 0.537596
C43   C     C_R   0.964100 0.680390 0.661628 0.553559
C44   C     C_3   0.471285 0.071220 0.024667 -0.139889
C45   C     C_3   0.724602 0.341879 0.488484 -0.154495
C46   C     C_3   0.528615 0.070797 0.976247 -0.138876
C47   C     C_3   0.971284 0.571223 0.024668 -0.139841
C48   C     C_3   0.028614 0.570791 0.976246 -0.139336
C49   C     C_1   0.758796 0.411021 0.900502 0.025869
C50   C     C_1   0.241258 0.412044 0.099449 0.024081
C51   C     C_1   0.258790 0.911004 0.900498 0.025893
C52   C     C_1   0.741264 0.912024 0.099457 0.024256
C53   C     C_1   0.736942 0.361628 0.026893 -0.011396
C54   C     C_1   0.262693 0.362461 0.973055 -0.010618
C55   C     C_1   0.236932 0.861590 0.026887 -0.011480
C56   C     C_3   0.236087 0.292981 0.514577 -0.157287
C57   C     C_1   0.762698 0.862444 0.973061 -0.010214
C58   C     C_1   0.747604 0.385557 0.958090 -0.002999
C59   C     C_1   0.252284 0.386679 0.041868 -0.002767
C60   C     C_1   0.247596 0.885526 0.958085 -0.002699
C61   C     C_1   0.752290 0.886658 0.041875 -0.002851
C62   C     C_1   0.729262 0.341206 0.086082 0.010372
C63   C     C_1   0.270294 0.341707 0.913931 0.010758
C64   C     C_1   0.229253 0.841173 0.086077 0.008694
C65   C     C_1   0.770297 0.841696 0.913934 0.011897
C66   C     C_R   0.740354 0.365222 0.360565 0.589234
C67   C     C_3   0.202753 0.789535 0.496223 -0.181412
C68   C     C_R   0.261724 0.361564 0.637847 0.609298
C69   C     C_R   0.225737 0.815441 0.368344 0.552698
C70   C     C_R   0.760024 0.867272 0.639835 0.598844
C71   C     C_R   0.722514 0.951596 0.164320 0.543657
C72   C     C_R   0.277496 0.951213 0.835639 0.544767
C73   C     C_R   0.222510 0.451609 0.164314 0.542391
C74   C     C_R   0.777495 0.451211 0.835636 0.558723
C75   C     C_R   0.530433 0.179014 0.140928 0.549211
C76   C     C_R   0.469584 0.178682 0.859091 0.564812
C77   C     C_R   0.030434 0.679015 0.140927 0.551327
C78   C     C_3   0.727465 0.812766 0.516801 -0.152885
C79   C     C_R   0.969582 0.678682 0.859092 0.555019
C80   C     C_R   0.722503 0.311387 0.156309 0.543260
C81   C     C_R   0.277307 0.311610 0.843848 0.547145
C82   C     C_R   0.222499 0.811373 0.156310 0.546475
C83   C     C_R   0.777307 0.811608 0.843849 0.545720
C84   C     C_1   0.453456 0.175830 0.583045 0.056319
C85   C     C_1   0.503905 0.171582 0.400313 0.037093
C86   C     C_1   0.983778 0.673254 0.593786 0.074677
C87   C     C_1   0.012387 0.672227 0.404355 0.045653
C88   C     C_1   0.484746 0.169151 0.456659 0.034631
C89   C     C_3   0.752460 0.412393 0.429905 0.049594
C90   C     C_1   0.467141 0.171007 0.524570 0.045342
C91   C     C_1   0.001424 0.669610 0.463586 0.037661
C92   C     C_1   0.992879 0.670131 0.534023 0.054595
C93   C     C_3   0.703064 0.462843 0.518534 -0.092228
C94   C     C_3   0.292868 0.333833 0.470512 -0.146131
C95   C     C_3   0.181583 0.911398 0.526058 -0.101791
C96   C     C_3   0.785331 0.847502 0.473033 -0.144918
Cl1   Cl    Cl    0.904807 0.394617 0.441205 -0.550059
Cl2   Cl    Cl    0.149836 0.560308 0.578365 -0.638162
Cl3   Cl    Cl    0.388927 0.838616 0.461868 -0.527119
Cl4   Cl    Cl    0.651160 0.101401 0.575198 -0.600999
Cr1   Cr    Cr6+3 0.765830 0.160660 0.268180 1.088763
Cr2   Cr    Cr6+3 0.384070 0.324050 0.751550 1.092412
Cr3   Cr    Cr6+3 0.115930 0.824050 0.248450 1.096223
Cr4   Cr    Cr6+3 0.884070 0.824050 0.751550 1.090326
Cr5   Cr    Cr6+3 0.234170 0.160660 0.731820 1.067403
Cr6   Cr    Cr6+3 0.265830 0.660660 0.268180 1.085214
Cr7   Cr    Cr6+3 0.734170 0.660660 0.731820 1.076940
Cr8   Cr    Cr6+3 0.612110 0.009150 0.248770 1.072789
Cr9   Cr    Cr6+3 0.387890 0.009150 0.751230 1.072552
Cr10  Cr    Cr6+3 0.112110 0.509150 0.248770 1.070136
Cr11  Cr    Cr6+3 0.887890 0.509150 0.751230 1.067760
Cr12  Cr    Cr6+3 0.615930 0.324050 0.248450 1.096579
H1    H     H_    0.689435 0.263217 0.478965 0.167682
H2    H     H_    0.778897 0.128909 0.469889 0.149249
H3    H     H_    0.838059 0.621837 0.510584 0.108426
H4    H     H_    0.278208 0.611225 0.464572 0.155652
H5    H     H_    0.824491 0.274581 0.560540 0.186806
H6    H     H_    0.128808 0.360766 0.456270 0.201323
H7    H     H_    0.299463 0.721203 0.574388 0.183268
H8    H     H_    0.622815 0.889218 0.458842 0.192812
H9    H     H_    0.624035 0.170093 0.038664 0.108273
H10   H     H_    0.375936 0.170355 0.961429 0.107831
H11   H     H_    0.124038 0.670076 0.038660 0.108189
H12   H     H_    0.223890 0.200627 0.531907 0.157788
H13   H     H_    0.875938 0.670365 0.961431 0.107221
H14   H     H_    0.447359 0.990394 0.046347 0.148618
H15   H     H_    0.552458 0.989599 0.955271 0.149648
H16   H     H_    0.947356 0.490401 0.046350 0.148737
H17   H     H_    0.052452 0.489590 0.955269 0.148991
H18   H     H_    0.166427 0.714653 0.481036 0.163739
H19   H     H_    0.711154 0.721384 0.532019 0.164075
H20   H     H_    0.653763 0.480167 0.539690 0.182072
H21   H     H_    0.327317 0.272713 0.445294 0.138551
H22   H     H_    0.131738 0.930125 0.545859 0.172594
H23   H     H_    0.817933 0.787991 0.444724 0.143620
H24   H     H_    0.317490 0.067893 0.519741 0.102856
I1    I     I_    0.662784 0.638776 0.385259 -0.305934
I2    I     I_    0.416763 0.498266 0.556805 -0.258841
I3    I     I_    0.147442 0.104099 0.402320 -0.290808
I4    I     I_    0.915827 0.994389 0.557377 -0.292258
I5    I     I_    0.570552 0.433486 0.936368 -0.285395
I6    I     I_    0.429680 0.434278 0.061798 -0.295361
I7    I     I_    0.070556 0.933458 0.936336 -0.292527
I8    I     I_    0.929688 0.934285 0.061793 -0.293037
O1    O     O_R   0.783230 0.287800 0.346510 -0.469942
O2    O     O_R   0.454570 0.285140 0.836900 -0.480690
O3    O     O_R   0.045430 0.785140 0.163100 -0.484472
O4    O     O_R   0.954570 0.785140 0.836900 -0.483220
O5    O     O_R   0.677850 0.374730 0.185500 -0.470840
O6    O     O_R   0.322150 0.374730 0.814500 -0.471700
O7    O     O_R   0.177850 0.874730 0.185500 -0.464701
O8    O     O_R   0.822150 0.874730 0.814500 -0.469874
O9    O     O_3   0.664630 0.164620 0.255130 -0.314104
O10   O     O_3   0.335370 0.164620 0.744870 -0.334076
O11   O     O_3   0.164630 0.664620 0.255130 -0.331711
O12   O     O_R   0.216770 0.287800 0.653490 -0.484017
O13   O     O_3   0.835370 0.664620 0.744870 -0.331326
O14   O     O_R   0.760130 0.037060 0.338610 -0.499731
O15   O     O_R   0.239870 0.037060 0.661390 -0.511953
O16   O     O_R   0.260130 0.537060 0.338610 -0.513068
O17   O     O_R   0.739870 0.537060 0.661390 -0.489283
O18   O     O_R   0.666620 0.921370 0.332440 -0.483292
O19   O     O_R   0.333380 0.921370 0.667560 -0.495653
O20   O     O_R   0.166620 0.421370 0.332440 -0.489156
O21   O     O_R   0.833380 0.421370 0.667560 -0.481793
O22   O     O_R   0.557170 0.082420 0.312350 -0.487955
O23   O     O_R   0.283230 0.787800 0.346510 -0.442393
O24   O     O_R   0.442830 0.082420 0.687650 -0.466686
O25   O     O_R   0.057170 0.582420 0.312350 -0.481655
O26   O     O_R   0.942830 0.582420 0.687650 -0.500972
O27   O     O_R   0.548310 0.285980 0.316250 -0.488743
O28   O     O_R   0.451690 0.285980 0.683750 -0.463342
O29   O     O_R   0.048310 0.785980 0.316250 -0.498063
O30   O     O_R   0.951690 0.785980 0.683750 -0.483575
O31   O     O_R   0.680520 0.375500 0.327470 -0.476847
O32   O     O_R   0.319480 0.375500 0.672530 -0.502496
O33   O     O_R   0.180520 0.875500 0.327470 -0.458528
O34   O     O_R   0.716770 0.787800 0.653490 -0.507074
O35   O     O_R   0.819480 0.875500 0.672530 -0.482867
O36   O     O_R   0.780350 0.286970 0.193350 -0.486785
O37   O     O_R   0.219650 0.286970 0.806650 -0.482494
O38   O     O_R   0.280350 0.786970 0.193350 -0.482587
O39   O     O_R   0.719650 0.786970 0.806650 -0.484338
O40   O     O_R   0.757460 0.036290 0.196640 -0.504141
O41   O     O_R   0.242540 0.036290 0.803360 -0.501726
O42   O     O_R   0.257460 0.536290 0.196640 -0.504672
O43   O     O_R   0.742540 0.536290 0.803360 -0.495886
O44   O     O_R   0.663740 0.920540 0.179290 -0.493105
O45   O     O_R   0.554500 0.081650 0.170370 -0.505299
O46   O     O_R   0.336260 0.920540 0.820710 -0.498597
O47   O     O_R   0.163740 0.420540 0.179290 -0.493907
O48   O     O_R   0.836260 0.420540 0.820710 -0.493651
O49   O     O_R   0.445500 0.081650 0.829630 -0.499728
O50   O     O_R   0.054500 0.581650 0.170370 -0.502888
O51   O     O_R   0.945500 0.581650 0.829630 -0.504084
O52   O     O_R   0.545430 0.285140 0.163100 -0.485131

loop_
_geom_bond_atom_site_label_1
_geom_bond_atom_site_label_2
_ccdc_geom_bond_type
C19   C56   S    
C21   C26   S    
C8    C13   S    
C87   C91   T    
Cr4   O4    S    
C20   C67   S    
C8    C96   S    
C81   O37   A    
Cr4   O13   S    
C4    C8    S    
C34   O17   A    
C35   C47   S    
C4    C70   S    
C73   O42   A    
C68   O32   A    
Cr3   O3    S    
C47   H16   S    
C56   C94   S    
Cr12  O31   S    
C26   C96   S    
Cr1   O1    S    
C30   C35   S    
C63   C81   S    
C50   C59   T    
C80   O36   A    
C62   C80   S    
C1    O14   A    
C75   O45   A    
C93   H20   S    
C83   O8    A    
C21   H8    S    
C3    C7    S    
C10   C15   S    
C31   C36   S    
C43   O30   A    
C9    C22   S    
C65   C83   S    
Cr12  O27   S    
C20   C25   S    
C11   C25   S    
Cr2   O32   S    
C81   O6    A    
C29   I7    S    
C41   O24   A    
Cr7   O43   S    
Cr10  O47   S    
Cr3   O29   S    
C94   H21   S    
C30   I8    S    
C30   C38   S    
C4    C78   S    
C11   C16   S    
Cr5   O41   S    
C76   O49   A    
C35   H13   S    
C14   C18   S    
Cr6   O38   S    
C66   O1    A    
Cr8   O22   S    
Cr10  O11   S    
C48   H17   S    
C69   O33   A    
C15   C19   S    
C80   O5    A    
C8    I4    S    
Cr12  O52   S    
Cr8   O9    S    
Cr7   O17   S    
C19   H6    S    
C78   C96   S    
C6    C94   S    
C31   C46   S    
C21   C78   S    
Cr10  O50   S    
C23   C24   S    
Cr9   O49   S    
Cr11  O21   S    
C66   C89   S    
C34   O21   A    
C45   C89   S    
C71   O44   A    
C40   O22   A    
C82   O7    A    
Cr3   O7    S    
C75   O52   A    
Cr5   O10   S    
C45   C93   S    
Cr11  O48   S    
C29   C33   S    
C18   C22   S    
C55   C60   S    
C55   C64   T    
C67   C95   S    
C2    C6    S    
C84   C90   T    
C13   C26   S    
C72   O46   A    
Cr7   O13   S    
C43   O26   A    
C44   C46   S    
C7    C11   S    
C96   H23   S    
C54   C59   S    
Cr2   O28   S    
C77   O3    A    
C22   C34   S    
C41   O28   A    
C27   C31   S    
C9    H3    S    
C32   H10   S    
C46   H15   S    
C28   C32   S    
C31   H9    S    
Cr9   O19   S    
C50   C73   S    
C91   C92   S    
C9    C14   S    
Cr10  O20   S    
C70   O34   A    
Cr4   O30   S    
C10   C24   S    
C41   C84   S    
Cr8   O18   S    
C95   H22   S    
C17   C21   S    
C49   C58   T    
Cr7   O39   S    
Cr3   O33   S    
C39   C79   S    
C40   C85   S    
C6    I2    S    
C35   C39   S    
C77   O50   A    
C69   O23   A    
C14   C89   S    
C5    C9    S    
C29   C30   S    
C2    C15   S    
Cr9   O24   S    
C24   C94   S    
C53   C62   T    
C47   C48   S    
Cr1   O9    S    
Cr9   O46   S    
C16   C20   S    
C42   O25   A    
C44   H14   S    
C23   O16   A    
C29   C39   S    
C32   C44   S    
C83   O39   A    
Cr8   O45   S    
C32   C37   S    
C57   C61   S    
Cr9   O10   S    
C18   H5    S    
C64   C82   S    
C38   C47   S    
C73   O47   A    
Cr1   O40   S    
Cr2   O6    S    
C74   O48   A    
C4    C17   S    
Cr3   O11   S    
C37   C76   S    
C88   C90   S    
C1    O18   A    
C25   C95   S    
C79   O51   A    
Cr12  O9    S    
Cr7   O34   S    
C1    C26   S    
C22   C93   S    
C66   O31   A    
C36   C44   S    
C67   H18   S    
C28   I6    S    
C51   C72   S    
C15   Cl2   S    
Cr6   O42   S    
C18   C45   S    
C56   H12   S    
C10   H4    S    
C14   Cl1   S    
C33   H11   S    
C23   O20   A    
C85   C88   T    
Cr2   O10   S    
C3    C69   S    
C49   C74   S    
C43   C86   S    
C71   O40   A    
Cr8   O44   S    
C78   H19   S    
C3    C67   S    
C13   H2    S    
C57   C65   T    
C68   O12   A    
C42   O29   A    
Cr1   O14   S    
C5    C93   S    
C53   C58   S    
C16   Cl3   S    
C5    I1    S    
C79   O4    A    
C51   C60   T    
C38   C77   S    
C7    C95   S    
C82   O38   A    
C2    C68   S    
C33   C38   S    
C13   C17   S    
C12   C25   S    
C52   C61   T    
Cr11  O26   S    
Cr6   O23   S    
Cr4   O8    S    
C19   C24   S    
Cr11  O13   S    
Cr1   O36   S    
C86   C92   T    
C11   H24   S    
Cr2   O2    S    
C12   O19   A    
C7    I3    S    
Cr5   O15   S    
C36   C75   S    
C27   C37   S    
Cr6   O16   S    
C27   I5    S    
C40   O27   A    
C12   O15   A    
C70   O35   A    
C17   Cl4   S    
C72   O41   A    
C6    C10   S    
C74   O43   A    
C76   O2    A    
Cr4   O35   S    
Cr10  O25   S    
C45   H1    S    
Cr5   O12   S    
C28   C36   S    
Cr6   O11   S    
C54   C63   T    
C27   C28   S    
C52   C71   S    
C33   C48   S    
Cr12  O5    S    
C2    C56   S    
C42   C87   S    
Cr5   O37   S    
C37   C46   S    
C20   H7    S    
C5    C89   S    
C3    C16   S    
Cr11  O51   S    
C39   C48   S    
