data_mof_unit_38452.cif
_audit_creation_date              2012-12-11T14:33:48-0500
_audit_creation_method            fapswitch 2.2
_symmetry_space_group_name_H-M    P1
_symmetry_Int_Tables_number       1
_space_group_crystal_system       triclinic
_cell_length_a                    13.994015
_cell_length_b                    13.911423
_cell_length_c                    27.346529
_cell_angle_alpha                 89.755915
_cell_angle_beta                  90.195542
_cell_angle_gamma                 120.037462
_cell_volume                      4608.69800909

loop_
_atom_site_label
_atom_site_type_symbol
_atom_type_description
_atom_site_fract_x
_atom_site_fract_y
_atom_site_fract_z
_atom_type_partial_charge
C1    C     C_R   0.235446 0.786579 0.569258 0.542719
C2    C     C_R   0.213493 0.448494 0.569145 0.540278
C3    C     C_R   0.551591 0.764899 0.569174 0.541627
C4    C     C_3   0.648247 0.729188 0.790938 0.033451
C5    C     C_3   0.270894 0.918504 0.790937 0.033690
C6    C     C_3   0.082268 0.353918 0.790524 0.033687
C7    C     C_3   0.620781 0.713720 0.735481 -0.222724
C8    C     C_3   0.286133 0.907020 0.735464 -0.223591
C9    C     C_3   0.093832 0.379986 0.734913 -0.223391
C10   C     C_1   0.737099 0.872827 0.856384 0.146804
C11   C     C_1   0.128066 0.863815 0.856557 0.148272
C12   C     C_1   0.136221 0.265476 0.856785 0.147502
C13   C     C_1   0.621474 0.810395 0.659509 -0.057318
C14   C     C_1   0.190328 0.810385 0.659711 -0.056918
C15   C     C_1   0.189899 0.379151 0.659636 -0.057324
C16   C     C_1   0.595548 0.793574 0.617248 0.019289
C17   C     C_1   0.207041 0.801530 0.617421 0.018788
C18   C     C_1   0.198739 0.404709 0.617300 0.018512
C19   C     C_R   0.107392 0.224132 0.087595 0.594763
C20   C     C_R   0.838674 0.909112 0.097519 0.538475
C21   C     C_R   0.117117 0.892097 0.087355 0.595877
C22   C     C_R   0.074983 0.169332 0.942841 0.494338
C23   C     C_R   0.831613 0.906385 0.942711 0.497501
C24   C     C_R   0.094297 0.925040 0.942699 0.496840
C25   C     C_R   0.657450 0.912163 0.368290 -0.114522
C26   C     C_R   0.106150 0.727634 0.360398 -0.115179
C27   C     C_R   0.269319 0.373233 0.361041 -0.114505
C28   C     C_R   0.704981 0.936243 0.321619 0.015765
C29   C     C_R   0.092140 0.737490 0.310420 0.003482
C30   C     C_R   0.258945 0.347810 0.311193 0.009906
C31   C     C_R   0.772888 0.967754 0.223454 -0.041418
C32   C     C_R   0.072963 0.752369 0.208933 -0.048343
C33   C     C_R   0.243033 0.310418 0.209983 -0.045315
C34   C     C_R   0.232707 0.789223 0.431723 0.560466
C35   C     C_R   0.210950 0.443778 0.431671 0.556032
C36   C     C_R   0.559724 0.769295 0.433344 0.559109
C37   C     C_R   0.767416 0.052037 0.248943 -0.048539
C38   C     C_R   0.993559 0.659862 0.234681 -0.030390
C39   C     C_R   0.330120 0.313526 0.236664 -0.033801
C40   C     C_R   0.729763 0.035043 0.297180 0.448083
C41   C     C_R   0.003290 0.651588 0.285011 0.440560
C42   C     C_R   0.339990 0.335178 0.286698 0.442712
C43   C     C_R   0.805293 0.982094 0.174460 -0.154415
C44   C     C_R   0.057600 0.765608 0.159441 -0.142576
C45   C     C_R   0.229463 0.282090 0.160583 -0.143363
C46   C     C_R   0.792757 0.891325 0.147353 0.008960
C47   C     C_R   0.141222 0.854172 0.133460 0.008393
C48   C     C_R   0.146113 0.285403 0.133701 0.008780
C49   C     C_R   0.682245 0.751625 0.372936 0.265834
C50   C     C_R   0.260602 0.916848 0.361850 0.262524
C51   C     C_R   0.085062 0.349378 0.361016 0.262119
C52   C     C_R   0.706299 0.760807 0.322958 -0.021651
C53   C     C_R   0.258773 0.921534 0.310440 -0.020548
C54   C     C_R   0.082328 0.344684 0.309632 -0.023502
C55   C     C_R   0.719995 0.855157 0.297419 -0.099936
C56   C     C_R   0.172687 0.831861 0.284813 -0.101789
C57   C     C_R   0.168690 0.341184 0.284789 -0.101666
C58   C     C_R   0.709696 0.675213 0.297354 0.455631
C59   C     C_R   0.342503 0.010880 0.283921 0.446928
C60   C     C_R   0.998364 0.347878 0.282457 0.445314
C61   C     C_R   0.720346 0.680019 0.246682 0.251913
C62   C     C_R   0.341787 0.011589 0.232892 0.253373
C63   C     C_R   0.000011 0.348888 0.231424 0.227258
C64   C     C_R   0.737606 0.776212 0.220897 -0.039154
C65   C     C_R   0.253434 0.923826 0.206909 -0.034100
C66   C     C_R   0.082622 0.338092 0.206083 -0.038212
C67   C     C_3   0.581393 0.871770 0.738454 -0.165226
C68   C     C_3   0.130209 0.708646 0.739151 -0.166225
C69   C     C_3   0.290959 0.421384 0.738954 -0.166156
C70   C     C_R   0.745515 0.867044 0.247383 -0.041546
C71   C     C_R   0.166439 0.836397 0.233574 -0.048569
C72   C     C_R   0.164516 0.329827 0.233602 -0.045399
C73   C     C_R   0.744332 0.784744 0.169666 0.252285
C74   C     C_R   0.245168 0.920834 0.155468 0.255769
C75   C     C_R   0.085221 0.330296 0.154654 0.251237
C76   C     C_R   0.638582 0.815143 0.392563 -0.030039
C77   C     C_R   0.194529 0.814135 0.385609 -0.027270
C78   C     C_R   0.185476 0.380785 0.385536 -0.030618
C79   C     C_3   0.772471 0.908110 0.717928 -0.185268
C80   C     C_3   0.092297 0.863218 0.717947 -0.185488
C81   C     C_3   0.137002 0.228335 0.718677 -0.185294
C82   C     C_3   0.802290 0.925750 0.772659 0.229161
C83   C     C_3   0.075242 0.876128 0.772619 0.229570
C84   C     C_3   0.124032 0.199065 0.773510 0.229186
C85   C     C_1   0.777849 0.888784 0.896431 0.107597
C86   C     C_1   0.112071 0.888642 0.896547 0.109341
C87   C     C_1   0.111185 0.224195 0.896760 0.109202
C88   C     C_3   0.648157 0.825877 0.711641 -0.088935
C89   C     C_3   0.174872 0.821537 0.711862 -0.088996
C90   C     C_3   0.178704 0.353077 0.711842 -0.088614
C91   C     C_3   0.612222 0.890449 0.793982 0.567227
C92   C     C_3   0.111017 0.720770 0.794577 0.565932
C93   C     C_3   0.278785 0.390703 0.794550 0.566313
C94   C     C_3   0.699608 0.854302 0.805220 0.069989
C95   C     C_3   0.146545 0.844737 0.805411 0.070209
C96   C     C_3   0.155429 0.302733 0.805577 0.070083
Cr1   Cr    Cr6+3 0.164410 0.584450 0.499910 1.111337
Cr2   Cr    Cr6+3 0.415550 0.579960 0.499910 1.112982
Cr3   Cr    Cr6+3 0.420040 0.835590 0.499910 1.109435
Cr4   Cr    Cr6+3 0.155170 0.075460 0.019960 1.136934
Cr5   Cr    Cr6+3 0.924540 0.079710 0.019960 1.155758
Cr6   Cr    Cr6+3 0.920290 0.844830 0.019960 1.143419
H1    H     H_    0.491563 0.812660 0.733634 0.118135
H2    H     H_    0.189822 0.678483 0.734697 0.118350
H3    H     H_    0.321154 0.511521 0.733909 0.117848
H4    H     H_    0.837230 0.062640 0.157072 0.157968
H5    H     H_    0.979707 0.709983 0.141740 0.175029
H6    H     H_    0.280543 0.253311 0.143630 0.170820
H7    H     H_    0.631025 0.965775 0.384699 0.221115
H8    H     H_    0.051971 0.650278 0.379077 0.227218
H9    H     H_    0.344452 0.391735 0.380272 0.224040
H10   H     H_    0.786755 0.128686 0.230707 0.204433
H11   H     H_    0.924993 0.592965 0.215541 0.235067
H12   H     H_    0.391775 0.301235 0.218545 0.219499
H13   H     H_    0.598506 0.951474 0.721238 0.182610
H14   H     H_    0.051395 0.645378 0.722019 0.182097
H15   H     H_    0.353729 0.405000 0.722155 0.182085
H16   H     H_    0.821511 0.875607 0.699626 0.115361
H17   H     H_    0.123604 0.944703 0.699140 0.112588
H18   H     H_    0.056000 0.178157 0.699976 0.113920
H19   H     H_    0.794646 0.988806 0.700152 0.187180
H20   H     H_    0.012053 0.803892 0.700549 0.188792
H21   H     H_    0.195875 0.206595 0.701654 0.187941
H22   H     H_    0.867334 0.904819 0.780208 0.202757
H23   H     H_    0.096224 0.962584 0.779660 0.202976
H24   H     H_    0.038043 0.133782 0.780795 0.202821
H25   H     H_    0.531604 0.652209 0.730461 0.135159
H26   H     H_    0.348041 0.879962 0.730392 0.136236
H27   H     H_    0.120917 0.469301 0.729252 0.133499
H28   H     H_    0.667901 0.679663 0.716739 0.204882
H29   H     H_    0.318969 0.988546 0.716579 0.203818
H30   H     H_    0.012805 0.331278 0.716115 0.204648
H31   H     H_    0.570525 0.678938 0.811673 0.231085
H32   H     H_    0.320883 0.890321 0.811612 0.230989
H33   H     H_    0.110390 0.432678 0.810715 0.231095
O1    O     O_R   0.137150 0.468200 0.553200 -0.491008
O2    O     O_R   0.531800 0.668950 0.553200 -0.489241
O3    O     O_R   0.331050 0.862850 0.553200 -0.491694
O4    O     O_R   0.179100 0.982980 0.967000 -0.443165
O5    O     O_R   0.017020 0.196120 0.967000 -0.445918
O6    O     O_R   0.803880 0.820900 0.967000 -0.437429
O7    O     O_R   0.173970 0.688730 0.549930 -0.496528
O8    O     O_R   0.311270 0.485240 0.549930 -0.497755
O9    O     O_R   0.514760 0.826030 0.549930 -0.500094
O10   O     O_R   0.140110 0.470540 0.446010 -0.443491
O11   O     O_R   0.529460 0.669570 0.446010 -0.441776
O12   O     O_R   0.330430 0.859890 0.446010 -0.441970
O13   O     O_R   0.176710 0.690910 0.450560 -0.502521
O14   O     O_R   0.309090 0.485800 0.450560 -0.501652
O15   O     O_R   0.514200 0.823290 0.450560 -0.502694
O16   O     O_3   0.333333 0.666667 0.499990 -0.312334
O17   O     O_R   0.176750 0.985260 0.074180 -0.454011
O18   O     O_R   0.014740 0.191490 0.074180 -0.467485
O19   O     O_R   0.808510 0.823250 0.074180 -0.412530
O20   O     O_R   0.146100 0.172630 0.068980 -0.500786
O21   O     O_R   0.827370 0.973470 0.068980 -0.451986
O22   O     O_R   0.026530 0.853900 0.068980 -0.517384
O23   O     O_3   0.000000 0.000000 0.020040 -0.352862
O24   O     O_R   0.148270 0.170520 0.969620 -0.474567
O25   O     O_R   0.829480 0.977750 0.969620 -0.463302
O26   O     O_R   0.022250 0.851730 0.969620 -0.478042
F1    F     F_    0.655166 0.001905 0.804854 -0.473438
F2    F     F_    0.000148 0.652147 0.805362 -0.474009
F3    F     F_    0.346748 0.347735 0.805885 -0.474282
Cl1   Cl    Cl    0.490673 0.815988 0.830845 -0.457085
Cl2   Cl    Cl    0.184963 0.673358 0.831952 -0.458753
Cl3   Cl    Cl    0.326258 0.513087 0.831160 -0.458475
Cl4   Cl    Cl    0.733097 0.671254 0.807340 -0.392742
Cl5   Cl    Cl    0.328849 0.061641 0.807253 -0.390513
Cl6   Cl    Cl    0.939914 0.269198 0.806993 -0.390250
F4    F     F_    0.717678 0.114964 0.319842 -0.488865
F5    F     F_    0.924707 0.560687 0.308947 -0.475605
F6    F     F_    0.427399 0.341336 0.311258 -0.491713
Cl7   Cl    Cl    0.663481 0.663764 0.133978 -0.401005
Cl8   Cl    Cl    0.362648 0.985878 0.116907 -0.398683
Cl9   Cl    Cl    0.025661 0.386315 0.114466 -0.417543
Cl10  Cl    Cl    0.718297 0.564330 0.219139 -0.340492
Cl11  Cl    Cl    0.448844 0.132394 0.205078 -0.340515
Cl12  Cl    Cl    0.888250 0.352749 0.202998 -0.351374
F7    F     F_    0.691492 0.580794 0.320385 -0.440510
F8    F     F_    0.429957 0.095870 0.306951 -0.448263
F9    F     F_    0.916886 0.356864 0.304971 -0.426780
Cl13  Cl    Cl    0.713171 0.667570 0.411509 -0.386076
Cl14  Cl    Cl    0.338402 0.038996 0.397091 -0.375177
Cl15  Cl    Cl    0.962445 0.307753 0.395052 -0.358097
F10   F     F_    0.846028 0.036630 0.783651 -0.590494
F11   F     F_    0.965072 0.809430 0.783956 -0.589629
F12   F     F_    0.190231 0.155146 0.785469 -0.590148

loop_
_geom_bond_atom_site_label_1
_geom_bond_atom_site_label_2
_ccdc_geom_bond_type
C15   C18   T    
C30   C57   A    
C10   C85   T    
C61   Cl10  S    
C82   C94   S    
Cr2   O8    S    
C2    C18   S    
C33   C45   A    
C31   C43   A    
C24   O26   A    
C48   C75   A    
C27   C78   A    
Cr6   O23   S    
C6    C9    S    
C53   C59   A    
C67   H1    S    
C80   H20   S    
Cr4   O17   S    
C25   C28   A    
C79   H19   S    
C81   H18   S    
C67   C88   S    
C33   C39   A    
C20   O19   A    
C82   F10   S    
C60   C63   A    
C37   C40   A    
C69   C93   S    
C4    C7    S    
C34   C77   S    
C84   C96   S    
C92   Cl2   S    
C45   C48   A    
C22   O24   A    
C28   C40   A    
C11   C86   T    
C79   H16   S    
C22   O5    A    
C80   C89   S    
C63   Cl12  S    
C45   H6    S    
C35   O10   A    
C21   O17   A    
C73   Cl7   S    
C59   F8    S    
C67   H13   S    
C37   H10   S    
C1    O7    A    
C36   C76   S    
C33   C72   A    
C49   Cl13  S    
C34   O13   A    
C8    H26   S    
C31   C70   A    
C66   C72   A    
Cr5   O25   S    
C7    H28   S    
C64   C73   A    
C91   F1    S    
C3    O2    A    
Cr6   O6    S    
C32   C38   A    
C39   C42   A    
C26   H8    S    
C12   C87   T    
C44   C47   A    
C25   H7    S    
C56   C71   A    
C58   C61   A    
C63   C66   A    
C27   H9    S    
C21   C47   S    
C27   C30   A    
C60   F9    S    
C2    O8    A    
C14   C17   T    
C83   F11   S    
C21   O22   A    
C83   H23   S    
C80   C83   S    
Cr6   O22   S    
C82   H22   S    
C79   C88   S    
C5    C95   S    
C28   C55   A    
C32   C71   A    
Cr2   O16   S    
C24   O4    A    
C84   H24   S    
C5    H32   S    
C41   F5    S    
C26   C77   A    
C53   C56   A    
Cr2   O2    S    
C50   C53   A    
Cr3   O9    S    
C38   C41   A    
C38   H11   S    
C69   H3    S    
C19   C48   S    
C54   C60   A    
Cr2   O11   S    
Cr5   O21   S    
C65   C71   A    
Cr3   O16   S    
C92   C95   S    
C2    O1    A    
C65   C74   A    
C4    Cl4   S    
C43   H4    S    
C61   C64   A    
C64   C70   A    
C14   C89   S    
C6    H33   S    
C51   Cl15  S    
Cr4   O4    S    
Cr4   O23   S    
C5    C8    S    
C34   O12   A    
C7    C88   S    
Cr5   O18   S    
Cr3   O15   S    
C49   C52   A    
C83   C95   S    
C23   O25   A    
C8    H29   S    
C67   C91   S    
C68   C89   S    
Cr1   O16   S    
C49   C76   A    
Cr3   O3    S    
C22   C87   S    
C93   Cl3   S    
C52   C58   A    
C68   H14   S    
C4    C94   S    
C81   C90   S    
C92   F2    S    
C36   O11   A    
Cr5   O5    S    
Cr5   O23   S    
C93   C96   S    
C6    C96   S    
C19   O20   A    
C19   O18   A    
Cr1   O13   S    
C84   F12   S    
C69   C90   S    
C50   C77   A    
C81   C84   S    
Cr4   O20   S    
C6    Cl6   S    
C44   H5    S    
C11   C95   S    
Cr3   O12   S    
C59   C62   A    
C5    Cl5   S    
C20   O21   A    
C62   C65   A    
C29   C41   A    
C75   Cl9   S    
Cr1   O10   S    
C91   Cl1   S    
C50   Cl14  S    
C3    O9    A    
C68   H2    S    
C47   C74   A    
C42   F6    S    
C9    C90   S    
C62   Cl11  S    
C79   C82   S    
C52   C55   A    
C29   C56   A    
C9    H27   S    
C39   H12   S    
C35   C78   S    
C1    C17   S    
C93   F3    S    
C51   C54   A    
C25   C76   A    
C51   C78   A    
C74   Cl8   S    
Cr6   O19   S    
C15   C90   S    
Cr4   O24   S    
C36   O15   A    
Cr6   O26   S    
C66   C75   A    
C13   C88   S    
C69   H15   S    
C68   C92   S    
C30   C42   A    
C80   H17   S    
C46   C73   A    
C57   C72   A    
C43   C46   A    
C9    H30   S    
Cr1   O7    S    
C81   H21   S    
C55   C70   A    
C1    O3    A    
C31   C37   A    
C32   C44   A    
C26   C29   A    
C23   C85   S    
C13   C16   T    
C23   O6    A    
C10   C94   S    
C12   C96   S    
C58   F7    S    
C8    C89   S    
C35   O14   A    
Cr1   O1    S    
C7    H25   S    
C24   C86   S    
Cr2   O14   S    
C40   F4    S    
C20   C46   S    
C3    C16   S    
C4    H31   S    
C91   C94   S    
C54   C57   A    
