data_mof_unit_24718.cif
_audit_creation_date              2013-03-05T16:07:35-0500
_audit_creation_method            fapswitch 2.2
_symmetry_space_group_name_H-M    P1
_symmetry_Int_Tables_number       1
_space_group_crystal_system       triclinic
_cell_length_a                    21.648088
_cell_length_b                    7.062462
_cell_length_c                    14.886666
_cell_angle_alpha                 89.994718
_cell_angle_beta                  106.001581
_cell_angle_gamma                 89.998363
_cell_volume                      2187.8186057

loop_
_atom_site_label
_atom_site_type_symbol
_atom_site_description
_atom_site_fract_x
_atom_site_fract_y
_atom_site_fract_z
_atom_type_partial_charge
O1    O     O_R   0.585850 0.505770 0.002130 -0.612106
O2    O     O_R   0.414150 0.005770 0.997870 -0.612087
O3    O     O_R   0.467530 0.173560 0.861970 -0.587606
O4    O     O_R   0.532470 0.673560 0.138030 -0.587657
C1    C     C_R   0.455150 0.344385 0.825521 0.920600
C2    C     C_R   0.544855 0.844361 0.174477 0.920508
O5    O     O_R   0.588690 0.175900 0.993250 -0.561726
O6    O     O_R   0.411310 0.675900 0.006750 -0.561735
O7    O     O_R   0.536170 0.007950 0.130090 -0.588833
O8    O     O_R   0.463830 0.507950 0.869910 -0.588795
C3    C     C_R   0.614985 0.344491 0.997274 0.948539
C4    C     C_R   0.385019 0.844496 0.002752 0.948410
O9    O     O_3   0.482630 0.339970 0.044740 -0.253519
O10   O     O_3   0.517370 0.839970 0.955260 -0.253564
V1    V     V_3+5 0.503220 0.064200 0.991700 1.217842
V2    V     V_3+5 0.496780 0.564200 0.008300 1.217823
C5    C     C_R   0.293397 0.998828 0.049748 0.106569
C6    C     C_R   0.706607 0.498832 0.950300 0.106778
C7    C     C_R   0.317207 0.851060 0.006197 -0.244731
C8    C     C_R   0.682804 0.351064 0.993863 -0.244805
C9    C     C_R   0.274185 0.701930 0.969597 -0.095919
C10   C     C_R   0.725838 0.201962 0.030505 -0.095767
H1    H     H_    0.290362 0.580267 0.938309 0.122938
H2    H     H_    0.709670 0.080322 0.061830 0.122739
C11   C     C_R   0.208570 0.714341 0.967115 -0.181917
C12   C     C_R   0.791450 0.214372 0.032969 -0.181760
H3    H     H_    0.176478 0.601260 0.934482 0.133160
H4    H     H_    0.823550 0.101305 0.065621 0.133068
C13   C     C_R   0.184021 0.876319 0.001137 -0.207171
C14   C     C_R   0.815985 0.376329 0.998898 -0.207133
C15   C     C_R   0.228872 0.011841 0.046601 0.159862
C16   C     C_R   0.771125 0.511836 0.953416 0.159612
C17   C     C_3   0.229132 0.222799 0.043098 -0.613027
C18   C     C_3   0.770853 0.722799 0.956876 -0.613042
C19   C     C_3   0.300634 0.208868 0.048594 0.213705
C20   C     C_3   0.699360 0.708873 0.951436 0.213805
H5    H     H_    0.218825 0.287700 0.105492 0.219891
H6    H     H_    0.781128 0.787667 0.894448 0.219782
H7    H     H_    0.199480 0.277137 0.974790 0.176882
H8    H     H_    0.800523 0.777177 0.025158 0.176933
H9    H     H_    0.313486 0.262888 0.985933 0.051392
H10   H     H_    0.686532 0.762903 0.014110 0.051306
C21   C     C_R   0.927523 0.882820 0.724125 -0.081314
C22   C     C_R   0.072483 0.382666 0.275873 -0.081388
C23   C     C_R   0.574429 0.850644 0.275357 -0.164537
C24   C     C_R   0.425571 0.350778 0.724641 -0.164543
C25   C     C_R   0.940077 0.842951 0.569256 -0.176971
C26   C     C_R   0.059968 0.341028 0.430665 -0.176933
C27   C     C_R   0.967112 0.859643 0.665215 -0.181804
C28   C     C_R   0.032919 0.358242 0.334732 -0.181759
C29   C     C_R   0.860780 0.890279 0.687312 -0.237233
C30   C     C_R   0.139216 0.390785 0.312712 -0.237283
C31   C     C_R   0.831866 0.869722 0.590225 0.111135
C32   C     C_R   0.168149 0.369591 0.409762 0.111159
C33   C     C_R   0.873066 0.846861 0.531420 0.190556
C34   C     C_R   0.126972 0.345544 0.468519 0.190516
C35   C     C_R   0.763741 0.867765 0.549865 0.027824
C36   C     C_R   0.236275 0.368057 0.450122 0.027746
C37   C     C_R   0.738224 0.857023 0.450613 0.069687
C38   C     C_R   0.261796 0.356652 0.549352 0.069648
C39   C     C_R   0.781224 0.823350 0.396225 -0.165636
C40   C     C_R   0.218832 0.321904 0.603681 -0.165465
C41   C     C_R   0.847196 0.821492 0.435680 -0.259052
C42   C     C_R   0.152864 0.319554 0.564216 -0.259040
C43   C     C_R   0.720310 0.866739 0.605415 -0.160211
C44   C     C_R   0.279714 0.368048 0.394579 -0.160015
C45   C     C_R   0.654645 0.848064 0.565527 -0.162176
C46   C     C_R   0.345397 0.349721 0.434449 -0.161916
C47   C     C_R   0.629228 0.842693 0.468901 0.114404
C48   C     C_R   0.370811 0.343761 0.531072 0.114362
C49   C     C_R   0.670097 0.863559 0.409644 0.056517
C50   C     C_R   0.329912 0.363629 0.590341 0.056499
C51   C     C_R   0.562996 0.816030 0.431176 -0.174014
C52   C     C_R   0.437068 0.317550 0.568788 -0.173989
C53   C     C_R   0.536400 0.811191 0.335007 -0.146429
C54   C     C_R   0.463655 0.312253 0.664960 -0.146338
C55   C     C_R   0.640644 0.889661 0.312138 0.077035
C56   C     C_R   0.359319 0.389302 0.687882 0.077181
H11   H     H_    0.878256 0.796043 0.390899 0.134424
H12   H     H_    0.121831 0.293222 0.608948 0.134405
H13   H     H_    0.485499 0.782968 0.306945 0.149266
H14   H     H_    0.514587 0.284463 0.693004 0.149263
H15   H     H_    0.623225 0.838830 0.610808 0.188101
H16   H     H_    0.376828 0.341255 0.389155 0.187812
H17   H     H_    0.971585 0.824224 0.524576 0.122463
H18   H     H_    0.028479 0.321341 0.475304 0.122482
H19   H     H_    0.018846 0.853336 0.693640 0.105586
H20   H     H_    0.981197 0.351334 0.306282 0.105629
H21   H     H_    0.833127 0.912280 0.736533 0.105687
H22   H     H_    0.166850 0.413669 0.263539 0.105762
H23   H     H_    0.764972 0.786496 0.323246 0.145026
H24   H     H_    0.235131 0.284565 0.676602 0.145041
H25   H     H_    0.735594 0.869938 0.680577 0.167138
H26   H     H_    0.264427 0.371778 0.319422 0.167075
H27   H     H_    0.531913 0.794387 0.476253 0.135847
H28   H     H_    0.468184 0.296673 0.523697 0.135865
O11   O     O_R   0.036080 0.231270 0.130120 -0.590733
O12   O     O_R   0.963920 0.731270 0.869880 -0.590736
O13   O     O_R   0.911300 0.558970 0.006750 -0.593639
O14   O     O_R   0.088700 0.058970 0.993250 -0.593635
C57   C     C_R   0.884909 0.389833 0.002048 0.938557
C58   C     C_R   0.115093 0.889830 0.997961 0.938554
O15   O     O_R   0.032450 0.561140 0.138040 -0.593029
O16   O     O_R   0.967550 0.061140 0.861960 -0.593002
O17   O     O_R   0.085870 0.728910 0.002130 -0.594267
O18   O     O_R   0.914130 0.228910 0.997870 -0.594247
C59   C     C_R   0.044697 0.392414 0.174890 0.921999
C60   C     C_R   0.955309 0.892438 0.825109 0.922008
O19   O     O_3   0.017320 0.394650 0.955270 -0.281954
O20   O     O_3   0.982680 0.894650 0.044730 -0.281967
V3    V     V_3+5 0.996780 0.670490 0.008300 1.162882
V4    V     V_3+5 0.003220 0.170490 0.991700 1.162916
N1    N     N_R   0.341862 0.280291 0.137188 0.253502
O21   O     O_R   0.379646 0.423398 0.137534 -0.383495
O22   O     O_R   0.340769 0.203538 0.216244 -0.442540
N2    N     N_R   0.658106 0.780297 0.862853 0.253567
O23   O     O_R   0.620471 0.923785 0.862499 -0.383396
O24   O     O_R   0.659037 0.703187 0.783815 -0.442780
N3    N     N_2   0.675474 0.972082 0.253352 -0.124377
H29   H     H_    0.662209 0.928516 0.184616 0.144264
C61   C     C_3   0.684047 0.174889 0.263719 -0.878273
H30   H     H_    0.716311 0.224567 0.222217 0.228672
H31   H     H_    0.706472 0.212786 0.338016 0.257839
H32   H     H_    0.636986 0.248053 0.238397 0.258646
N4    N     N_2   0.324393 0.470972 0.746727 -0.124322
H33   H     H_    0.337718 0.427240 0.815442 0.144226
C62   C     C_3   0.315551 0.673718 0.736464 -0.878828
H34   H     H_    0.283118 0.722700 0.777837 0.228865
H35   H     H_    0.293185 0.711751 0.662164 0.257902
H36   H     H_    0.362499 0.747389 0.761990 0.258481

loop_
_geom_bond_atom_site_label_1
_geom_bond_atom_site_label_2
_geom_bond_distance
_ccdc_geom_bond_type
C44   C46   1.387647 A    
C45   H15   1.083544 S    
C2    C23   1.461875 S    
C51   C53   1.388459 A    
C27   H19   1.083519 S    
C31   C33   1.420678 A    
C20   H10   1.111803 S    
O1    C3    1.313594 A    
O16   C60   1.307940 A    
O2    C4    1.313606 A    
C2    O7    1.318386 A    
C24   C54   1.395336 A    
C25   C27   1.391461 A    
C41   H11   1.084412 S    
O5    C3    1.313985 A    
C17   H7    1.110590 S    
C52   C54   1.388546 A    
C18   H8    1.110592 S    
C25   H17   1.084110 S    
O15   V3    2.024949 S    
C7    C9    1.412073 A    
O19   V3    2.193131 S    
C35   C37   1.429689 A    
C38   C50   1.432850 A    
C36   C38   1.429642 A    
O12   C60   1.306106 A    
N2    O23   1.299355 A    
C14   C57   1.482892 S    
C58   O17   1.310479 A    
C38   C40   1.412132 A    
C47   C49   1.418785 A    
O20   V3    1.727702 S    
C61   H32   1.111388 S    
C50   C56   1.427250 A    
C17   C19   1.530517 S    
C30   H22   1.077625 S    
C36   C44   1.413016 A    
C43   C45   1.387577 A    
C33   C41   1.391789 A    
C48   C52   1.400996 A    
C40   C42   1.386466 A    
C34   C42   1.391795 A    
C47   C51   1.400965 A    
C18   C20   1.530518 S    
C28   H20   1.083518 S    
C44   H26   1.076045 S    
C22   C30   1.397941 A    
C26   C28   1.391446 A    
O17   V3    1.998996 S    
C25   C33   1.404261 A    
O6    V2    2.005668 S    
C42   H12   1.084419 S    
O14   C58   1.317633 A    
C30   C32   1.415297 A    
N3    C61   1.447085 S    
C11   C13   1.412822 A    
C32   C34   1.420703 A    
C3    C8    1.483677 S    
C37   C39   1.412151 A    
C48   C50   1.418736 A    
C46   H16   1.083572 S    
C52   H28   1.084131 S    
O4    C2    1.319590 A    
O19   V4    1.727626 S    
C54   H14   1.083835 S    
C24   C56   1.413416 A    
O11   V4    2.031856 S    
C31   C35   1.430963 A    
C53   H13   1.083834 S    
C26   H18   1.084119 S    
O18   V4    1.998977 S    
O3    C1    1.319637 A    
C17   H5    1.112182 S    
C40   H24   1.077597 S    
C29   C31   1.415295 A    
C16   C18   1.490876 S    
O4    V2    2.025055 S    
C62   H35   1.111160 S    
O6    C4    1.313965 A    
O13   V3    2.005410 S    
C15   C17   1.490859 S    
O1    V2    1.998568 S    
O2    V1    1.998587 S    
C61   H30   1.109290 S    
O13   C57   1.317648 A    
C8    C10   1.412074 A    
C12   C14   1.412850 A    
C9    H1    1.080690 S    
N4    H33   1.030661 S    
C5    C15   1.387705 A    
C10   H2    1.080698 S    
C6    C16   1.387672 A    
C51   H27   1.084144 S    
C62   H34   1.109244 S    
C20   N2    1.463406 S    
C49   C55   1.427296 A    
O3    V1    2.024901 S    
O16   V4    2.025103 S    
N1    O21   1.299345 A    
C32   C36   1.430961 A    
C22   C59   1.458736 S    
C22   C28   1.394559 A    
C57   O18   1.310480 A    
C26   C34   1.404244 A    
C9    C11   1.413410 A    
O12   V3    2.031768 S    
C18   H6    1.112183 S    
C39   C41   1.386483 A    
C21   C27   1.394549 A    
C35   C43   1.412997 A    
C55   N3    1.427204 S    
O15   C59   1.307995 A    
N3    H29   1.030652 S    
O14   V4    2.005367 S    
C11   H3    1.081890 S    
C1    C24   1.461907 S    
C12   H4    1.081895 S    
C23   C53   1.395318 A    
O7    V1    2.024981 S    
C62   H36   1.111391 S    
C1    O8    1.318364 A    
C13   C15   1.398119 A    
O8    V2    2.025064 S    
C29   H21   1.077608 S    
C14   C16   1.398114 A    
C21   C29   1.397916 A    
C4    C7    1.483694 S    
O5    V1    2.005711 S    
C43   H25   1.076034 S    
C5    C7    1.399795 A    
N2    O24   1.301774 A    
C13   C58   1.482892 S    
C19   N1    1.463429 S    
C6    C8    1.399764 A    
C21   C60   1.458726 S    
C19   H9    1.111804 S    
O20   V4    2.193025 S    
C61   H31   1.111160 S    
O11   C59   1.306065 A    
C46   C48   1.391811 A    
C10   C12   1.413434 A    
O9    V2    1.728417 S    
N4    C62   1.447103 S    
O10   V1    1.728493 S    
C23   C55   1.413431 A    
C5    C19   1.492249 S    
C45   C47   1.391742 A    
C56   N4    1.427221 S    
C6    C20   1.492260 S    
C39   H23   1.077563 S    
C37   C49   1.432924 A    
N1    O22   1.301800 A    
