data_mof_unit_38651.cif
_audit_creation_date              2012-12-10T17:54:21-0500
_audit_creation_method            fapswitch 2.2
_symmetry_space_group_name_H-M    P1
_symmetry_Int_Tables_number       1
_space_group_crystal_system       triclinic
_cell_length_a                    27.741724
_cell_length_b                    10.717562
_cell_length_c                    9.87037
_cell_angle_alpha                 89.271416
_cell_angle_beta                  90.04054
_cell_angle_gamma                 91.711879
_cell_volume                      2933.14729513

loop_
_atom_site_label
_atom_site_type_symbol
_atom_type_description
_atom_site_fract_x
_atom_site_fract_y
_atom_site_fract_z
_atom_type_partial_charge
C1    C     C_R   0.502948 0.259787 0.501966 0.875292
C2    C     C_R   0.278064 0.498658 0.376289 -0.103183
C3    C     C_R   0.252971 0.490103 0.498875 0.323610
C4    C     C_R   0.101789 0.487833 0.496099 -0.054445
C5    C     C_R   0.126247 0.376404 0.520072 -0.021080
C6    C     C_R   0.100010 0.265124 0.543275 -0.136476
C7    C     C_R   0.128483 0.599977 0.473404 -0.021886
C8    C     C_R   0.353391 0.496248 0.499717 -0.037241
C9    C     C_R   0.646616 0.497724 0.500208 -0.092327
C10   C     C_R   0.973354 0.371377 0.502059 -0.003017
C11   C     C_R   0.975702 0.601156 0.485533 0.055093
C12   C     C_R   0.406049 0.499176 0.499948 0.852351
C13   C     C_R   0.949172 0.485727 0.493921 0.069568
C14   C     C_R   0.945759 0.258916 0.498471 -0.190121
C15   C     C_R   0.895681 0.256901 0.496206 0.115998
C16   C     C_R   0.870868 0.370643 0.496615 -0.061262
C17   C     C_R   0.898023 0.484967 0.494438 -0.072245
C18   C     C_R   0.874035 0.599277 0.492910 -0.010520
C19   C     C_R   0.823803 0.598604 0.494740 0.493893
C20   C     C_R   0.820039 0.375772 0.498069 0.490076
C21   C     C_R   0.722051 0.491999 0.624014 0.143830
C22   C     C_R   0.671950 0.495480 0.623415 -0.186161
C23   C     C_R   0.494914 0.738835 0.499702 0.893686
C24   C     C_R   0.671922 0.496639 0.377180 -0.213019
C25   C     C_R   0.721888 0.493167 0.377339 -0.120433
C26   C     C_R   0.746960 0.490761 0.500029 0.295684
C27   C     C_R   0.024342 0.372605 0.511816 0.055795
C28   C     C_R   0.050739 0.487166 0.494949 0.075719
C29   C     C_R   0.026656 0.601114 0.477124 0.045478
C30   C     C_R   0.050020 0.263041 0.539656 -0.220138
C31   C     C_R   0.104501 0.710616 0.449128 -0.134931
C32   C     C_R   0.950279 0.713305 0.487560 -0.217565
C33   C     C_R   0.900442 0.712112 0.490940 -0.137758
C34   C     C_R   0.593963 0.499911 0.500063 0.894327
C35   C     C_R   0.054546 0.711408 0.450616 -0.219018
C36   C     C_R   0.508243 0.107279 0.762334 -0.159304
C37   C     C_R   0.492208 0.044103 0.879027 -0.143650
C38   C     C_R   0.466842 0.931025 0.868060 -0.153483
C39   C     C_R   0.461900 0.875525 0.741778 -0.145940
C40   C     C_R   0.482242 0.933755 0.624428 0.098901
C41   C     C_R   0.498686 0.057901 0.631771 0.096876
C42   C     C_R   0.504621 0.125733 0.507595 -0.119176
C43   C     C_R   0.504319 0.064257 0.383522 -0.213159
C44   C     C_R   0.498098 0.937338 0.380580 -0.209189
C45   C     C_R   0.176691 0.379303 0.521159 0.503997
C46   C     C_R   0.488612 0.871247 0.500671 -0.128137
C47   C     C_R   0.436261 0.337085 0.142381 -0.174965
C48   C     C_R   0.404791 0.257339 0.072785 -0.207657
C49   C     C_R   0.404757 0.257647 0.932604 -0.181738
C50   C     C_R   0.436306 0.337414 0.861308 -0.169519
C51   C     C_R   0.468594 0.419745 0.928516 0.151534
C52   C     C_R   0.468594 0.419703 0.073374 0.168250
C53   C     C_R   0.529907 0.577107 0.070625 -0.126122
C54   C     C_R   0.529889 0.577079 0.927218 -0.118368
C55   C     C_R   0.178859 0.598499 0.474684 0.504906
C56   C     C_R   0.277795 0.484015 0.621889 -0.101223
C57   C     C_R   0.327895 0.487201 0.622525 -0.225032
C58   C     C_R   0.328139 0.501474 0.376482 -0.218187
H1    H     H_    0.346976 0.508075 0.280453 0.167115
H2    H     H_    0.258195 0.477534 0.716684 0.138855
H3    H     H_    0.124272 0.797561 0.428819 0.192074
H4    H     H_    0.967840 0.804234 0.490334 0.141504
H5    H     H_    0.653189 0.498303 0.280891 0.169194
H6    H     H_    0.882655 0.800761 0.492272 0.193525
H7    H     H_    0.741278 0.492432 0.282172 0.144490
H8    H     H_    0.038886 0.799876 0.427200 0.141910
H9    H     H_    0.509570 0.113892 0.288054 0.171813
H10   H     H_    0.529469 0.191941 0.777504 0.172854
H11   H     H_    0.498666 0.084256 0.977755 0.145400
H12   H     H_    0.258673 0.503233 0.281178 0.138570
H13   H     H_    0.452453 0.884260 0.957777 0.141692
H14   H     H_    0.442027 0.787284 0.736917 0.161484
H15   H     H_    0.501705 0.891032 0.284288 0.169400
H16   H     H_    0.554293 0.640000 0.123940 0.149271
H17   H     H_    0.434053 0.330995 0.249785 0.210561
H18   H     H_    0.380353 0.194746 0.128151 0.163825
H19   H     H_    0.380427 0.194997 0.878573 0.165658
H20   H     H_    0.434630 0.330752 0.754004 0.211557
H21   H     H_    0.554247 0.640001 0.872201 0.156814
H22   H     H_    0.118021 0.178717 0.564608 0.190673
H23   H     H_    0.652984 0.496221 0.719318 0.170762
H24   H     H_    0.962178 0.169216 0.493597 0.150574
H25   H     H_    0.032552 0.174248 0.562957 0.140053
H26   H     H_    0.346558 0.482478 0.718799 0.165421
N1    N     N_R   0.201660 0.489237 0.498404 -0.358586
N2    N     N_R   0.798261 0.488257 0.497905 -0.353778
N3    N     N_R   0.499540 0.498800 0.142780 -0.122499
N4    N     N_R   0.499520 0.498720 0.857170 -0.127787
O1    O     O_R   0.500000 0.316780 0.614690 -0.653799
O2    O     O_2   0.792143 0.270622 0.500205 -0.578082
O3    O     O_2   0.204965 0.705251 0.453243 -0.552140
O4    O     O_2   0.800402 0.707324 0.493605 -0.559246
O5    O     O_R   0.500000 0.316750 0.385360 -0.638588
O6    O     O_R   0.428760 0.500030 0.614650 -0.647081
O7    O     O_R   0.428750 0.500010 0.385320 -0.640197
O8    O     O_R   0.500000 0.683250 0.614640 -0.622965
O9    O     O_R   0.500000 0.683220 0.385310 -0.618419
O10   O     O_R   0.571250 0.499990 0.614680 -0.621887
O11   O     O_R   0.571240 0.499970 0.385350 -0.615917
O12   O     O_2   0.200698 0.273312 0.543812 -0.554195
Zn1   Zn    Zn3+2 0.500000 0.500020 0.653130 0.928186
Zn2   Zn    Zn3+2 0.500000 0.499980 0.346870 0.938765
N5    N     N_3   0.747067 0.489833 0.750924 -0.463315
H27   H     H_    0.770835 0.567294 0.753839 0.203774
H28   H     H_    0.767425 0.409366 0.755303 0.203923
N6    N     N_3   0.871794 0.136446 0.493029 -0.451291
H29   H     H_    0.850562 0.129882 0.405748 0.241359
H30   H     H_    0.850735 0.123666 0.580133 0.241526

loop_
_geom_bond_atom_site_label_1
_geom_bond_atom_site_label_2
_ccdc_geom_bond_type
C10   C27   A    
C21   C26   A    
C37   H11   S    
C3    N1    S    
C41   C42   A    
C48   H18   S    
C53   H16   S    
C7    C55   A    
C19   N2    A    
N4    Zn1   S    
C53   C54   A    
C23   O8    A    
C40   C46   A    
C28   C29   A    
C15   N6    S    
C36   C37   A    
C5    C6    A    
C9    C22   A    
N6    H29   S    
C15   C16   A    
C56   C57   A    
C18   C19   A    
C30   H25   S    
C31   H3    S    
C55   O3    S    
C19   O4    S    
C8    C58   A    
O6    Zn1   S    
C16   C17   A    
C20   N2    A    
C39   H14   S    
C12   O7    A    
C8    C12   S    
O9    Zn2   S    
O7    Zn2   S    
C16   C20   A    
O1    Zn1   S    
C23   C46   S    
C5    C45   A    
C21   C22   A    
C27   C30   A    
C12   O6    A    
C36   C41   A    
C4    C7    A    
C50   H20   S    
C4    C28   A    
C44   C46   A    
C17   C18   A    
C7    C31   A    
C51   C52   A    
C22   H23   S    
C25   H7    S    
C24   C25   A    
C53   N3    A    
C10   C14   A    
C39   C40   A    
C35   H8    S    
C50   C51   A    
C58   H1    S    
C20   O2    S    
C45   O12   S    
C56   H2    S    
C55   N1    A    
C45   N1    A    
C43   C44   A    
C37   C38   A    
C8    C57   A    
N3    Zn2   S    
C3    C56   A    
C6    H22   S    
C47   C48   A    
C26   N2    S    
C36   H10   S    
C34   O11   A    
C57   H26   S    
N5    H28   S    
C43   H9    S    
C48   C49   A    
C23   O9    A    
C11   C32   A    
C24   H5    S    
C9    C34   S    
C31   C35   A    
C42   C43   A    
C14   H24   S    
N5    H27   S    
C54   H21   S    
C51   N4    A    
C38   H13   S    
C40   C41   A    
C1    O1    A    
C6    C30   A    
C52   N3    A    
C4    C5    A    
C10   C13   A    
O5    Zn2   S    
C2    C58   A    
C9    C24   A    
C47   C52   A    
O10   Zn1   S    
C29   C35   A    
C13   C17   A    
C32   C33   A    
C2    C3    A    
C25   C26   A    
C47   H17   S    
C2    H12   S    
C54   N4    A    
C11   C13   A    
C38   C39   A    
N6    H30   S    
C33   H6    S    
C34   O10   A    
C49   H19   S    
C44   H15   S    
C18   C33   A    
C32   H4    S    
C21   N5    S    
C1    C42   S    
O11   Zn2   S    
C11   C29   A    
C1    O5    A    
C49   C50   A    
C27   C28   A    
C14   C15   A    
O8    Zn1   S    
