data_mof_unit_38324.cif
_audit_creation_date              2012-12-10T19:49:44-0500
_audit_creation_method            fapswitch 2.2
_symmetry_space_group_name_H-M    P1
_symmetry_Int_Tables_number       1
_space_group_crystal_system       triclinic
_cell_length_a                    10.855888
_cell_length_b                    16.078227
_cell_length_c                    17.26613
_cell_angle_alpha                 97.497001
_cell_angle_beta                  90.909837
_cell_angle_gamma                 92.37808
_cell_volume                      2984.66462029

loop_
_atom_site_label
_atom_site_type_symbol
_atom_type_description
_atom_site_fract_x
_atom_site_fract_y
_atom_site_fract_z
_atom_type_partial_charge
C1    C     C_R   0.504686 0.488763 0.349754 0.842018
C2    C     C_R   0.498172 0.511226 0.650252 0.837442
C3    C     C_R   0.871092 0.497682 0.494433 -0.082642
C4    C     C_R   0.128475 0.502241 0.501083 -0.088318
C5    C     C_R   0.934051 0.423770 0.469424 0.020701
C6    C     C_R   0.065138 0.576479 0.523667 0.015126
C7    C     C_R   0.520518 0.482566 0.265176 -0.161419
C8    C     C_R   0.489731 0.517250 0.735043 -0.149509
C9    C     C_R   0.591920 0.544094 0.232269 0.247777
C10   C     C_R   0.412124 0.460437 0.769546 0.252002
C11   C     C_R   0.601505 0.538350 0.150878 0.064059
C12   C     C_R   0.409611 0.465252 0.851152 0.063742
C13   C     C_R   0.537119 0.472450 0.102517 0.047806
C14   C     C_R   0.485586 0.526177 0.897799 0.048234
C15   C     C_R   0.470452 0.409700 0.135848 0.263977
C16   C     C_R   0.560032 0.583949 0.862939 0.274832
C17   C     C_R   0.463792 0.414781 0.216897 -0.333811
C18   C     C_R   0.561277 0.579181 0.781752 -0.353684
C19   C     C_2   0.537119 0.469133 0.017248 -0.184246
C20   C     C_2   0.487519 0.530092 0.982996 -0.183401
C21   C     C_R   0.443427 0.740751 0.455323 0.075841
C22   C     C_R   0.557700 0.253570 0.540140 0.055990
C23   C     C_R   0.262490 0.500805 0.501119 0.787047
C24   C     C_R   0.737310 0.499119 0.497529 0.769671
C25   C     C_R   0.430262 0.826509 0.454231 0.021629
C26   C     C_R   0.562400 0.166617 0.536600 0.020997
C27   C     C_R   0.487276 0.883913 0.514032 0.035407
C28   C     C_R   0.490112 0.114682 0.479477 0.048003
C29   C     C_R   0.562251 0.853650 0.570307 0.176457
C30   C     C_R   0.412109 0.151542 0.428951 0.114286
C31   C     C_R   0.580228 0.766646 0.565546 0.266794
C32   C     C_R   0.411085 0.240103 0.435099 0.306980
C33   C     C_2   0.465654 0.974874 0.521568 -0.175293
C34   C     C_2   0.502784 0.022699 0.467753 -0.157202
C35   C     C_R   0.222488 0.757255 0.657919 0.325782
C36   C     C_R   0.732439 0.260434 0.339801 0.335279
C37   C     C_R   0.179294 0.675426 0.627304 -0.119088
C38   C     C_R   0.793155 0.336902 0.370336 -0.161079
C39   C     C_R   0.125206 0.659536 0.552110 0.078835
C40   C     C_R   0.871684 0.342422 0.436497 0.091360
C41   C     C_R   0.112199 0.726153 0.508039 -0.157415
C42   C     C_R   0.894153 0.269403 0.469990 -0.167720
C43   C     C_R   0.152500 0.807453 0.538624 -0.174698
C44   C     C_R   0.836764 0.192762 0.439121 -0.200350
C45   C     C_R   0.208022 0.822967 0.612786 -0.191026
C46   C     C_R   0.754979 0.188151 0.375314 -0.143034
C47   C     C_R   0.937461 0.572760 0.520158 -0.246884
C48   C     C_R   0.062064 0.427183 0.474351 -0.244396
Cu1   Cu    Cu3+1 0.493640 0.415410 0.495980 0.972688
Cu2   Cu    Cu3+1 0.506360 0.584590 0.504020 0.938342
H1    H     H_    0.238061 0.886646 0.635556 0.114094
H2    H     H_    0.710460 0.127888 0.354323 0.131783
H3    H     H_    0.393147 0.696670 0.412364 0.166968
H4    H     H_    0.615372 0.293937 0.582251 0.160048
H5    H     H_    0.543552 0.994618 0.414111 0.146723
H6    H     H_    0.426686 0.004193 0.575375 0.154389
H7    H     H_    0.182382 0.624905 0.662744 0.108490
H8    H     H_    0.777212 0.392660 0.343369 0.092984
H9    H     H_    0.067334 0.715409 0.450901 0.135961
H10   H     H_    0.955694 0.271942 0.520326 0.135521
H11   H     H_    0.138504 0.858921 0.505398 0.137708
H12   H     H_    0.854891 0.136758 0.465229 0.142013
H13   H     H_    0.889616 0.629432 0.539538 0.158333
H14   H     H_    0.110217 0.370799 0.454768 0.163929
H15   H     H_    0.620801 0.622695 0.755071 0.176611
H16   H     H_    0.409851 0.367227 0.241948 0.182896
H17   H     H_    0.451618 0.584745 0.017610 0.155802
H18   H     H_    0.570627 0.413836 0.982274 0.159679
N1    N     N_R   0.515930 0.711660 0.510070 -0.228193
N2    N     N_R   0.484070 0.288340 0.489930 -0.204762
O1    O     O_R   0.494030 0.420280 0.382610 -0.556482
O2    O     O_R   0.505970 0.579720 0.617390 -0.603388
O3    O     O_R   0.504770 0.563150 0.389400 -0.567515
O4    O     O_R   0.495230 0.436850 0.610600 -0.560532
O5    O     O_R   0.314270 0.428570 0.496610 -0.554986
O6    O     O_R   0.685730 0.571430 0.503390 -0.601046
O7    O     O_R   0.325020 0.571440 0.503400 -0.584787
O8    O     O_R   0.674980 0.428560 0.496600 -0.580933
N3    N     N_2   0.405908 0.342884 0.087771 -0.434223
H19   H     H_    0.419707 0.284979 0.105233 0.246102
C49   C     C_3   0.276257 0.356479 0.077008 -0.710419
H20   H     H_    0.227286 0.354561 0.132844 0.222792
H21   H     H_    0.235202 0.306462 0.032575 0.230008
H22   H     H_    0.263501 0.418242 0.056440 0.237853
N4    N     N_2   0.636411 0.645683 0.909475 -0.432649
H23   H     H_    0.635440 0.703932 0.890545 0.248771
C50   C     C_3   0.760790 0.620026 0.920908 -0.701121
H24   H     H_    0.810483 0.614651 0.864792 0.224920
H25   H     H_    0.759803 0.558559 0.943786 0.235286
H26   H     H_    0.810905 0.667503 0.963805 0.229665
N5    N     N_3   0.325256 0.410310 0.885519 -0.608937
H27   H     H_    0.268113 0.446871 0.922952 0.226302
H28   H     H_    0.375152 0.371914 0.917628 0.246470
N6    N     N_3   0.682448 0.597380 0.118913 -0.606262
H29   H     H_    0.631400 0.633453 0.085147 0.244151
H30   H     H_    0.746132 0.564120 0.083770 0.228868
N7    N     N_3   0.334551 0.280443 0.384426 -0.532101
H31   H     H_    0.243120 0.259454 0.389803 0.188440
H32   H     H_    0.361147 0.263078 0.326909 0.197877
N8    N     N_3   0.664479 0.738113 0.620319 -0.608956
H33   H     H_    0.670410 0.673643 0.610847 0.271197
H34   H     H_    0.752634 0.761573 0.608894 0.181617
N9    N     N_2   0.621411 0.911314 0.630506 -0.430351
H35   H     H_    0.714073 0.902565 0.638286 0.255841
C51   C     C_3   0.556432 0.921011 0.703374 -0.696902
H36   H     H_    0.557186 0.862044 0.730441 0.243908
H37   H     H_    0.459610 0.937595 0.693654 0.216921
H38   H     H_    0.602509 0.972320 0.744290 0.224210
N10   N     N_2   0.335194 0.099477 0.373153 -0.434753
H39   H     H_    0.323625 0.121831 0.320381 0.244051
C52   C     C_3   0.219914 0.071018 0.403872 -0.710367
H40   H     H_    0.159968 0.124777 0.419333 0.217023
H41   H     H_    0.236516 0.039937 0.456623 0.235529
H42   H     H_    0.171206 0.024942 0.359039 0.227532
N11   N     N_3   0.644245 0.133107 0.589431 -0.599067
H43   H     H_    0.702236 0.092025 0.557200 0.233307
H44   H     H_    0.591808 0.099145 0.625755 0.243782
N12   N     N_3   0.354892 0.852760 0.393780 -0.603083
H45   H     H_    0.410745 0.886078 0.358751 0.233142
H46   H     H_    0.289324 0.892825 0.419184 0.234353
N13   N     N_2   0.271129 0.775542 0.735823 -0.446953
H47   H     H_    0.292068 0.838289 0.754094 0.241272
C53   C     C_3   0.364517 0.721306 0.758336 -0.682878
H48   H     H_    0.401051 0.745416 0.817841 0.218191
H49   H     H_    0.441841 0.719759 0.716917 0.256293
H50   H     H_    0.324831 0.656971 0.760218 0.236313
N14   N     N_2   0.647532 0.259328 0.275421 -0.429957
H51   H     H_    0.660754 0.307544 0.242034 0.251688
C54   C     C_3   0.605832 0.179916 0.231708 -0.746488
H52   H     H_    0.544311 0.191411 0.182592 0.221100
H53   H     H_    0.551629 0.141896 0.269484 0.233198
H54   H     H_    0.685814 0.145056 0.207453 0.232055
N15   N     N_2   0.654278 0.611871 0.280977 -0.397980
H55   H     H_    0.653986 0.668564 0.259080 0.266939
C55   C     C_3   0.775296 0.593281 0.308452 -0.637077
H56   H     H_    0.813487 0.647288 0.349735 0.219861
H57   H     H_    0.838485 0.581644 0.258563 0.222455
H58   H     H_    0.769613 0.537416 0.339774 0.206574
N16   N     N_2   0.335889 0.398868 0.722094 -0.399406
H59   H     H_    0.324694 0.342302 0.743807 0.270028
C56   C     C_3   0.220474 0.429281 0.696689 -0.650905
H60   H     H_    0.170875 0.379193 0.656157 0.223743
H61   H     H_    0.237431 0.484296 0.665158 0.203085
H62   H     H_    0.161638 0.447271 0.747733 0.222927

loop_
_geom_bond_atom_site_label_1
_geom_bond_atom_site_label_2
_ccdc_geom_bond_type
C55   H58   S    
C21   H3    S    
C50   H24   S    
C27   C29   A    
C53   H48   S    
C12   N5    S    
C19   C20   D    
C25   N12   S    
N7    H31   S    
C55   H56   S    
C39   C41   A    
N4    H23   S    
C27   C33   S    
C18   H15   S    
C51   H37   S    
C17   H16   S    
C1    O1    A    
C35   C37   A    
Cu2   N1    S    
C32   N7    S    
N10   C52   S    
C47   H13   S    
C53   H49   S    
C45   H1    S    
N11   H43   S    
C46   H2    S    
C11   C13   A    
Cu1   O8    S    
C29   N9    S    
C7    C9    A    
Cu2   O2    S    
N12   H45   S    
C20   H17   S    
C49   H21   S    
C26   N11   S    
C56   H60   S    
N9    C51   S    
C15   N3    S    
C52   H40   S    
N11   H44   S    
Cu1   O5    S    
C36   C46   A    
C2    O4    A    
C54   H54   S    
C33   H6    S    
C40   C42   A    
C28   C34   S    
C34   H5    S    
Cu1   O4    S    
C38   C40   A    
C38   H8    S    
C41   C43   A    
C3    C24   S    
C42   C44   A    
C2    O2    A    
N7    H32   S    
C44   C46   A    
C49   H20   S    
N4    C50   S    
C37   C39   A    
C5    C48   A    
C6    C47   A    
C13   C19   S    
C30   N10   S    
C14   C20   S    
C35   N13   S    
C41   H9    S    
C22   H4    S    
C56   H62   S    
C42   H10   S    
N5    H27   S    
N3    C49   S    
C4    C23   S    
C24   O6    A    
C53   H50   S    
C32   N2    A    
C44   H12   S    
C31   N8    S    
C8    C18   A    
C21   N1    A    
N14   C54   S    
Cu2   O6    S    
N5    H28   S    
C43   C45   A    
N8    H34   S    
C33   C34   D    
C19   H18   S    
C52   H41   S    
C51   H38   S    
C23   O7    A    
N6    H30   S    
C9    C11   A    
N13   H47   S    
C10   C12   A    
C11   N6    S    
C4    C6    A    
C12   C14   A    
Cu1   N2    S    
C13   C15   A    
Cu1   O1    S    
N15   H55   S    
C14   C16   A    
Cu2   O3    S    
C36   N14   S    
C10   N16   S    
N14   H51   S    
C35   C45   A    
Cu2   O7    S    
C49   H22   S    
C43   H11   S    
C54   H52   S    
C4    C48   A    
C24   O8    A    
C55   H57   S    
C21   C25   A    
C1    C7    S    
C8    C10   A    
C2    C8    S    
C23   O5    A    
C3    C5    A    
C7    C17   A    
N16   H59   S    
C15   C17   A    
C25   C27   A    
C51   H36   S    
C26   C28   A    
C1    O3    A    
C56   H61   S    
C28   C30   A    
C29   C31   A    
N10   H39   S    
C36   C38   A    
C30   C32   A    
N16   C56   S    
C16   N4    S    
C3    C47   A    
N8    H33   S    
C52   H42   S    
N6    H29   S    
N12   H46   S    
N13   C53   S    
C48   H14   S    
N3    H19   S    
C31   N1    A    
C16   C18   A    
Cu1   Cu2   S    
C22   C26   A    
C50   H26   S    
N9    H35   S    
N15   C55   S    
C50   H25   S    
C6    C39   S    
C5    C40   S    
C22   N2    A    
C37   H7    S    
C54   H53   S    
C9    N15   S    
