data_mof_unit_53821.cif
_audit_creation_date              2012-12-10T17:47:43-0500
_audit_creation_method            fapswitch 2.2
_symmetry_space_group_name_H-M    P1
_symmetry_Int_Tables_number       1
_space_group_crystal_system       triclinic
_cell_length_a                    10.627528
_cell_length_b                    10.627545
_cell_length_c                    9.925734
_cell_angle_alpha                 89.918646
_cell_angle_beta                  90.011994
_cell_angle_gamma                 91.670157
_cell_volume                      1120.57998497

loop_
_atom_site_label
_atom_site_type_symbol
_atom_type_description
_atom_site_fract_x
_atom_site_fract_y
_atom_site_fract_z
_atom_type_partial_charge
C1    C     C_R   0.503427 0.260758 0.500182 0.851588
C2    C     C_3   0.878714 0.499320 0.501154 0.184604
C3    C     C_3   0.931538 0.620644 0.432229 -0.408316
C4    C     C_3   0.924382 0.382422 0.423944 -0.388856
C5    C     C_R   0.710827 0.136841 0.631448 -0.194267
C6    C     C_R   0.808659 0.073919 0.693342 -0.142417
C7    C     C_R   0.809321 0.943045 0.692080 -0.145539
C8    C     C_R   0.712054 0.874705 0.629105 -0.203778
C9    C     C_R   0.611583 0.937102 0.566585 0.102871
C10   C     C_R   0.611130 0.068982 0.567402 0.105624
C11   C     C_R   0.511993 0.128654 0.500346 -0.091332
C12   C     C_R   0.257831 0.499271 0.500265 0.814021
C13   C     C_R   0.418401 0.061946 0.430435 -0.219672
C14   C     C_R   0.418575 0.933418 0.430150 -0.208588
C15   C     C_R   0.512478 0.871955 0.499539 -0.103332
C16   C     C_R   0.334623 0.335453 0.140090 -0.162708
C17   C     C_R   0.252746 0.254709 0.070095 -0.203307
C18   C     C_R   0.252744 0.254653 0.930621 -0.197582
C19   C     C_R   0.334688 0.335284 0.860335 -0.159827
C20   C     C_R   0.418507 0.418897 0.927838 0.170812
C21   C     C_R   0.418502 0.418966 0.072344 0.173721
C22   C     C_R   0.578187 0.577375 0.071344 -0.117791
C23   C     C_R   0.503765 0.739398 0.499895 0.870315
C24   C     C_R   0.578160 0.577344 0.928300 -0.117704
C25   C     C_R   0.742186 0.499814 0.500251 0.804033
C26   C     C_3   0.071214 0.493607 0.648300 -0.388444
C27   C     C_3   0.928417 0.494575 0.648299 -0.394033
C28   C     C_3   0.075980 0.620698 0.432766 -0.394648
C29   C     C_3   0.068798 0.382508 0.423512 -0.425308
C30   C     C_3   0.121340 0.498994 0.501188 0.194518
H1    H     H_    0.108388 0.575831 0.707108 0.182712
H2    H     H_    0.889565 0.383053 0.318146 0.184619
H3    H     H_    0.111099 0.627086 0.327219 0.180495
H4    H     H_    0.897326 0.626334 0.326418 0.177838
H5    H     H_    0.343574 0.109651 0.378566 0.136273
H6    H     H_    0.715464 0.238456 0.632689 0.147469
H7    H     H_    0.884723 0.126968 0.741323 0.126033
H8    H     H_    0.885891 0.894281 0.739079 0.126928
H9    H     H_    0.717678 0.773346 0.628248 0.136187
H10   H     H_    0.343802 0.881466 0.378230 0.147849
H11   H     H_    0.642127 0.640640 0.124875 0.144155
H12   H     H_    0.102352 0.406486 0.699408 0.169362
H13   H     H_    0.329408 0.329624 0.246916 0.196282
H14   H     H_    0.189040 0.191684 0.124623 0.141104
H15   H     H_    0.188978 0.191620 0.876341 0.139907
H16   H     H_    0.642069 0.640601 0.874514 0.142492
H17   H     H_    0.890970 0.408508 0.700548 0.173028
H18   H     H_    0.897113 0.577937 0.705991 0.171145
H19   H     H_    0.113513 0.705026 0.487728 0.153440
H20   H     H_    0.898852 0.705364 0.486192 0.155596
H21   H     H_    0.102783 0.384107 0.317459 0.179952
H22   H     H_    0.101862 0.294426 0.471058 0.147829
H23   H     H_    0.887117 0.294536 0.472230 0.157683
N1    N     N_R   0.498810 0.498800 0.142780 -0.121619
N2    N     N_R   0.498760 0.498720 0.857170 -0.121166
O1    O     O_R   0.500000 0.316780 0.614690 -0.637161
O2    O     O_R   0.499990 0.316750 0.385360 -0.627009
O3    O     O_R   0.314800 0.499990 0.614670 -0.642770
O4    O     O_R   0.314790 0.499970 0.385330 -0.642810
O5    O     O_R   0.500010 0.683250 0.614640 -0.612857
O6    O     O_R   0.500000 0.683220 0.385310 -0.610435
O7    O     O_R   0.685210 0.500030 0.614670 -0.638240
O8    O     O_R   0.685200 0.500010 0.385330 -0.620399
Zn1   Zn    Zn3+2 0.500010 0.500020 0.653130 0.922137
Zn2   Zn    Zn3+2 0.499990 0.499980 0.346870 0.929099
H24   H     H_    0.329541 0.329315 0.753487 0.200194

loop_
_geom_bond_atom_site_label_1
_geom_bond_atom_site_label_2
_ccdc_geom_bond_type
C27   H18   S    
C8    C9    A    
C2    C4    S    
O1    Zn1   S    
C26   C30   S    
C16   C21   A    
C8    H9    S    
C1    O2    A    
C4    H23   S    
C9    C10   A    
C6    C7    A    
C19   C20   A    
C1    C11   S    
C25   O8    A    
O5    Zn1   S    
C2    C27   S    
C24   H16   S    
N2    Zn1   S    
C15   C23   S    
C17   C18   A    
C9    C15   A    
C6    H7    S    
C12   O3    A    
C5    C10   A    
C22   N1    A    
N1    Zn2   S    
C4    H2    S    
C13   C14   A    
O4    Zn2   S    
C24   N2    A    
C23   O5    A    
C11   C13   A    
C16   H13   S    
C26   C27   S    
C29   C30   S    
C20   N2    A    
C5    C6    A    
C28   C30   S    
C3    C28   S    
C1    O1    A    
C29   H21   S    
C28   H3    S    
C13   H5    S    
C2    C25   S    
C2    C3    S    
C25   O7    A    
O3    Zn1   S    
C21   N1    A    
O8    Zn2   S    
C22   C24   A    
C17   H14   S    
C22   H11   S    
C7    C8    A    
C10   C11   A    
C14   H10   S    
C5    H6    S    
O6    Zn2   S    
C23   O6    A    
C20   C21   A    
C26   H12   S    
C19   H24   S    
C3    H20   S    
C18   H15   S    
C28   H19   S    
C27   H17   S    
C14   C15   A    
C18   C19   A    
O7    Zn1   S    
C3    H4    S    
C12   C30   S    
C12   O4    A    
C26   H1    S    
C7    H8    S    
C4    C29   S    
O2    Zn2   S    
C16   C17   A    
C29   H22   S    
