data_mof_unit_27421.cif
_audit_creation_date              2012-12-10T18:58:14-0500
_audit_creation_method            fapswitch 2.2
_symmetry_space_group_name_H-M    P1
_symmetry_Int_Tables_number       1
_space_group_crystal_system       triclinic
_cell_length_a                    10.802462
_cell_length_b                    9.834742
_cell_length_c                    15.823087
_cell_angle_alpha                 90.150237
_cell_angle_beta                  89.973736
_cell_angle_gamma                 89.912946
_cell_volume                      1681.02779298

loop_
_atom_site_label
_atom_site_type_symbol
_atom_type_description
_atom_site_fract_x
_atom_site_fract_y
_atom_site_fract_z
_atom_type_partial_charge
C1    C     C_R   0.871906 0.499868 0.499307 -0.408379
C2    C     C_R   0.500718 0.374738 0.955874 0.301472
C3    C     C_R   0.512762 0.499415 0.912906 -0.240991
C4    C     C_R   0.512588 0.499846 0.087041 -0.257911
C5    C     C_1   0.508373 0.500086 0.823686 0.258961
C6    C     C_1   0.508095 0.499570 0.176283 0.194408
C7    C     C_1   0.503999 0.499455 0.251130 -0.010594
C8    C     C_1   0.504283 0.500465 0.748845 -0.025911
C9    C     C_R   0.517088 0.072115 0.573313 0.026866
C10   C     C_R   0.482975 0.927874 0.426687 0.043729
C11   C     C_R   0.483159 0.071570 0.426677 0.021241
C12   C     C_R   0.126159 0.500403 0.498942 -0.410421
C13   C     C_R   0.517344 0.928406 0.573281 -0.022644
C14   C     C_R   0.060458 0.375378 0.500777 0.299581
C15   C     C_R   0.936232 0.617902 0.474496 0.296638
C16   C     C_R   0.937176 0.381889 0.523313 0.306857
C17   C     C_R   0.059742 0.625302 0.496514 0.298338
C18   C     C_R   0.259404 0.500145 0.499669 1.009733
C19   C     C_R   0.739886 0.499919 0.499905 1.050655
C20   C     C_R   0.500114 0.499823 0.339352 0.912346
C21   C     C_R   0.500284 0.500171 0.660640 0.907975
C22   C     C_R   0.527251 0.623922 0.956040 0.301103
C23   C     C_R   0.518586 0.374502 0.043916 0.221168
C24   C     C_R   0.509226 0.625133 0.044078 0.224654
H1    H     H_    0.531107 0.126202 0.632069 0.142832
H2    H     H_    0.733013 0.745489 0.307648 0.398970
H3    H     H_    0.739762 0.248953 0.691977 0.386362
H4    H     H_    0.246784 0.854296 0.627629 0.386218
H5    H     H_    0.468978 0.873776 0.367930 0.178194
H6    H     H_    0.469623 0.125243 0.367885 0.172840
H7    H     H_    0.531476 0.874706 0.632007 0.150341
H8    H     H_    0.305269 0.717991 0.157535 0.368582
H9    H     H_    0.367930 0.175449 0.781406 0.389917
H10   H     H_    0.665341 0.818049 0.782034 0.389034
H11   H     H_    0.721925 0.290556 0.158328 0.368577
H12   H     H_    0.228992 0.151096 0.355411 0.390631
N1    N     N_R   0.500000 0.857200 0.500000 -0.089402
N2    N     N_R   0.500000 0.142800 0.500000 -0.085531
O1    O     O_R   0.316770 0.614620 0.499990 -0.560980
O2    O     O_2   0.418247 0.883005 0.044823 -0.125090
O3    O     O_3   0.382918 0.752290 0.183090 -0.548195
O4    O     O_2   0.576171 0.156360 0.867511 -0.246861
O5    O     O_2   0.390632 0.126840 0.955184 -0.126314
O6    O     O_3   0.368042 0.259228 0.816311 -0.559445
O7    O     O_2   0.455371 0.842874 0.867541 -0.237080
O8    O     O_2   0.641793 0.869471 0.954771 -0.128806
O9    O     O_3   0.661031 0.733855 0.816139 -0.555496
O10   O     O_2   0.432551 0.163301 0.133640 -0.178770
O11   O     O_2   0.614591 0.118707 0.045318 -0.125199
O12   O     O_R   0.683230 0.385380 0.500010 -0.566159
O13   O     O_3   0.645441 0.252727 0.183518 -0.530105
O14   O     O_2   0.193514 0.147848 0.530085 -0.234047
O15   O     O_2   0.014228 0.125202 0.436409 -0.150508
O16   O     O_3   0.208844 0.243154 0.376967 -0.548172
O17   O     O_2   0.803197 0.848824 0.456043 -0.212326
O18   O     O_2   0.974165 0.812281 0.356792 -0.188665
O19   O     O_3   0.775338 0.669304 0.336612 -0.567265
O20   O     O_2   0.806468 0.149735 0.540043 -0.216948
O21   O     O_2   0.977684 0.185280 0.639025 -0.190027
O22   O     O_3   0.777551 0.326111 0.661266 -0.563103
O23   O     O_R   0.683230 0.614620 0.500010 -0.570926
O24   O     O_2   0.192269 0.850445 0.462166 -0.242255
O25   O     O_2   0.013804 0.879072 0.556068 -0.144352
O26   O     O_3   0.208635 0.764214 0.617386 -0.530408
O27   O     O_R   0.316770 0.385380 0.499990 -0.557143
O28   O     O_R   0.499980 0.614630 0.378020 -0.616493
O29   O     O_R   0.500020 0.385370 0.621980 -0.623686
O30   O     O_R   0.500020 0.614630 0.621980 -0.623254
O31   O     O_R   0.499980 0.385370 0.378020 -0.610625
O32   O     O_2   0.598294 0.835243 0.134017 -0.181303
S1    S     S_3+6 0.478397 0.779277 0.100831 0.137683
S2    S     S_3+6 0.459892 0.223438 0.899212 0.121139
S3    S     S_3+6 0.570460 0.773649 0.899179 0.124744
S4    S     S_3+6 0.551657 0.221695 0.100860 0.144346
S5    S     S_3+6 0.119006 0.216631 0.462255 0.140142
S6    S     S_3+6 0.872614 0.743706 0.405606 0.128942
S7    S     S_3+6 0.875103 0.254161 0.591261 0.124151
S8    S     S_3+6 0.118311 0.785838 0.531793 0.146073
Zn1   Zn    Zn3+2 0.500000 0.653120 0.500000 1.068874
Zn2   Zn    Zn3+2 0.500000 0.346880 0.500000 1.077468

loop_
_geom_bond_atom_site_label_1
_geom_bond_atom_site_label_2
_ccdc_geom_bond_type
O5    S2    D    
O18   S6    D    
O2    S1    D    
C10   H5    S    
O13   S4    S    
O14   S5    D    
O21   S7    D    
C9    H1    S    
C18   O27   A    
O28   Zn1   S    
N1    Zn1   S    
C10   N1    A    
O19   S6    S    
C20   O28   A    
C19   O23   A    
H3    O22   S    
C4    C24   A    
O7    S3    D    
C16   S7    S    
C9    C13   A    
C9    N2    A    
O20   S7    D    
C11   H6    S    
C12   C17   A    
H8    O3    S    
O32   S1    D    
C1    C15   A    
C13   N1    A    
O3    S1    S    
O30   Zn1   S    
C15   S6    S    
O27   Zn2   S    
C21   O29   A    
O15   S5    D    
C2    S2    S    
C13   H7    S    
O22   S7    S    
C1    C19   S    
O10   S4    D    
O9    S3    S    
C4    C6    S    
C4    C23   A    
C3    C5    S    
O1    Zn1   S    
C11   N2    A    
C18   O1    A    
O4    S2    D    
C8    C21   S    
C1    C16   A    
O17   S6    D    
H4    O26   S    
C12   C14   A    
C21   O30   A    
H11   O13   S    
C14   C16   A    
C20   O31   A    
C23   S4    S    
C15   C17   A    
H9    O6    S    
O26   S8    S    
O24   S8    D    
O29   Zn2   S    
O31   Zn2   S    
O12   Zn2   S    
C5    C8    T    
C6    C7    T    
C14   S5    S    
C2    C3    A    
C19   O12   A    
N2    Zn2   S    
O23   Zn1   S    
C17   S8    S    
O6    S2    S    
C22   C24   A    
H2    O19   S    
H12   O16   S    
C10   C11   A    
O16   S5    S    
C7    C20   S    
C12   C18   S    
C2    C23   A    
O11   S4    D    
C3    C22   A    
H10   O9    S    
C22   S3    S    
O8    S3    D    
C24   S1    S    
O25   S8    D    
