data_mof_unit_10299.cif
_audit_creation_date              2012-12-10T17:22:06-0500
_audit_creation_method            fapswitch 2.2
_symmetry_space_group_name_H-M    P1
_symmetry_Int_Tables_number       1
_space_group_crystal_system       triclinic
_cell_length_a                    10.328506
_cell_length_b                    10.467627
_cell_length_c                    15.746281
_cell_angle_alpha                 91.950936
_cell_angle_beta                  80.733934
_cell_angle_gamma                 94.719197
_cell_volume                      1674.12368977

loop_
_atom_site_label
_atom_site_type_symbol
_atom_type_description
_atom_site_fract_x
_atom_site_fract_y
_atom_site_fract_z
_atom_type_partial_charge
C1    C     C_R   0.554353 0.734132 0.491443 0.903389
C2    C     C_3   0.421523 0.603116 0.058257 -0.052462
C3    C     C_3   0.496676 0.487842 0.083207 0.178356
C4    C     C_3   0.434461 0.351518 0.052725 0.417441
C5    C     C_3   0.445554 0.352076 0.950810 -0.035770
C6    C     C_1   0.499184 0.492791 0.174756 -0.043004
C7    C     C_1   0.498391 0.493449 0.825363 -0.030447
C8    C     C_1   0.497768 0.497326 0.750282 -0.201890
C9    C     C_2   0.581937 0.871020 0.477466 0.031072
C10   C     C_2   0.512179 0.930373 0.426413 0.268736
C11   C     C_2   0.419105 0.128943 0.481260 0.282904
C12   C     C_R   0.499332 0.500243 0.661390 0.906135
C13   C     C_2   0.514140 0.069428 0.430123 -0.277397
C14   C     C_2   0.922998 0.516419 0.508873 0.226945
C15   C     C_2   0.067585 0.494736 0.493540 -0.044191
C16   C     C_R   0.445589 0.265427 0.500176 0.804563
C17   C     C_R   0.500594 0.499446 0.338648 0.877124
C18   C     C_3   0.406775 0.588187 0.962457 -0.478877
C19   C     C_3   0.643563 0.519256 0.937057 -0.017911
C20   C     C_3   0.642233 0.516184 0.036131 0.251806
C21   C     C_1   0.500877 0.496373 0.249848 -0.218687
C22   C     C_3   0.500205 0.488500 0.916796 0.169106
H1    H     H_    0.486048 0.692716 0.064029 0.157777
H2    H     H_    0.303284 0.556658 0.955669 0.189941
H3    H     H_    0.603190 0.122194 0.398905 0.137329
H4    H     H_    0.100850 0.428235 0.441747 0.088643
H5    H     H_    0.428505 0.683192 0.931415 0.187744
H6    H     H_    0.881862 0.379517 0.423262 0.121825
H7    H     H_    0.706631 0.444879 0.905170 0.204946
H8    H     H_    0.676501 0.614328 0.058271 0.064564
H9    H     H_    0.345090 0.335538 0.933229 0.167590
N1    N     N_2   0.842720 0.448890 0.465540 -0.199702
N2    N     N_2   0.157250 0.551040 0.534500 -0.056536
O1    O     O_R   0.431050 0.692470 0.506940 -0.602299
O2    O     O_R   0.651130 0.659650 0.484820 -0.620147
O3    O     O_R   0.389910 0.516410 0.633920 -0.609262
O4    O     O_R   0.609990 0.483590 0.611800 -0.613685
O5    O     O_R   0.348870 0.340350 0.515180 -0.603773
O6    O     O_R   0.568950 0.307530 0.493060 -0.615440
O7    O     O_R   0.390010 0.516410 0.388200 -0.614464
O8    O     O_R   0.610090 0.483590 0.366080 -0.604253
Zn1   Zn    Zn3+2 0.353060 0.521920 0.514770 0.932504
Zn2   Zn    Zn3+2 0.646940 0.478080 0.485230 0.923934
C23   C     C_3   0.292201 0.635309 0.116417 -0.902189
H10   H     H_    0.205941 0.570396 0.107101 0.249416
H11   H     H_    0.302624 0.637831 0.185469 0.254792
H12   H     H_    0.268250 0.732580 0.100937 0.234640
C24   C     C_3   0.500582 0.237167 0.085597 -0.776895
H13   H     H_    0.497083 0.243243 0.156431 0.226193
H14   H     H_    0.448183 0.143738 0.071670 0.207095
H15   H     H_    0.603749 0.229450 0.055598 0.276965
C25   C     C_3   0.428820 0.859494 0.366480 -0.863636
H16   H     H_    0.398186 0.926845 0.321801 0.219892
H17   H     H_    0.486228 0.787383 0.326879 0.206893
H18   H     H_    0.338136 0.811880 0.403209 0.271949
O9    O     O_3   0.306620 0.060420 0.521506 -0.589361
C26   C     C_3   0.200861 0.080078 0.477836 0.129505
H19   H     H_    0.229603 0.074475 0.406444 0.120838
H20   H     H_    0.162512 0.174877 0.496499 0.157932
C27   C     C_3   0.090060 0.976914 0.503015 -0.847958
H21   H     H_    0.057968 0.979119 0.573807 0.260220
H22   H     H_    0.005098 0.993550 0.470813 0.204535
H23   H     H_    0.123955 0.881078 0.482610 0.253644
C28   C     C_3   0.679337 0.944296 0.526702 -0.970539
H24   H     H_    0.725726 0.879055 0.564940 0.240156
H25   H     H_    0.758164 0.995391 0.481038 0.246390
H26   H     H_    0.628805 0.015005 0.571816 0.265639
C29   C     C_3   0.873787 0.621832 0.570978 -0.749931
H27   H     H_    0.918668 0.716131 0.546830 0.200176
H28   H     H_    0.770863 0.633766 0.582164 0.278379
H29   H     H_    0.887952 0.602286 0.637088 0.196245
C30   C     C_3   0.134211 0.631757 0.611247 -0.566671
H30   H     H_    0.229440 0.664482 0.630906 0.243676
H31   H     H_    0.095413 0.723144 0.598896 0.182112
H32   H     H_    0.078430 0.576604 0.666108 0.181045
C31   C     C_3   0.710186 0.647384 0.899870 -0.998937
H33   H     H_    0.655811 0.729996 0.927759 0.248414
H34   H     H_    0.812011 0.661366 0.914772 0.245352
H35   H     H_    0.717241 0.647095 0.828771 0.264153
O10   O     O_3   0.725680 0.422990 0.054781 -0.623861
C32   C     C_3   0.830324 0.478685 0.094801 0.111655
H36   H     H_    0.792082 0.529715 0.155762 0.148949
H37   H     H_    0.894825 0.546758 0.050734 0.135131
C33   C     C_3   0.911977 0.373569 0.116585 -0.843926
H38   H     H_    0.955302 0.323272 0.056777 0.253000
H39   H     H_    0.992597 0.416038 0.150027 0.205099
H40   H     H_    0.849134 0.303317 0.159562 0.259399
C34   C     C_3   0.518759 0.241281 0.901688 -0.934253
H41   H     H_    0.467612 0.147390 0.922331 0.248075
H42   H     H_    0.517941 0.245675 0.831472 0.251245
H43   H     H_    0.622518 0.242907 0.911767 0.257335
C35   C     C_3   0.286371 0.328818 0.092319 -0.937391
H44   H     H_    0.269120 0.354637 0.161986 0.254495
H45   H     H_    0.222598 0.381820 0.058444 0.224236
H46   H     H_    0.249947 0.226727 0.085228 0.236504

loop_
_geom_bond_atom_site_label_1
_geom_bond_atom_site_label_2
_ccdc_geom_bond_type
C2    C23   S    
C2    C18   S    
C9    C28   S    
O3    Zn1   S    
C19   C20   S    
O1    Zn1   S    
C31   H35   S    
C3    C6    S    
C10   C25   S    
C32   H36   S    
C7    C8    T    
C20   H8    S    
C25   H16   S    
C27   H23   S    
C18   H2    S    
N2    Zn1   S    
C19   C31   S    
C31   H34   S    
O5    Zn1   S    
C26   H20   S    
O9    C26   S    
C27   H22   S    
C12   O4    A    
N2    C30   S    
C5    C34   S    
C24   H15   S    
C5    C22   S    
C23   H11   S    
C29   H27   S    
C33   H40   S    
C12   O3    A    
O2    Zn2   S    
C9    C10   D    
C23   H12   S    
C24   H14   S    
O8    Zn2   S    
C13   H3    S    
C30   H32   S    
C32   H37   S    
C25   H17   S    
C1    O1    A    
C20   O10   S    
C28   H26   S    
H6    N1    S    
C19   C22   S    
C1    C9    S    
C31   H33   S    
C30   H31   S    
C14   N1    D    
O10   C32   S    
C15   H4    S    
O6    Zn2   S    
C6    C21   T    
C35   H46   S    
C17   C21   S    
C27   H21   S    
C17   O7    A    
C28   H25   S    
O4    Zn2   S    
C11   C16   S    
C34   H43   S    
C8    C12   S    
C35   H45   S    
C3    C20   S    
C33   H38   S    
C24   H13   S    
C34   H42   S    
C3    C4    S    
C19   H7    S    
C32   C33   S    
C23   H10   S    
C1    O2    A    
C4    C24   S    
C18   C22   S    
C18   H5    S    
C33   H39   S    
C30   H30   S    
C26   C27   S    
C10   C13   S    
C25   H18   S    
C7    C22   S    
C28   H24   S    
C2    C3    S    
C11   C13   D    
C26   H19   S    
C29   H29   S    
O7    Zn1   S    
C35   H44   S    
N1    Zn2   S    
C17   O8    A    
C16   O6    A    
C4    C5    S    
C34   H41   S    
C29   H28   S    
C2    H1    S    
C14   C29   S    
C14   C15   S    
C5    H9    S    
C15   N2    D    
C11   O9    S    
C16   O5    A    
C4    C35   S    
