data_mof_unit_52928.cif
_audit_creation_date              2013-03-05T15:54:06-0500
_audit_creation_method            fapswitch 2.2
_symmetry_space_group_name_H-M    P1
_symmetry_Int_Tables_number       1
_space_group_crystal_system       triclinic
_cell_length_a                    16.766905
_cell_length_b                    7.26161
_cell_length_c                    15.16716
_cell_angle_alpha                 89.981088
_cell_angle_beta                  94.03914
_cell_angle_gamma                 90.022697
_cell_volume                      1842.08633464

loop_
_atom_site_label
_atom_site_type_symbol
_atom_site_description
_atom_site_fract_x
_atom_site_fract_y
_atom_site_fract_z
_atom_type_partial_charge
O1    O     O_R   0.578230 0.505720 0.424270 -0.598012
O2    O     O_R   0.421770 0.005720 0.575730 -0.593556
O3    O     O_R   0.412470 0.173950 0.404530 -0.557888
O4    O     O_R   0.587530 0.673950 0.595470 -0.567239
C1    C     C_R   0.384558 0.345144 0.383191 0.987658
C2    C     C_R   0.614080 0.846132 0.618597 1.010002
O5    O     O_R   0.577030 0.175880 0.413670 -0.557677
O6    O     O_R   0.422970 0.675880 0.586330 -0.559911
O7    O     O_R   0.587510 0.007580 0.584940 -0.520040
O8    O     O_R   0.412490 0.507580 0.415060 -0.517963
C3    C     C_R   0.603037 0.344528 0.393639 1.034504
C4    C     C_R   0.396865 0.844441 0.606250 1.058431
O9    O     O_3   0.503240 0.339850 0.556180 -0.248108
O10   O     O_3   0.496760 0.839850 0.443820 -0.236301
V1    V     V_3+5 0.499400 0.064230 0.489580 1.359261
V2    V     V_3+5 0.500600 0.564230 0.510420 1.353601
C5    C     C_1   0.333885 0.854363 0.668263 -0.179451
C6    C     C_1   0.665876 0.354589 0.331452 -0.184220
C7    C     C_1   0.280907 0.865357 0.719490 0.144512
C8    C     C_1   0.718733 0.365571 0.280067 0.142272
C9    C     C_1   0.218427 0.879359 0.779659 0.146009
C10   C     C_1   0.781102 0.379505 0.219754 0.150644
C11   C     C_1   0.165564 0.890350 0.831032 -0.140554
C12   C     C_1   0.833939 0.390448 0.168346 -0.125466
C13   C     C_3   0.760429 0.704595 0.827174 -0.041976
C14   C     C_3   0.238675 0.207326 0.172725 -0.035836
H1    H     H_    0.799386 0.597411 0.809467 0.234898
H2    H     H_    0.198921 0.091749 0.177292 0.248069
C15   C     C_3   0.681283 0.697713 0.761099 0.372168
C16   C     C_3   0.310446 0.180970 0.247391 0.370630
C17   C     C_3   0.843901 0.893318 0.715850 0.355992
C18   C     C_3   0.153046 0.382943 0.288617 0.384047
C19   C     C_3   0.745488 0.033900 0.829280 0.093564
C20   C     C_3   0.249584 0.540707 0.178136 0.074239
C21   C     C_3   0.811205 0.885771 0.814681 -0.473892
C22   C     C_3   0.186095 0.385469 0.189262 -0.480295
H3    H     H_    0.711042 0.984936 0.884143 0.174481
H4    H     H_    0.277800 0.508358 0.117404 0.147894
C23   C     C_3   0.685315 0.861848 0.689901 -0.437374
C24   C     C_3   0.311893 0.356701 0.313728 -0.463991
C25   C     C_3   0.769173 0.868712 0.640430 -0.123101
C26   C     C_3   0.228915 0.372711 0.364741 -0.115294
C27   C     C_3   0.682542 0.044841 0.748410 -0.400306
C28   C     C_3   0.316197 0.535136 0.253788 -0.368235
H5    H     H_    0.699997 0.156764 0.707955 0.299229
H6    H     H_    0.301640 0.648890 0.294340 0.299214
O11   O     O_R   0.087480 0.241090 0.084980 -0.553010
O12   O     O_R   0.912520 0.741090 0.915020 -0.569197
O13   O     O_R   0.922960 0.569060 0.086330 -0.558370
O14   O     O_R   0.077040 0.069060 0.913670 -0.551963
C29   C     C_R   0.896754 0.400447 0.106124 1.048105
C30   C     C_R   0.102841 0.900356 0.893381 1.039976
O15   O     O_R   0.087520 0.570920 0.095480 -0.532458
O16   O     O_R   0.912480 0.070920 0.904520 -0.520682
O17   O     O_R   0.078240 0.739160 0.924260 -0.596293
O18   O     O_R   0.921760 0.239160 0.075740 -0.573177
C31   C     C_R   0.115974 0.401431 0.116860 1.041330
C32   C     C_R   0.883355 0.901416 0.884359 1.097196
O19   O     O_3   0.996740 0.404980 0.943840 -0.258429
O20   O     O_3   0.003260 0.904980 0.056160 -0.250011
V3    V     V_3+5 0.000600 0.680640 0.010420 1.390745
V4    V     V_3+5 0.999400 0.180640 0.989580 1.402897
N1    N     N_R   0.888273 0.071106 0.708786 0.287102
O21   O     O_R   0.962043 0.082241 0.741691 -0.339886
O22   O     O_R   0.859535 0.215499 0.667308 -0.176074
N2    N     N_R   0.100740 0.548398 0.295493 0.283325
O23   O     O_R   0.027984 0.543220 0.259222 -0.359807
O24   O     O_R   0.121443 0.697280 0.338536 -0.168399
N3    N     N_R   0.771878 0.016424 0.572173 0.254646
O25   O     O_R   0.718649 0.145593 0.560569 -0.359933
O26   O     O_R   0.830999 0.019415 0.520640 -0.251505
N4    N     N_R   0.226744 0.531171 0.427693 0.260626
O27   O     O_R   0.282849 0.653710 0.438962 -0.360328
O28   O     O_R   0.169852 0.539014 0.482094 -0.247745
N5    N     N_R   0.743986 0.661536 0.919972 0.277605
O29   O     O_R   0.698349 0.522590 0.936058 -0.279165
O30   O     O_R   0.768612 0.765594 0.986333 -0.382148
N6    N     N_R   0.263143 0.196952 0.079615 0.266713
O31   O     O_R   0.214898 0.124791 0.018386 -0.349397
O32   O     O_R   0.329875 0.265166 0.054652 -0.346440
N7    N     N_R   0.604959 0.717103 0.807211 0.249988
O33   O     O_R   0.602379 0.780915 0.887154 -0.345451
O34   O     O_R   0.536166 0.690836 0.763606 -0.341987
N8    N     N_R   0.387572 0.152577 0.205793 0.268890
O35   O     O_R   0.394496 0.008292 0.155800 -0.252739
O36   O     O_R   0.453866 0.229976 0.236139 -0.430713
N9    N     N_R   0.679097 0.516093 0.717859 0.196977
O37   O     O_R   0.612717 0.424474 0.706251 -0.353906
O38   O     O_R   0.743082 0.443230 0.689992 -0.404340
N10   N     N_R   0.298080 0.010017 0.297122 0.193179
O39   O     O_R   0.359369 0.913063 0.326449 -0.321275
O40   O     O_R   0.227687 0.952130 0.313982 -0.362785
N11   N     N_R   0.905352 0.748846 0.702260 0.234035
O41   O     O_R   0.918856 0.609384 0.754784 -0.329002
O42   O     O_R   0.956277 0.775890 0.642397 -0.211517
N12   N     N_R   0.098131 0.224818 0.301614 0.242210
O43   O     O_R   0.081125 0.102054 0.241105 -0.318175
O44   O     O_R   0.048895 0.236026 0.364176 -0.208830
C33   C     C_2   0.774111 0.696618 0.581772 0.734240
H7    H     H_    0.720583 0.624796 0.557758 0.009506
O45   O     O_2   0.835291 0.649567 0.548996 -0.420599
C34   C     C_2   0.225873 0.209845 0.429979 0.721586
H8    H     H_    0.278633 0.130088 0.448946 0.005877
O46   O     O_2   0.167618 0.177629 0.471358 -0.428355
N13   N     N_R   0.775546 0.209405 0.864256 0.252375
O47   O     O_R   0.826200 0.302258 0.821865 -0.294947
O48   O     O_R   0.776658 0.232689 0.949509 -0.369102
N14   N     N_R   0.221787 0.727518 0.157406 0.249891
O49   O     O_R   0.157095 0.794081 0.186570 -0.266695
O50   O     O_R   0.253245 0.812587 0.092918 -0.364081
C35   C     C_2   0.601797 0.098709 0.782257 0.800674
H9    H     H_    0.600469 0.170266 0.845037 0.069752
O51   O     O_2   0.538345 0.074551 0.739459 -0.538928
C36   C     C_2   0.396943 0.574812 0.217529 0.771598
H10   H     H_    0.409178 0.530302 0.151529 0.074986
O52   O     O_2   0.450190 0.653386 0.261793 -0.492820

loop_
_geom_bond_atom_site_label_1
_geom_bond_atom_site_label_2
_geom_bond_distance
_ccdc_geom_bond_type
N2    O24   1.297604 A    
N9    O37   1.297791 A    
N1    O22   1.297930 A    
C3    C6    1.464563 S    
N11   O41   1.298358 A    
C35   H9    1.086499 S    
O1    C3    1.336754 A    
C16   N10   1.474515 S    
O2    C4    1.336685 A    
O11   V4    2.041136 S    
C36   H10   1.085272 S    
C11   C30   1.464844 S    
C23   C25   1.640424 S    
O5    C3    1.341730 A    
N13   O48   1.302942 A    
C14   N6    1.500028 S    
C21   C32   1.553406 S    
C18   C22   1.641901 S    
C10   C12   1.223244 T    
C18   N2    1.495781 S    
C7    C9    1.440642 S    
N8    O36   1.300339 A    
N6    O32   1.303738 A    
N14   O49   1.293822 A    
O20   V4    2.240636 S    
C29   O18   1.337108 A    
N3    O26   1.305038 A    
C5    C7    1.223281 T    
O15   V3    2.039247 S    
O13   C29   1.341745 A    
N12   O44   1.303451 A    
C4    C5    1.464567 S    
O14   C30   1.342400 A    
C25   C33   1.539899 S    
C20   C22   1.567368 S    
C30   O17   1.336461 A    
C12   C29   1.464597 S    
C24   C26   1.643066 S    
N2    O23   1.302937 A    
C28   C36   1.524090 S    
N11   O42   1.304208 A    
C34   H8    1.079444 S    
C27   C35   1.532287 S    
C2    O7    1.342194 A    
C26   C34   1.544875 S    
N7    O34   1.302570 A    
C28   H6    1.068577 S    
N7    O33   1.301747 A    
C13   C15   1.606404 S    
O19   V3    2.241186 S    
O13   V3    1.971398 S    
C19   C27   1.562778 S    
C17   N1    1.497363 S    
C19   N13   1.456679 S    
N8    O35   1.303544 A    
N4    O28   1.305729 A    
C22   C31   1.555558 S    
O15   C31   1.351279 A    
N6    O31   1.298269 A    
C23   C27   1.600652 S    
O16   V4    2.039129 S    
C17   N11   1.495202 S    
C19   H3    1.104415 S    
O20   V3    1.770161 S    
C13   N5    1.486295 S    
O4    V2    2.039155 S    
N5    O29   1.299453 A    
C15   N7    1.507611 S    
O11   C31   1.336082 A    
N5    O30   1.302403 A    
N10   O40   1.295060 A    
C33   H7    1.078839 S    
O10   V1    1.770548 S    
O6    C4    1.341788 A    
N12   O43   1.296822 A    
C15   C23   1.612660 S    
C26   N4    1.497560 S    
C16   C24   1.624405 S    
C35   O51   1.219288 D    
O1    V2    1.955112 S    
C34   O46   1.220144 D    
O2    V1    1.954698 S    
C27   H5    1.071198 S    
C13   C21   1.585320 S    
O4    C2    1.364683 A    
C18   N12   1.493218 S    
C8    C10   1.440577 S    
C14   C16   1.604766 S    
N9    O38   1.293838 A    
O14   V4    1.972138 S    
O18   V4    1.955354 S    
C1    C24   1.555840 S    
O3    V1    2.039272 S    
C25   N3    1.493382 S    
O16   C32   1.351207 A    
C14   C22   1.595562 S    
C20   C28   1.544393 S    
O19   V4    1.769772 S    
C17   C25   1.645722 S    
C33   O45   1.219970 D    
C20   H4    1.090456 S    
N4    O27   1.297199 A    
O3    C1    1.359426 A    
C36   O52   1.220143 D    
O12   C32   1.333749 A    
C13   H1    1.062925 S    
N13   O47   1.290554 A    
C14   H2    1.076792 S    
C20   N14   1.461463 S    
C9    C11   1.223317 T    
O7    V1    2.035365 S    
C1    O8    1.346238 A    
O8    V2    2.035321 S    
N10   O39   1.298267 A    
O17   V3    1.954944 S    
C17   C21   1.632849 S    
O5    V1    1.971491 S    
C19   C21   1.567052 S    
N14   O50   1.299435 A    
C6    C8    1.223271 T    
C16   N8    1.492668 S    
N3    O25   1.298356 A    
C15   N9    1.472407 S    
N1    O21   1.303267 A    
C24   C28   1.587135 S    
O6    V2    1.972227 S    
O9    V2    1.770158 S    
O12   V3    2.041183 S    
C18   C26   1.658281 S    
C2    C23   1.557942 S    
