data_mof_unit_59272.cif
_audit_creation_date              2012-12-10T16:51:46-0500
_audit_creation_method            fapswitch 2.2
_symmetry_space_group_name_H-M    P1
_symmetry_Int_Tables_number       1
_space_group_crystal_system       triclinic
_cell_length_a                    15.464365
_cell_length_b                    15.49577
_cell_length_c                    9.686528
_cell_angle_alpha                 89.874127
_cell_angle_beta                  90.856931
_cell_angle_gamma                 89.964943
_cell_volume                      2320.93874029

loop_
_atom_site_label
_atom_site_type_symbol
_atom_type_description
_atom_site_fract_x
_atom_site_fract_y
_atom_site_fract_z
_atom_type_partial_charge
C1    C     C_R   0.383949 0.881221 0.499208 0.872294
C2    C     C_R   0.382403 0.117210 0.498856 0.876456
C3    C     C_R   0.883948 0.381222 0.499208 0.872293
C4    C     C_R   0.882404 0.617210 0.498856 0.876456
C5    C     C_R   0.616969 0.117590 0.500648 0.876780
C6    C     C_R   0.616148 0.881486 0.500910 0.882220
C7    C     C_R   0.116970 0.617590 0.500648 0.876777
C8    C     C_R   0.116149 0.381486 0.500910 0.882219
C9    C     C_2   0.704348 0.773997 0.388256 -0.240471
C10   C     C_2   0.727947 0.202272 0.391833 -0.257810
C11   C     C_2   0.204347 0.273997 0.388257 -0.240473
C12   C     C_2   0.227952 0.702267 0.391835 -0.257805
C13   C     C_2   0.678806 0.812142 0.504674 -0.382928
C14   C     C_2   0.679730 0.186551 0.502667 -0.388008
C15   C     C_2   0.178806 0.312143 0.504674 -0.382928
C16   C     C_2   0.179731 0.686550 0.502667 -0.388003
C17   C     C_2   0.268689 0.203705 0.385500 0.476559
C18   C     C_2   0.289123 0.774802 0.383387 0.474004
C19   C     C_2   0.768689 0.703705 0.385500 0.476557
C20   C     C_2   0.789116 0.274809 0.383386 0.474006
C21   C     C_2   0.319597 0.186667 0.496591 -0.409926
C22   C     C_2   0.321552 0.811252 0.499446 -0.399048
C23   C     C_2   0.819597 0.686667 0.496591 -0.409928
C24   C     C_2   0.821551 0.311253 0.499446 -0.399051
C25   C     C_2   0.429719 0.005061 0.920472 -0.086827
C26   C     C_2   0.929719 0.505058 0.920472 -0.086831
C27   C     C_2   0.429612 0.002609 0.076196 -0.070572
C28   C     C_2   0.929612 0.502605 0.076196 -0.070562
Cu1   Cu    Cu3+1 0.500020 0.000000 0.638630 0.936730
Cu2   Cu    Cu3+1 0.000020 0.500000 0.638630 0.936730
Cu3   Cu    Cu3+1 0.499980 0.000000 0.361370 0.962860
Cu4   Cu    Cu3+1 0.999980 0.500000 0.361370 0.962861
H1    H     H_    0.674721 0.792678 0.290274 0.180032
H2    H     H_    0.720612 0.162371 0.300220 0.182655
H3    H     H_    0.174720 0.292677 0.290275 0.180032
H4    H     H_    0.220620 0.662363 0.300224 0.182652
H5    H     H_    0.700875 0.791331 0.605908 0.153798
H6    H     H_    0.683383 0.225274 0.595470 0.151317
H7    H     H_    0.200877 0.291332 0.605909 0.153797
H8    H     H_    0.183382 0.725275 0.595468 0.151316
H9    H     H_    0.318911 0.226212 0.588360 0.117342
H10   H     H_    0.303797 0.788498 0.600828 0.115543
H11   H     H_    0.818912 0.726213 0.588360 0.117342
H12   H     H_    0.803801 0.288494 0.600827 0.115549
H13   H     H_    0.367653 0.010499 0.867577 0.169527
H14   H     H_    0.867652 0.510492 0.867577 0.169525
H15   H     H_    0.557583 0.992506 0.895375 0.193661
H16   H     H_    0.057584 0.492509 0.895375 0.193660
H17   H     H_    0.367446 0.003550 0.126252 0.173269
H18   H     H_    0.867445 0.503544 0.126253 0.173269
H19   H     H_    0.558017 0.001475 0.107456 0.190624
H20   H     H_    0.058017 0.501479 0.107456 0.190623
N1    N     N_2   0.498660 0.000000 0.846910 -0.280416
N2    N     N_2   0.998660 0.500000 0.846910 -0.280414
N3    N     N_2   0.498630 0.000000 0.153040 -0.284815
N4    N     N_2   0.998630 0.500000 0.153040 -0.284815
O1    O     O_R   0.410990 0.910970 0.617040 -0.588077
O2    O     O_R   0.410990 0.089030 0.617040 -0.590601
O3    O     O_R   0.910990 0.410970 0.617040 -0.588078
O4    O     O_R   0.910990 0.589030 0.617040 -0.590600
O5    O     O_R   0.410950 0.910970 0.382900 -0.522510
O6    O     O_R   0.410950 0.089030 0.382900 -0.548692
O7    O     O_R   0.910950 0.410970 0.382900 -0.522505
O8    O     O_R   0.910950 0.589030 0.382900 -0.548693
O9    O     O_R   0.589050 0.089030 0.617100 -0.580845
O10   O     O_R   0.589050 0.910970 0.617100 -0.584085
O11   O     O_R   0.089050 0.589030 0.617100 -0.580846
O12   O     O_R   0.089050 0.410970 0.617100 -0.584084
O13   O     O_R   0.589010 0.089030 0.382960 -0.588006
O14   O     O_R   0.589010 0.910970 0.382960 -0.578779
O15   O     O_R   0.089010 0.589030 0.382960 -0.588006
O16   O     O_R   0.089010 0.410970 0.382960 -0.578780
O17   O     O_3   0.269522 0.149560 0.271494 -0.598657
C29   C     C_3   0.300236 0.193779 0.153789 0.057706
H21   H     H_    0.369119 0.176046 0.139265 0.172907
H22   H     H_    0.297370 0.265600 0.160769 0.115181
C30   C     C_3   0.247326 0.165181 0.027468 -0.339639
H23   H     H_    0.249643 0.093770 0.018679 0.208275
H24   H     H_    0.178770 0.184746 0.040505 0.225097
C31   C     C_3   0.281346 0.205065 0.894831 -0.936890
H25   H     H_    0.276643 0.276540 0.898979 0.254829
H26   H     H_    0.242011 0.181637 0.805749 0.257660
H27   H     H_    0.349789 0.186144 0.879218 0.266942
O18   O     O_3   0.322167 0.795681 0.255140 -0.582132
C32   C     C_3   0.256620 0.832538 0.170237 0.059902
H28   H     H_    0.251403 0.902474 0.194401 0.157388
H29   H     H_    0.191788 0.802508 0.184072 0.127517
C33   C     C_3   0.281198 0.821114 0.019070 -0.324424
H30   H     H_    0.347691 0.845654 0.002969 0.237512
H31   H     H_    0.280546 0.751266 0.993155 0.216611
C34   C     C_3   0.218613 0.868743 0.922313 -0.943886
H32   H     H_    0.152045 0.843045 0.933546 0.259807
H33   H     H_    0.238783 0.859691 0.813802 0.258712
H34   H     H_    0.218755 0.938874 0.945578 0.246326
O19   O     O_3   0.769521 0.649560 0.271494 -0.598657
C35   C     C_3   0.800238 0.693778 0.153790 0.057710
H35   H     H_    0.869121 0.676046 0.139269 0.172908
H36   H     H_    0.797370 0.765599 0.160769 0.115180
C36   C     C_3   0.747330 0.665178 0.027467 -0.339640
H37   H     H_    0.749649 0.593767 0.018679 0.208273
H38   H     H_    0.678774 0.684742 0.040501 0.225098
C37   C     C_3   0.781352 0.705063 0.894831 -0.936888
H39   H     H_    0.776646 0.776538 0.898978 0.254828
H40   H     H_    0.742019 0.681633 0.805748 0.257660
H41   H     H_    0.849796 0.686143 0.879222 0.266943
O20   O     O_3   0.822152 0.295695 0.255138 -0.582130
C38   C     C_3   0.756599 0.332553 0.170247 0.059892
H42   H     H_    0.751384 0.402489 0.194413 0.157392
H43   H     H_    0.691769 0.302523 0.184094 0.127522
C39   C     C_3   0.781166 0.321130 0.019076 -0.324441
H44   H     H_    0.847657 0.345672 0.002962 0.237506
H45   H     H_    0.780515 0.251283 0.993160 0.216616
C40   C     C_3   0.718573 0.368758 0.922330 -0.943877
H46   H     H_    0.652007 0.343056 0.933575 0.259809
H47   H     H_    0.738737 0.359708 0.813814 0.258708
H48   H     H_    0.718714 0.438889 0.945599 0.246329

loop_
_geom_bond_atom_site_label_1
_geom_bond_atom_site_label_2
_ccdc_geom_bond_type
C17   O17   S    
O17   C29   S    
Cu3   O5    S    
O19   C35   S    
C28   N4    D    
Cu4   O16   S    
C30   H23   S    
H16   N2    S    
Cu2   N2    S    
C29   H22   S    
C25   N1    D    
C7    O15   A    
C27   N3    D    
C30   C31   S    
C34   H33   S    
O20   C38   S    
C35   C36   S    
C23   H11   S    
C37   H41   S    
C9    C13   D    
C39   H44   S    
C5    O13   A    
C11   C15   D    
C9    C19   S    
Cu3   O14   S    
C20   C24   D    
C10   C20   S    
C29   C30   S    
C35   H36   S    
C18   O18   S    
C38   H42   S    
C12   H4    S    
C13   H5    S    
Cu2   O11   S    
H15   N1    S    
C40   H48   S    
C32   H29   S    
C1    C22   S    
Cu2   O3    S    
C9    H1    S    
C38   H43   S    
Cu3   O6    S    
C3    C24   S    
C28   H18   S    
C31   H27   S    
C26   N2    D    
Cu4   O15   S    
C20   O20   S    
C30   H24   S    
C8    O16   A    
C29   H21   S    
H20   N4    S    
C12   C16   D    
O18   C32   S    
Cu4   O8    S    
C5    O9    A    
C10   C14   D    
C34   H32   S    
C4    C23   S    
C32   H28   S    
C17   C21   D    
Cu2   O4    S    
C19   C23   D    
C1    O1    A    
C14   H6    S    
C36   H37   S    
C33   C34   S    
C6    O10   A    
C35   H35   S    
C4    O4    A    
C2    C21   S    
C10   H2    S    
Cu1   O2    S    
C37   H40   S    
C39   C40   S    
C15   H7    S    
C5    C14   S    
C16   H8    S    
C21   H9    S    
C31   H26   S    
C7    C16   S    
C36   H38   S    
C33   H31   S    
C8    O12   A    
C8    C15   S    
C24   H12   S    
C38   C39   S    
Cu1   O9    S    
C25   H13   S    
C19   O19   S    
C40   H46   S    
C32   C33   S    
C6    O14   A    
C11   C17   S    
C18   C22   D    
Cu4   O7    S    
Cu1   O1    S    
C31   H25   S    
C1    O5    A    
C2    O2    A    
C3    O7    A    
C25   C27   S    
C4    O8    A    
C26   C28   S    
C11   H3    S    
Cu1   Cu3   S    
C34   H34   S    
Cu2   Cu4   S    
C22   H10   S    
C40   H47   S    
Cu1   N1    S    
H19   N3    S    
C37   H39   S    
C39   H45   S    
C26   H14   S    
C7    O11   A    
Cu1   O10   S    
C2    O6    A    
Cu3   O13   S    
C36   C37   S    
C33   H30   S    
C12   C18   S    
Cu3   N3    S    
Cu4   N4    S    
Cu2   O12   S    
C27   H17   S    
C6    C13   S    
C3    O3    A    
