data_mof_unit_41637.cif
_audit_creation_date              2012-12-10T16:54:29-0500
_audit_creation_method            fapswitch 2.2
_symmetry_space_group_name_H-M    P1
_symmetry_Int_Tables_number       1
_space_group_crystal_system       triclinic
_cell_length_a                    15.045204
_cell_length_b                    10.987287
_cell_length_c                    9.726844
_cell_angle_alpha                 89.818676
_cell_angle_beta                  89.413971
_cell_angle_gamma                 90.570324
_cell_volume                      1607.73308778

loop_
_atom_site_label
_atom_site_type_symbol
_atom_type_description
_atom_site_fract_x
_atom_site_fract_y
_atom_site_fract_z
_atom_type_partial_charge
C1    C     C_R   0.498715 0.265908 0.499895 0.949088
C2    C     C_R   0.907716 0.589990 0.446906 0.076129
C3    C     C_R   0.951928 0.288175 0.606039 -0.214544
C4    C     C_R   0.044033 0.287158 0.602816 -0.179754
C5    C     C_R   0.093075 0.387056 0.550883 0.116800
C6    C     C_R   0.046980 0.490298 0.501736 -0.012612
C7    C     C_R   0.094406 0.593195 0.450236 0.093156
C8    C     C_R   0.047768 0.694425 0.397708 0.164273
C9    C     C_R   0.954851 0.690821 0.395631 -0.195892
C10   C     C_R   0.186905 0.385375 0.545281 0.115773
C11   C     C_R   0.232815 0.491134 0.500831 -0.040157
C12   C     C_R   0.329175 0.498174 0.500448 0.785692
C13   C     C_R   0.187299 0.592294 0.452819 -0.277693
C14   C     C_2   0.474301 0.935734 0.407602 -0.105251
C15   C     C_2   0.518288 0.863858 0.497178 -0.053669
C16   C     C_2   0.501696 0.062867 0.393124 0.060306
C17   C     C_2   0.484974 0.135790 0.500824 -0.321422
C18   C     C_2   0.461018 0.415625 0.925275 0.056538
C19   C     C_2   0.474749 0.407788 0.078807 -0.002576
C20   C     C_R   0.501954 0.733931 0.499697 0.809679
C21   C     C_R   0.670862 0.498194 0.499432 0.880745
C22   C     C_R   0.815276 0.588531 0.443342 -0.272381
C23   C     C_R   0.767216 0.490562 0.498472 -0.071971
C24   C     C_R   0.810936 0.389984 0.557056 -0.047498
C25   C     C_R   0.904886 0.388894 0.556752 0.046629
C26   C     C_R   0.953175 0.489861 0.502302 0.066074
Cu1   Cu    Cu3+1 0.500020 0.500020 0.638630 0.954779
Cu2   Cu    Cu3+1 0.499980 0.499980 0.361370 0.987256
H1    H     H_    0.780069 0.665424 0.400562 0.140849
H2    H     H_    0.453053 0.098102 0.592653 0.142983
H3    H     H_    0.544144 0.556180 0.892605 0.197344
H4    H     H_    0.457165 0.323552 0.131069 0.205203
H5    H     H_    0.508287 0.581217 0.104731 0.194829
H6    H     H_    0.918474 0.207695 0.645593 0.139232
H7    H     H_    0.075997 0.206799 0.642412 0.161419
H8    H     H_    0.225816 0.670214 0.417248 0.148662
H9    H     H_    0.918824 0.767463 0.354218 0.150285
N1    N     N_2   0.499020 0.498660 0.846910 -0.331657
N2    N     N_2   0.499000 0.498630 0.153040 -0.305808
O1    O     O_R   0.500020 0.321960 0.617040 -0.601310
O2    O     O_R   0.499980 0.321920 0.382900 -0.545978
O3    O     O_R   0.370270 0.499990 0.617090 -0.603363
O4    O     O_R   0.370240 0.499950 0.382940 -0.574492
O5    O     O_R   0.500020 0.678080 0.617100 -0.566132
O6    O     O_R   0.499980 0.678040 0.382960 -0.606203
O7    O     O_R   0.629760 0.500050 0.617060 -0.581536
O8    O     O_R   0.629730 0.500010 0.382910 -0.547069
C27   C     C_3   0.594743 0.910418 0.583968 -0.793614
H10   H     H_    0.630207 0.834509 0.634629 0.221247
H11   H     H_    0.644214 0.960026 0.518738 0.256943
H12   H     H_    0.569821 0.971284 0.666165 0.251017
C28   C     C_2   0.552778 0.097073 0.266933 0.433858
H13   H     H_    0.540720 0.048038 0.172156 0.088307
O9    O     O_2   0.612510 0.173038 0.269334 -0.506484
C29   C     C_2   0.400771 0.322353 0.866480 0.401345
H14   H     H_    0.372683 0.333638 0.766620 0.129125
O10   O     O_2   0.380113 0.230923 0.931512 -0.565909
C30   C     C_2   0.758948 0.286444 0.617001 0.361337
H15   H     H_    0.778334 0.246207 0.714007 0.064881
O11   O     O_2   0.695271 0.243454 0.556852 -0.527247
C31   C     C_3   0.236571 0.269694 0.579386 -0.865152
H16   H     H_    0.308482 0.275273 0.555272 0.209320
H17   H     H_    0.228232 0.247804 0.690285 0.240361
H18   H     H_    0.210241 0.193170 0.517027 0.242831
C32   C     C_3   0.095178 0.806373 0.342454 -0.830673
H19   H     H_    0.138872 0.781243 0.254553 0.245672
H20   H     H_    0.047886 0.875937 0.305486 0.234192
H21   H     H_    0.135718 0.848571 0.424665 0.231731
C33   C     C_2   0.395691 0.893276 0.328015 0.345606
H22   H     H_    0.365360 0.804851 0.347270 0.074878
O12   O     O_2   0.362548 0.958799 0.241227 -0.528331

loop_
_geom_bond_atom_site_label_1
_geom_bond_atom_site_label_2
_ccdc_geom_bond_type
C2    C22   A    
C31   H18   S    
C11   C12   S    
Cu2   O8    S    
C6    C7    A    
C22   H1    S    
Cu2   N2    S    
Cu2   O4    S    
C1    C17   S    
C20   O6    A    
C3    H6    S    
H3    N1    S    
C7    C13   A    
Cu1   O1    S    
C29   H14   S    
C32   H21   S    
C31   H16   S    
C9    H9    S    
C18   N1    D    
C4    H7    S    
C33   O12   D    
C5    C10   A    
C2    C26   A    
C25   C26   A    
H5    N2    S    
C28   H13   S    
C32   H19   S    
C17   H2    S    
C11   C13   A    
Cu1   O3    S    
C6    C26   A    
C19   N2    D    
C18   C29   S    
C5    C6    A    
C19   H4    S    
C15   C27   S    
Cu1   O7    S    
C1    O2    A    
C27   H10   S    
C20   O5    A    
C28   O9    D    
C18   C19   S    
C12   O4    A    
C33   H22   S    
C29   O10   D    
C21   C23   S    
C15   C20   S    
C14   C33   S    
C14   C16   S    
Cu2   O6    S    
C8    C32   S    
C7    C8    A    
C10   C11   A    
Cu1   N1    S    
C30   O11   D    
C3    C4    A    
C10   C31   S    
Cu2   O2    S    
C3    C25   A    
C24   C25   A    
C13   H8    S    
C24   C30   S    
C21   O7    A    
Cu1   Cu2   S    
C31   H17   S    
C14   C15   D    
C8    C9    A    
C12   O3    A    
C23   C24   A    
C1    O1    A    
C21   O8    A    
C30   H15   S    
C22   C23   A    
C2    C9    A    
Cu1   O5    S    
C27   H11   S    
C27   H12   S    
C16   C28   S    
C16   C17   D    
C4    C5    A    
C32   H20   S    
