data_mof_unit_46660.cif
_audit_creation_date              2012-10-26T18:26:37-0400
_audit_creation_method            fapswitch 2.2
_symmetry_space_group_name_H-M    P1
_symmetry_Int_Tables_number       1
_space_group_crystal_system       triclinic
_cell_length_a                    15.804008
_cell_length_b                    8.705359
_cell_length_c                    7.45413
_cell_angle_alpha                 103.123577
_cell_angle_beta                  93.53056
_cell_angle_gamma                 91.125946
_cell_volume                      996.259227824

loop_
_atom_site_label
_atom_site_type_symbol
_atom_type_description
_atom_site_fract_x
_atom_site_fract_y
_atom_site_fract_z
_atom_type_partial_charge
C1    C     C_R   0.497626 0.199799 0.453315 0.546095
C2    C     C_3   0.969032 0.638424 0.592285 0.030046
C3    C     C_1   0.250835 0.516335 0.513544 -0.035335
C4    C     C_1   0.749228 0.486927 0.486532 -0.042189
C5    C     C_3   0.029387 0.532413 0.677449 -0.114749
C6    C     C_3   0.970708 0.479740 0.319434 -0.103247
C7    C     C_3   0.083204 0.520086 0.510285 0.040477
C8    C     C_3   0.916755 0.491838 0.487424 0.051821
C9    C     C_1   0.175331 0.523298 0.516246 -0.071882
C10   C     C_1   0.824801 0.483964 0.483106 -0.072234
C11   C     C_3   0.074202 0.227896 0.300960 -0.250947
C12   C     C_R   0.502544 0.800204 0.546673 0.546405
C13   C     C_3   0.010761 0.093955 0.211784 -0.302831
C14   C     C_3   0.057403 0.944852 0.130785 -0.462097
C15   C     C_3   0.933951 0.790354 0.704392 -0.257482
C16   C     C_3   0.876802 0.873909 0.585766 -0.294830
C17   C     C_3   0.841619 0.022852 0.703124 -0.452950
C18   C     C_R   0.340078 0.504560 0.504179 0.550008
C19   C     C_R   0.659911 0.495600 0.495816 0.548026
C20   C     C_2   0.496483 0.031931 0.427143 -0.158233
C21   C     C_2   0.503920 0.968076 0.572835 -0.158328
C22   C     C_3   0.976165 0.384307 0.571092 -0.104345
C23   C     C_3   0.024290 0.627620 0.426363 -0.104586
C24   C     C_3   0.030944 0.373876 0.404492 0.029938
Cu1   Cu    Cu3+1 0.509330 0.517380 0.684380 0.957541
Cu2   Cu    Cu3+1 0.490670 0.482620 0.315620 0.957596
H1    H     H_    0.955975 0.283279 0.627609 0.097454
H2    H     H_    0.103418 0.916288 0.236044 0.151362
H3    H     H_    0.011230 0.843894 0.083828 0.130964
H4    H     H_    0.969071 0.069640 0.316878 0.157557
H5    H     H_    0.970541 0.128336 0.100675 0.156890
H6    H     H_    0.111517 0.260822 0.192882 0.145560
H7    H     H_    0.118735 0.188184 0.401294 0.146175
H8    H     H_    0.798914 0.991383 0.803157 0.159555
H9    H     H_    0.893988 0.102167 0.780365 0.139091
H10   H     H_    0.804924 0.086682 0.612743 0.148802
H11   H     H_    0.913888 0.905902 0.477555 0.151038
H12   H     H_    0.045180 0.728691 0.371283 0.099014
H13   H     H_    0.822661 0.795458 0.516555 0.172577
H14   H     H_    0.898043 0.761480 0.816733 0.144368
H15   H     H_    0.988468 0.870939 0.766060 0.140419
H16   H     H_    0.945825 0.455946 0.172841 0.096694
H17   H     H_    0.054257 0.556432 0.824088 0.099439
H18   H     H_    0.489421 0.960474 0.286666 0.134551
H19   H     H_    0.511010 0.039532 0.713311 0.134195
H20   H     H_    0.434862 0.378945 0.949016 0.240668
H21   H     H_    0.565145 0.621046 0.050981 0.239954
H22   H     H_    0.092803 0.962126 0.012327 0.152135
N1    N     N_2   0.476600 0.456420 0.038510 -0.255708
N2    N     N_2   0.523400 0.543580 0.961490 -0.256037
O1    O     O_R   0.506070 0.286130 0.619780 -0.506429
O2    O     O_R   0.493930 0.713870 0.380220 -0.506089
O3    O     O_R   0.490300 0.256770 0.308360 -0.498101
O4    O     O_R   0.509700 0.743230 0.691640 -0.498212
O5    O     O_R   0.386960 0.514660 0.655680 -0.499504
O6    O     O_R   0.613040 0.485340 0.344320 -0.500822
O7    O     O_R   0.371190 0.485310 0.344260 -0.494735
O8    O     O_R   0.628810 0.514690 0.655740 -0.494511

loop_
_geom_bond_atom_site_label_1
_geom_bond_atom_site_label_2
_ccdc_geom_bond_type
C19   O6    A    
C8    C22   S    
Cu1   O1    S    
C3    C9    T    
C17   H10   S    
Cu2   O2    S    
C23   H12   S    
C11   C13   S    
C13   H4    S    
C18   O7    A    
C16   H11   S    
C6    C24   S    
C5    H17   S    
C5    C7    S    
C13   C14   S    
C20   C21   D    
C2    C15   S    
C1    O1    A    
H20   N1    S    
Cu1   O8    S    
C18   O5    A    
C7    C23   S    
C6    C23   S    
C12   O2    A    
C11   H6    S    
C20   H18   S    
H21   N2    S    
C21   H19   S    
C22   H1    S    
C19   O8    A    
Cu2   O7    S    
C22   C24   S    
C15   H14   S    
C2    C5    S    
C17   H8    S    
C16   H13   S    
C4    C10   T    
C7    C24   S    
Cu2   O3    S    
Cu1   O5    S    
C11   C24   S    
C11   H7    S    
Cu1   O4    S    
C15   H15   S    
C3    C18   S    
C8    C10   S    
N1    N2    D    
C6    H16   S    
Cu2   N1    S    
C2    C8    S    
C2    C23   S    
C7    C9    S    
C14   H22   S    
C1    O3    A    
Cu1   N2    S    
C1    C20   S    
C6    C8    S    
C17   H9    S    
C14   H2    S    
Cu1   Cu2   S    
C4    C19   S    
C12   C21   S    
C13   H5    S    
C12   O4    A    
C5    C22   S    
C15   C16   S    
C14   H3    S    
C16   C17   S    
Cu2   O6    S    
