data_mof_unit_64039.cif
_audit_creation_date              2012-12-10T20:53:16-0500
_audit_creation_method            fapswitch 2.2
_symmetry_space_group_name_H-M    P1
_symmetry_Int_Tables_number       1
_space_group_crystal_system       triclinic
_cell_length_a                    15.876743
_cell_length_b                    15.089373
_cell_length_c                    10.814238
_cell_angle_alpha                 90.008362
_cell_angle_beta                  89.988994
_cell_angle_gamma                 90.000785
_cell_volume                      2590.76797265

loop_
_atom_site_label
_atom_site_type_symbol
_atom_type_description
_atom_site_fract_x
_atom_site_fract_y
_atom_site_fract_z
_atom_type_partial_charge
C1    C     C_R   0.339002 0.499991 0.500159 0.895436
C2    C     C_R   0.660998 0.499992 0.499839 0.895440
C3    C     C_R   0.499522 0.951953 0.387210 0.355484
C4    C     C_R   0.500501 0.951973 0.612777 0.355446
C5    C     C_R   0.500008 0.904988 0.499993 -0.053072
C6    C     C_R   0.500503 0.046857 0.612684 -0.111272
C7    C     C_R   0.499527 0.046837 0.387309 -0.111108
C8    C     C_R   0.500012 0.094683 0.499998 -0.105853
C9    C     C_1   0.500003 0.807013 0.499995 0.305661
C10   C     C_1   0.500005 0.193010 0.500000 0.176871
C11   C     C_R   0.496911 0.499688 0.262267 0.854074
C12   C     C_R   0.503296 0.499703 0.737736 0.853846
C13   C     C_2   0.492979 0.427500 0.934106 0.319997
C14   C     C_2   0.509093 0.427795 0.066022 0.320439
C15   C     C_2   0.520152 0.497320 0.867982 0.276708
C16   C     C_2   0.480712 0.497209 0.131906 0.277071
C17   C     C_R   0.956010 0.583062 0.499049 -0.122086
C18   C     C_R   0.043992 0.583053 0.502002 -0.122086
C19   C     C_R   0.912970 0.501694 0.498803 -0.015378
C20   C     C_R   0.087030 0.501686 0.501239 -0.015356
C21   C     C_R   0.955657 0.420450 0.501454 0.339864
C22   C     C_R   0.044341 0.420462 0.497582 0.339811
C23   C     C_1   0.823831 0.500667 0.499105 0.097337
C24   C     C_1   0.176169 0.500661 0.500917 0.097302
C25   C     C_1   0.250841 0.500113 0.500548 -0.136152
C26   C     C_1   0.749159 0.500116 0.499460 -0.135877
N1    N     N_1   0.500000 0.270550 0.500000 -0.072308
N2    N     N_1   0.500000 0.729450 0.500000 -0.088649
O1    O     O_R   0.378020 0.573650 0.500040 -0.614032
O2    O     O_R   0.621980 0.573650 0.499960 -0.614227
O3    O     O_R   0.378020 0.426320 0.500100 -0.594848
O4    O     O_R   0.621980 0.426320 0.499900 -0.594605
O5    O     O_R   0.500000 0.573650 0.319080 -0.620551
O6    O     O_R   0.500000 0.573650 0.680920 -0.620868
O7    O     O_R   0.500000 0.426320 0.319140 -0.569402
O8    O     O_R   0.500000 0.426320 0.680860 -0.568705
Zn1   Zn    Zn3+2 0.500000 0.598370 0.500000 1.028386
Zn2   Zn    Zn3+2 0.500000 0.401630 0.500000 1.063573
O9    O     O_3   0.447495 0.359020 0.880977 -0.756683
H1    H     H_    0.431322 0.316691 0.947034 0.351152
O10   O     O_3   0.555456 0.360139 0.119544 -0.757077
H2    H     H_    0.572338 0.317953 0.053677 0.350959
O11   O     O_3   0.568592 0.562941 0.923221 -0.750218
H3    H     H_    0.587842 0.605403 0.859272 0.354600
O12   O     O_3   0.431576 0.562111 0.076388 -0.750483
H4    H     H_    0.411594 0.604268 0.140269 0.354059
C27   C     C_1   0.090139 0.666127 0.504401 0.230966
N3    N     N_1   0.126963 0.732306 0.506312 -0.166745
C28   C     C_1   0.909865 0.666148 0.497679 0.230964
N4    N     N_1   0.873042 0.732336 0.496588 -0.166772
O13   O     O_3   0.909075 0.343231 0.509622 -0.744620
H5    H     H_    0.943241 0.297468 0.551903 0.349902
O14   O     O_3   0.090921 0.343296 0.488456 -0.744707
H6    H     H_    0.056754 0.297797 0.445604 0.349907
C29   C     C_1   0.499033 0.095782 0.272010 0.200624
N5    N     N_1   0.498634 0.134994 0.180026 -0.159502
C30   C     C_1   0.501026 0.095817 0.727987 0.200940
N6    N     N_1   0.501448 0.135037 0.819979 -0.158926
O15   O     O_3   0.499053 0.902357 0.279381 -0.746060
H7    H     H_    0.498743 0.941400 0.206053 0.353793
O16   O     O_3   0.500974 0.902396 0.720603 -0.746150
H8    H     H_    0.501280 0.941451 0.793934 0.353765

loop_
_geom_bond_atom_site_label_1
_geom_bond_atom_site_label_2
_ccdc_geom_bond_type
C16   O12   S    
C10   N1    T    
C19   C23   S    
C29   N5    T    
O3    Zn2   S    
C5    C9    S    
O4    Zn2   S    
C12   O8    A    
O6    Zn1   S    
C11   C16   S    
C3    C7    A    
C27   N3    T    
C12   C15   S    
C7    C29   S    
O11   H3    S    
C18   C27   S    
C11   O7    A    
C17   C18   A    
C15   O11   S    
O15   H7    S    
C2    C26   S    
C21   C22   A    
C1    C25   S    
C6    C30   S    
C30   N6    T    
N2    Zn1   S    
C14   O10   S    
O8    Zn2   S    
C17   C19   A    
O14   H6    S    
C20   C22   A    
C28   N4    T    
C22   O14   S    
C18   C20   A    
C13   C15   D    
C1    O3    A    
O16   H8    S    
C14   C16   D    
C13   O9    S    
C21   O13   S    
C7    C8    A    
C2    O2    A    
C1    O1    A    
N1    Zn2   S    
O1    Zn1   S    
O13   H5    S    
C11   O5    A    
O7    Zn2   S    
C24   C25   T    
O2    Zn1   S    
C2    O4    A    
C4    C6    A    
O10   H2    S    
C23   C26   T    
C17   C28   S    
O9    H1    S    
C6    C8    A    
C13   C14   S    
C19   C21   A    
O12   H4    S    
C12   O6    A    
C4    O16   S    
C8    C10   S    
O5    Zn1   S    
C20   C24   S    
C9    N2    T    
C4    C5    A    
C3    C5    A    
C3    O15   S    
