data_mof_unit_37913.cif
_audit_creation_date              2012-12-11T14:46:16-0500
_audit_creation_method            fapswitch 2.2
_symmetry_space_group_name_H-M    P1
_symmetry_Int_Tables_number       1
_space_group_crystal_system       triclinic
_cell_length_a                    11.087801
_cell_length_b                    11.033991
_cell_length_c                    18.812196
_cell_angle_alpha                 90.286675
_cell_angle_beta                  89.386035
_cell_angle_gamma                 119.507394
_cell_volume                      2002.89253915

loop_
_atom_site_label
_atom_site_type_symbol
_atom_type_description
_atom_site_fract_x
_atom_site_fract_y
_atom_site_fract_z
_atom_type_partial_charge
Br1   Br    Br    0.872519 0.451083 0.861793 -0.329077
Br2   Br    Br    0.032449 0.954753 0.801398 -0.397698
Br3   Br    Br    0.439121 0.462876 0.193409 -0.240163
Br4   Br    Br    0.301844 0.934295 0.336148 -0.255124
Br5   Br    Br    0.032065 0.977418 0.193354 -0.188767
Br6   Br    Br    0.529083 0.531309 0.792546 -0.458125
Br7   Br    Br    0.369036 0.265525 0.672213 -0.327288
Br8   Br    Br    0.106358 0.337291 0.915461 -0.274782
C1    C     C_R   0.867150 0.634296 0.604741 0.599638
C2    C     C_R   0.958059 0.174016 0.709371 -0.068680
C3    C     C_R   0.954694 0.196633 0.783710 -0.022897
C4    C     C_R   0.267866 0.631711 0.604008 0.625604
C5    C     C_R   0.711800 0.088928 0.701058 -0.035274
C6    C     C_R   0.704945 0.118419 0.773988 -0.048502
C7    C     C_R   0.590650 0.022829 0.659596 0.230260
C8    C     C_R   0.470350 0.016519 0.684134 -0.091747
C9    C     C_R   0.463938 0.061854 0.751935 -0.064406
C10   C     C_R   0.578193 0.115079 0.796746 0.263995
C11   C     C_R   0.840809 0.142545 0.668048 0.037899
C12   C     C_R   0.458947 0.648456 0.765649 0.065075
C13   C     C_R   0.819580 0.532380 0.724894 -0.030308
C14   C     C_R   0.823150 0.552672 0.798542 0.211677
C15   C     C_R   0.828992 0.673235 0.824241 0.113610
C16   C     C_R   0.861620 0.223069 0.601339 0.599707
C17   C     C_R   0.870621 0.786403 0.777703 0.126167
C18   C     C_R   0.852147 0.764231 0.705620 -0.026515
C19   C     C_R   0.830079 0.638152 0.678364 0.074163
C20   C     C_R   0.401335 0.615922 0.298776 -0.116300
C21   C     C_R   0.406968 0.610392 0.226107 0.129936
C22   C     C_R   0.378450 0.699854 0.183678 -0.009987
C23   C     C_R   0.432290 0.648960 0.694064 0.238812
C24   C     C_R   0.344800 0.794077 0.217319 0.175754
C25   C     C_R   0.333868 0.793791 0.291591 0.142364
C26   C     C_R   0.349305 0.693265 0.331287 -0.041327
C27   C     C_R   0.724029 0.105248 0.293828 -0.149394
C28   C     C_R   0.866297 0.637707 0.397864 0.588426
C29   C     C_R   0.709803 0.082511 0.221774 -0.148438
C30   C     C_R   0.826188 0.143178 0.176507 0.024752
C31   C     C_R   0.958268 0.224353 0.203638 0.270016
C32   C     C_R   0.974736 0.234440 0.277237 0.266478
C33   C     C_R   0.855746 0.182867 0.322426 0.019357
C34   C     C_R   0.327755 0.675947 0.674032 -0.015571
C35   C     C_R   0.873947 0.782304 0.298348 0.231058
C36   C     C_R   0.887370 0.797411 0.225293 0.128406
C37   C     C_R   0.817438 0.678097 0.180425 0.000304
C38   C     C_R   0.761254 0.544893 0.209816 0.215540
C39   C     C_R   0.766354 0.531632 0.282943 -0.135494
C40   C     C_R   0.276652 0.638570 0.398672 0.580533
C41   C     C_R   0.823921 0.650382 0.327099 -0.036267
C42   C     C_R   0.801400 0.098081 0.892872 0.597647
C43   C     C_R   0.450506 0.720131 0.889107 0.573578
C44   C     C_R   0.800973 0.692312 0.898282 0.608835
C45   C     C_R   0.824831 0.151032 0.817739 0.049694
C46   C     C_R   0.803837 0.103219 0.102787 0.605826
C47   C     C_R   0.407508 0.708501 0.107213 0.602321
C48   C     C_R   0.797415 0.698755 0.105729 0.593903
C49   C     C_R   0.865337 0.232699 0.395061 0.590116
C50   C     C_R   0.263985 0.720804 0.725356 0.148711
C51   C     C_R   0.302233 0.735201 0.796233 0.240448
C52   C     C_R   0.403594 0.702454 0.816213 -0.043625
C53   C     C_R   0.082234 0.262216 0.820704 0.167618
C54   C     C_R   0.202774 0.281988 0.786711 -0.060991
C55   C     C_R   0.202675 0.243748 0.715899 0.217656
C56   C     C_R   0.079340 0.183546 0.678015 0.273267
Cl1   Cl    Cl    0.144088 0.771536 0.702752 -0.563837
Cl2   Cl    Cl    0.071285 0.092080 0.598535 -0.449920
Cl3   Cl    Cl    0.556706 0.206678 0.868898 -0.423447
Cl4   Cl    Cl    0.586287 0.947719 0.575642 -0.516862
Cl5   Cl    Cl    0.307257 0.906987 0.167430 -0.391661
Cl6   Cl    Cl    0.210433 0.778493 0.860179 -0.386938
Cl7   Cl    Cl    0.101110 0.312470 0.145145 -0.383640
Cl8   Cl    Cl    0.143512 0.297499 0.309665 -0.399170
Cl9   Cl    Cl    0.928739 0.930009 0.354051 -0.444957
Cl10  Cl    Cl    0.701894 0.395173 0.156081 -0.450292
Cl11  Cl    Cl    0.528943 0.614250 0.629505 -0.465220
Cr1   Cr    Cr6+3 0.791660 0.390250 0.499930 1.133174
Cr2   Cr    Cr6+3 0.098520 0.708290 0.500540 1.195237
Cr3   Cr    Cr6+3 0.109770 0.401430 0.499480 1.199220
Cr4   Cr    Cr6+3 0.874790 0.925890 0.000070 1.192379
Cr5   Cr    Cr6+3 0.574120 0.948670 0.999300 1.198784
Cr6   Cr    Cr6+3 0.551420 0.625320 0.000920 1.203801
H1    H     H_    0.382131 0.979080 0.649440 0.231295
H2    H     H_    0.369092 0.059143 0.769127 0.245622
H3    H     H_    0.823344 0.442441 0.704237 0.133229
H4    H     H_    0.882557 0.852055 0.670529 0.204127
H5    H     H_    0.420930 0.544843 0.329730 0.213350
H6    H     H_    0.631946 0.063273 0.327180 0.192835
H7    H     H_    0.606904 0.017568 0.201152 0.183438
H8    H     H_    0.732568 0.428898 0.304607 0.188673
H9    H     H_    0.293062 0.314206 0.818555 0.230264
O1    O     O_R   0.766500 0.250040 0.579790 -0.472451
O2    O     O_R   0.413330 0.603360 0.920440 -0.421460
O3    O     O_R   0.676110 0.626250 0.926750 -0.465033
O4    O     O_R   0.798570 0.516780 0.574780 -0.484757
O5    O     O_R   0.895350 0.809870 0.080950 -0.456629
O6    O     O_R   0.872490 0.049760 0.073800 -0.450819
O7    O     O_R   0.691680 0.088070 0.079070 -0.459968
O8    O     O_R   0.451720 0.825250 0.074050 -0.460100
O9    O     O_R   0.413580 0.606370 0.080960 -0.424354
O10   O     O_R   0.676340 0.629040 0.075550 -0.451908
O11   O     O_3   0.666780 0.833290 0.000090 -0.390174
O12   O     O_R   0.218690 0.701900 0.425960 -0.468352
O13   O     O_R   0.984000 0.732950 0.581090 -0.426357
O14   O     O_R   0.218600 0.700890 0.574760 -0.458079
O15   O     O_R   0.249390 0.515350 0.579940 -0.455048
O16   O     O_R   0.982790 0.280900 0.573700 -0.472863
O17   O     O_R   0.766600 0.251130 0.419260 -0.503597
O18   O     O_R   0.798660 0.517790 0.425980 -0.516534
O19   O     O_R   0.984100 0.734040 0.420570 -0.414430
O20   O     O_R   0.249490 0.516440 0.419420 -0.462450
O21   O     O_R   0.982880 0.281910 0.424890 -0.424127
O22   O     O_3   0.999980 0.499990 0.499980 -0.346058
O23   O     O_R   0.895110 0.806860 0.920430 -0.444232
O24   O     O_R   0.872260 0.046970 0.925000 -0.460509
O25   O     O_R   0.691430 0.085060 0.918550 -0.450967
O26   O     O_R   0.451490 0.822460 0.925250 -0.440634

loop_
_geom_bond_atom_site_label_1
_geom_bond_atom_site_label_2
_ccdc_geom_bond_type
C35   Cl9   S    
C48   O5    A    
C40   O20   A    
C23   C34   A    
Cr5   O7    S    
C28   O18   A    
C6    C10   A    
C29   H7    S    
C34   C50   A    
C39   C41   A    
Cr6   O11   S    
C37   C38   A    
C18   C19   A    
C54   C55   A    
Cr3   O15   S    
C51   Cl6   S    
C20   C21   A    
C27   C29   A    
C29   C30   A    
C4    O14   A    
C30   C31   A    
C7    C8    A    
C42   O25   A    
Br3   C21   S    
C4    C34   S    
Cr1   O4    S    
C38   C39   A    
Cr6   O2    S    
C27   H6    S    
Cr5   O26   S    
C37   C48   S    
C8    C9    A    
C13   H3    S    
C46   O7    A    
Cr3   O21   S    
C12   C52   A    
C46   O6    A    
C3    C45   A    
Cr1   O22   S    
Br8   C53   S    
C13   C19   A    
C20   C26   A    
C51   C52   A    
Cr1   O18   S    
C13   C14   A    
C39   H8    S    
Cr2   O12   S    
C49   O21   A    
C25   C26   A    
C42   C45   S    
C5    C11   A    
C10   Cl3   S    
C31   C32   A    
C35   C41   A    
Cr6   O9    S    
C50   C51   A    
C44   O23   A    
C9    H2    S    
C56   Cl2   S    
Cr2   O22   S    
C35   C36   A    
Cr4   O5    S    
C21   C22   A    
C43   O2    A    
Cr6   O3    S    
C50   Cl1   S    
C23   Cl11  S    
C30   C46   S    
Cr5   O25   S    
C2    C11   A    
C1    O13   A    
C40   O12   A    
C8    H1    S    
C9    C10   A    
C44   O3    A    
Cr3   O20   S    
Cr2   O19   S    
Br7   C55   S    
C32   C33   A    
C49   O17   A    
Br5   C36   S    
Cr1   O17   S    
C5    C7    A    
C20   H5    S    
Cr2   O13   S    
C16   O16   A    
C48   O10   A    
C16   O1    A    
C38   Cl10  S    
C36   C37   A    
C1    C19   S    
Br4   C25   S    
C32   Cl8   S    
Cr5   O8    S    
C2    C56   A    
C3    C53   A    
C24   Cl5   S    
Cr6   O10   S    
Br6   C12   S    
C22   C47   S    
C43   O26   A    
Cr5   O11   S    
Cr3   O16   S    
C24   C25   A    
Cr4   O23   S    
C11   C16   S    
C17   C18   A    
C33   C49   S    
Cr4   O6    S    
C22   C24   A    
C15   C44   S    
C4    O15   A    
C18   H4    S    
C7    Cl4   S    
C54   H9    S    
C47   O8    A    
Br2   C17   S    
C15   C17   A    
C53   C54   A    
C27   C33   A    
C2    C3    A    
Cr1   O1    S    
C55   C56   A    
Br1   C14   S    
C6    C45   A    
C26   C40   S    
Cr4   O24   S    
C47   O9    A    
C28   O19   A    
C31   Cl7   S    
C14   C15   A    
Cr4   O11   S    
Cr2   O14   S    
Cr3   O22   S    
C43   C52   S    
C42   O24   A    
C5    C6    A    
C1    O4    A    
C28   C41   S    
C12   C23   A    
