data_mof_unit_29521.cif
_audit_creation_date              2012-12-11T17:47:21-0500
_audit_creation_method            fapswitch 2.2
_symmetry_space_group_name_H-M    P1
_symmetry_Int_Tables_number       1
_space_group_crystal_system       triclinic
_cell_length_a                    14.854012
_cell_length_b                    14.89153
_cell_length_c                    15.132613
_cell_angle_alpha                 110.423244
_cell_angle_beta                  108.999375
_cell_angle_gamma                 108.732254
_cell_volume                      2584.47332709

loop_
_atom_site_label
_atom_site_type_symbol
_atom_type_description
_atom_site_fract_x
_atom_site_fract_y
_atom_site_fract_z
_atom_type_partial_charge
C1    C     C_R   0.973233 0.247360 0.060775 -0.103628
C2    C     C_R   0.092808 0.805888 0.007783 -0.130726
C3    C     C_R   0.323628 0.784858 0.326607 0.077587
C4    C     C_R   0.702757 0.130335 0.700800 0.100687
C5    C     C_R   0.307404 0.501902 0.943529 0.036626
C6    C     C_R   0.674588 0.500202 0.950179 0.040528
C7    C     C_R   0.945724 0.501885 0.305123 0.061729
C8    C     C_R   0.963462 0.503306 0.679026 0.051640
C9    C     C_R   0.173336 0.042412 0.087787 -0.189382
C10   C     C_R   0.063843 0.139426 0.161426 -0.217264
C11   C     C_R   0.140538 0.021544 0.787146 -0.144559
C12   C     C_R   0.895356 0.929701 0.284732 -0.127290
C13   C     C_R   0.111576 0.033865 0.867818 -0.115185
C14   C     C_R   0.980112 0.993047 0.274895 -0.183347
C15   C     C_R   0.607158 0.308221 0.114674 -0.132425
C16   C     C_R   0.326332 0.680911 0.807186 -0.118470
C17   C     C_R   0.696294 0.386137 0.217980 -0.122818
C18   C     C_R   0.221560 0.612784 0.716752 -0.116704
C19   C     C_R   0.742248 0.352759 0.288818 0.114095
C20   C     C_R   0.155088 0.657537 0.686549 0.112152
C21   C     C_R   0.693248 0.240581 0.256730 -0.155402
C22   C     C_R   0.194825 0.771063 0.747785 -0.190493
C23   C     C_R   0.315391 0.757833 0.224864 -0.093503
C24   C     C_R   0.704600 0.194650 0.794090 -0.107379
C25   C     C_R   0.602240 0.162975 0.153946 -0.093502
C26   C     C_R   0.299389 0.838759 0.838523 -0.104229
C27   C     C_R   0.560119 0.196597 0.082434 -0.103571
C28   C     C_R   0.365201 0.793695 0.868170 -0.106070
C29   C     C_R   0.854753 0.435983 0.487630 -0.234668
C30   C     C_R   0.034286 0.584800 0.496541 -0.246790
C31   C     C_R   0.953322 0.510141 0.584828 0.070880
C32   C     C_R   0.938072 0.508031 0.398522 0.067385
C33   C     C_R   0.044347 0.585719 0.589847 0.014964
C34   C     C_R   0.845800 0.433749 0.392531 0.018170
C35   C     C_R   0.186354 0.120171 0.975205 0.079451
C36   C     C_R   0.958813 0.987922 0.175547 0.104780
C37   C     C_R   0.318223 0.180725 0.919217 -0.142752
C38   C     C_R   0.765313 0.870256 0.102373 -0.138505
C39   C     C_R   0.218156 0.011545 0.504251 -0.214596
C40   C     C_R   0.915601 0.034620 0.599487 -0.233280
C41   C     C_R   0.306799 0.998561 0.502690 0.505871
C42   C     C_R   0.815270 0.985026 0.594813 0.487517
C43   C     C_R   0.330496 0.925327 0.531955 -0.032204
C44   C     C_R   0.721683 0.976100 0.519468 -0.027575
C45   C     C_R   0.214256 0.409380 0.908888 -0.158841
C46   C     C_R   0.775688 0.592395 0.025122 -0.150721
C47   C     C_R   0.267288 0.869766 0.566856 -0.242843
C48   C     C_R   0.729222 0.010195 0.445070 -0.234418
C49   C     C_R   0.175266 0.878898 0.562134 -0.122954
C50   C     C_R   0.829987 0.060310 0.451295 -0.106075
C51   C     C_R   0.150585 0.949493 0.530703 -0.201730
C52   C     C_R   0.923378 0.073919 0.529475 -0.202429
C53   C     C_R   0.521098 0.980264 0.623566 -0.196101
C54   C     C_R   0.522235 0.863512 0.435817 -0.232995
C55   C     C_R   0.618482 0.014883 0.620021 0.119808
C56   C     C_R   0.423089 0.850152 0.432190 0.088535
C57   C     C_R   0.621020 0.948949 0.527865 0.114423
C58   C     C_R   0.423087 0.909299 0.528787 0.072555
C59   C     C_R   0.243647 0.095720 0.812767 -0.108721
C60   C     C_R   0.787813 0.869619 0.199232 -0.104602
C61   C     C_R   0.048787 0.041396 0.158380 0.029352
C62   C     C_R   0.160742 0.119376 0.060984 0.016964
C63   C     C_R   0.290546 0.193224 0.000952 -0.154718
C64   C     C_R   0.850645 0.928069 0.089923 -0.141211
C65   C     C_R   0.100191 0.987834 0.114367 0.077263
C66   C     C_R   0.099302 0.165630 0.093920 0.063733
C67   C     C_R   0.998939 0.592338 0.300266 -0.174076
C68   C     C_R   0.944033 0.409100 0.685938 -0.138956
C69   C     C_3   0.463317 0.397467 0.878757 -0.159114
C70   C     C_3   0.509049 0.607407 0.983225 -0.186249
C71   C     C_3   0.405871 0.450951 0.827927 -0.138687
C72   C     C_3   0.565460 0.553917 0.033614 -0.144369
C73   C     C_3   0.399728 0.503869 0.930922 0.183490
C74   C     C_3   0.573149 0.500712 0.931322 0.192619
C75   C     C_3   0.455793 0.450988 0.981449 -0.159028
C76   C     C_3   0.518241 0.554634 0.880688 -0.155211
C77   C     C_R   0.304064 0.592731 0.002127 -0.131952
C78   C     C_R   0.684862 0.407870 0.933999 -0.122290
C79   C     C_R   0.912676 0.409105 0.211980 -0.131384
C80   C     C_R   0.026835 0.593522 0.781517 -0.096760
C81   C     C_R   0.219281 0.746891 0.311702 -0.125917
C82   C     C_R   0.792246 0.197157 0.700081 -0.111796
C83   C     C_R   0.068365 0.250762 0.972338 -0.084583
C84   C     C_R   0.002939 0.803822 0.099481 -0.123590
C85   C     C_R   0.051654 0.221245 0.045676 0.059968
C86   C     C_R   0.063851 0.869940 0.073142 0.068045
H1    H     H_    0.937591 0.234354 0.109734 0.089982
H2    H     H_    0.151679 0.833582 0.983004 0.094302
H3    H     H_    0.083347 0.953703 0.705197 0.120831
H4    H     H_    0.913204 0.925886 0.358019 0.132779
H5    H     H_    0.398497 0.234664 0.938130 0.105167
H6    H     H_    0.682300 0.823976 0.035967 0.113099
H7    H     H_    0.491632 0.135957 0.001926 0.107260
H8    H     H_    0.446202 0.846065 0.938417 0.096086
H9    H     H_    0.576510 0.335089 0.059556 0.108012
H10   H     H_    0.377426 0.646293 0.829856 0.116566
H11   H     H_    0.732059 0.472147 0.241192 0.112896
H12   H     H_    0.192238 0.525475 0.670315 0.107279
H13   H     H_    0.727534 0.212803 0.309683 0.108429
H14   H     H_    0.143557 0.806312 0.727283 0.118192
H15   H     H_    0.565791 0.076530 0.128878 0.103035
H16   H     H_    0.329088 0.925963 0.886084 0.116658
H17   H     H_    0.785893 0.379197 0.486075 0.143184
H18   H     H_    0.105949 0.638439 0.499120 0.135067
H19   H     H_    0.032289 0.974222 0.847600 0.167129
H20   H     H_    0.062769 0.039997 0.341379 0.123754
H21   H     H_    0.429982 0.412913 0.026365 0.119227
H22   H     H_    0.546643 0.596886 0.839668 0.123611
H23   H     H_    0.381043 0.775045 0.206188 0.087650
H24   H     H_    0.658265 0.167563 0.830559 0.084169
H25   H     H_    0.350679 0.257435 0.083972 0.128559
H26   H     H_    0.832915 0.924781 0.013172 0.135060
H27   H     H_    0.080431 0.957874 0.529121 0.132010
H28   H     H_    0.001770 0.114159 0.535222 0.131785
H29   H     H_    0.201948 0.070028 0.485168 0.142935
H30   H     H_    0.988448 0.046293 0.659796 0.154645
H31   H     H_    0.285890 0.815098 0.591819 0.150803
H32   H     H_    0.658626 0.004930 0.387213 0.146355
H33   H     H_    0.122528 0.831037 0.582277 0.124358
H34   H     H_    0.836037 0.090512 0.396791 0.132807
H35   H     H_    0.516981 0.024535 0.694484 0.117615
H36   H     H_    0.523116 0.815281 0.363750 0.123816
H37   H     H_    0.221891 0.009249 0.063806 0.125230
H38   H     H_    0.026837 0.180572 0.198270 0.122970
H39   H     H_    0.337394 0.409272 0.744180 0.113940
H40   H     H_    0.632146 0.595941 0.118459 0.112996
H41   H     H_    0.444937 0.311212 0.833909 0.109682
H42   H     H_    0.525396 0.693124 0.026256 0.099877
H43   H     H_    0.187627 0.325513 0.851674 0.112264
H44   H     H_    0.794655 0.677302 0.059718 0.126700
H45   H     H_    0.022823 0.676476 0.353670 0.118591
H46   H     H_    0.900683 0.324954 0.620273 0.109588
H47   H     H_    0.358442 0.677376 0.030389 0.091086
H48   H     H_    0.621069 0.322853 0.884766 0.097694
H49   H     H_    0.859764 0.324700 0.185532 0.108205
H50   H     H_    0.055708 0.678856 0.804877 0.110944
H51   H     H_    0.193260 0.743232 0.368796 0.122165
H52   H     H_    0.823117 0.176814 0.645657 0.117356
H53   H     H_    0.124080 0.245848 0.942774 0.117087
H54   H     H_    0.985312 0.828046 0.164302 0.125550
H55   H     H_    0.267111 0.086897 0.751076 0.135775
H56   H     H_    0.722226 0.822070 0.207834 0.111730
N1    N     N_R   0.947560 0.293820 0.002910 -0.043737
N2    N     N_R   0.052440 0.706180 0.997090 -0.041985
N3    N     N_R   0.208960 0.706170 0.152110 -0.043775
N4    N     N_R   0.791040 0.293830 0.847890 -0.043231
N5    N     N_R   0.154330 0.443160 0.946140 -0.043145
N6    N     N_R   0.845670 0.556840 0.053860 -0.041564
N7    N     N_R   0.002190 0.556820 0.208880 -0.040396
N8    N     N_R   0.997810 0.443180 0.791120 -0.042309
N9    N     N_R   0.210550 0.556810 0.002910 -0.040089
N10   N     N_R   0.789450 0.443190 0.997090 -0.041116
N11   N     N_R   0.945970 0.443180 0.152110 -0.042268
N12   N     N_R   0.054030 0.556820 0.847890 -0.043636
N13   N     N_R   0.151530 0.706170 0.208880 -0.042579
N14   N     N_R   0.848470 0.293830 0.791120 -0.044196
N15   N     N_R   0.004980 0.293810 0.946140 -0.042371
N16   N     N_R   0.995020 0.706190 0.053860 -0.043405
Ni1   Ni    Ni4+2 0.869690 0.369690 0.000000 0.219927
Ni2   Ni    Ni4+2 0.130310 0.630310 0.000000 0.221489
Ni3   Ni    Ni4+2 0.001390 0.369680 0.869810 0.225530
Ni4   Ni    Ni4+2 0.998610 0.630320 0.130190 0.217799
Cl1   Cl    Cl    0.387043 0.075612 0.464558 -0.692478
Cl2   Cl    Cl    0.811071 0.942467 0.688967 -0.719186

loop_
_geom_bond_atom_site_label_1
_geom_bond_atom_site_label_2
_ccdc_geom_bond_type
C16   C28   A    
C39   C51   A    
C75   H21   S    
C67   N7    A    
C2    N2    A    
C3    C23   A    
C17   H11   S    
C77   N9    A    
C66   C85   S    
C83   H53   S    
C78   N10   A    
C65   C86   S    
C39   C41   A    
C40   H30   S    
C81   H51   S    
C23   N3    A    
C51   H27   S    
C42   C44   A    
C50   H34   S    
C12   H4    S    
C19   C21   A    
C84   C86   A    
C13   C35   A    
C10   H38   S    
C15   H9    S    
C71   C76   S    
C21   H13   S    
C42   Cl2   S    
C6    C78   A    
C38   H6    S    
C29   H17   S    
C7    C67   A    
C28   H8    S    
C2    C86   A    
C1    H1    S    
C69   C71   S    
N7    N11   A    
C14   C36   A    
C22   C26   A    
C43   C58   S    
C60   H56   S    
C46   N6    A    
C49   C51   A    
C3    C81   A    
C50   C52   A    
C31   C33   A    
C2    H2    S    
N2    Ni2   S    
N1    N15   A    
C82   N14   A    
C10   C66   A    
C54   H36   S    
N10   Ni1   S    
C76   H22   S    
C5    C73   S    
C41   C43   A    
C77   H47   S    
C72   C75   S    
C11   C59   A    
C47   C49   A    
C37   C63   A    
C6    C74   S    
C38   C64   A    
C53   C55   A    
N13   Ni4   S    
C1    C85   A    
C23   H23   S    
C54   C56   A    
C16   H10   S    
C22   H14   S    
C37   H5    S    
C9    C62   A    
C62   C66   A    
C24   H24   S    
C72   C74   S    
N5    Ni3   S    
C71   C73   S    
N3    Ni2   S    
C84   N16   A    
C48   H32   S    
N4    Ni1   S    
C40   C52   A    
C5    C45   A    
C29   C34   A    
C72   H40   S    
C68   H46   S    
N11   Ni1   S    
N5    N9    A    
N12   Ni2   S    
C1    N1    A    
C79   N11   A    
C3    C56   S    
C11   H3    S    
C15   C27   A    
C83   N15   A    
C14   H20   S    
C44   C57   S    
C69   H41   S    
C70   C73   S    
N4    N14   A    
C69   C74   S    
C16   C18   A    
C80   N12   A    
C48   C50   A    
C78   H48   S    
C59   H55   S    
C37   C59   A    
C74   C76   S    
C38   C60   A    
C20   C33   S    
C9    H37   S    
C12   C60   A    
C13   H19   S    
C83   C85   A    
C12   C14   A    
N14   Ni3   S    
C8    C68   A    
C39   H29   S    
C41   Cl1   S    
C4    C55   S    
C70   C76   S    
C27   H7    S    
C10   C61   A    
C73   C75   S    
C5    C77   A    
C36   C61   S    
N15   Ni3   S    
C7    C79   A    
C70   H42   S    
C15   C17   A    
N8    Ni3   S    
C21   C25   A    
C7    C32   S    
C6    C46   A    
C30   C33   A    
C45   N5    A    
C8    C31   S    
C67   H45   S    
N6    N10   A    
C20   C22   A    
C19   C34   S    
C81   N13   A    
C46   H44   S    
C70   C72   S    
C53   C58   A    
N1    Ni1   S    
C52   H28   S    
C25   C27   A    
C79   H49   S    
C26   C28   A    
C80   H50   S    
N6    Ni4   S    
N9    Ni2   S    
C55   C57   A    
C29   C31   A    
C24   N4    A    
C26   H16   S    
C30   C32   A    
C11   C13   A    
C25   H15   S    
C49   H33   S    
C43   C47   A    
C4    C24   A    
C45   H43   S    
C40   C42   A    
C17   C19   A    
C56   C58   A    
C69   C75   S    
C35   C62   S    
C18   C20   A    
C63   H25   S    
C9    C65   A    
C64   H26   S    
C68   N8    A    
N16   Ni4   S    
C53   H35   S    
N3    N13   A    
C61   C65   A    
C47   H31   S    
C4    C82   A    
C84   H54   S    
C82   H52   S    
N8    N12   A    
C30   H18   S    
C8    C80   A    
C71   H39   S    
C35   C63   A    
N7    Ni4   S    
C18   H12   S    
C36   C64   A    
N2    N16   A    
C44   C48   A    
C32   C34   A    
C54   C57   A    
