data_mof_unit_16236.cif
_audit_creation_date              2012-12-10T17:02:55-0500
_audit_creation_method            fapswitch 2.2
_symmetry_space_group_name_H-M    P1
_symmetry_Int_Tables_number       1
_space_group_crystal_system       triclinic
_cell_length_a                    9.902826
_cell_length_b                    11.051668
_cell_length_c                    13.374454
_cell_angle_alpha                 96.05011
_cell_angle_beta                  80.517116
_cell_angle_gamma                 111.773243
_cell_volume                      1339.16957734

loop_
_atom_site_label
_atom_site_type_symbol
_atom_type_description
_atom_site_fract_x
_atom_site_fract_y
_atom_site_fract_z
_atom_type_partial_charge
C1    C     C_R   0.556897 0.745575 0.507777 0.848340
C2    C     C_R   0.437417 0.489384 0.972265 0.066816
C3    C     C_R   0.470095 0.536457 0.873480 0.055029
C4    C     C_R   0.547305 0.537476 0.038367 0.084641
C5    C     C_R   0.682723 0.640249 0.008379 0.061830
C6    C     C_R   0.705852 0.695581 0.913572 -0.043894
C7    C     C_R   0.598139 0.645313 0.849239 -0.184947
C8    C     C_R   0.525932 0.486473 0.134195 -0.196682
C9    C     C_R   0.760316 0.640389 0.172498 -0.163298
C10   C     C_R   0.373231 0.474024 0.800827 -0.094222
C11   C     C_2   0.588107 0.885562 0.513107 -0.315370
C12   C     C_R   0.422352 0.490089 0.690965 0.785596
C13   C     C_2   0.483557 0.928844 0.499217 -0.106918
C14   C     C_2   0.408930 0.113818 0.486055 0.101463
C15   C     C_2   0.509597 0.067736 0.504843 -0.175323
C16   C     C_2   0.920792 0.484996 0.490107 0.239408
C17   C     C_2   0.053374 0.473055 0.521970 0.358095
C18   C     C_R   0.442760 0.254319 0.492266 0.820335
C19   C     C_R   0.578425 0.513760 0.309704 0.807934
C20   C     C_R   0.788079 0.689225 0.076475 -0.136917
C21   C     C_R   0.627383 0.541501 0.202487 -0.038274
C22   C     C_R   0.236103 0.379404 0.831514 -0.181537
C23   C     C_R   0.193657 0.344532 0.932453 0.008965
C24   C     C_R   0.294976 0.397553 0.001618 -0.209529
Cu1   Cu    Cu3+1 0.362000 0.479240 0.482530 1.039792
Cu2   Cu    Cu3+1 0.638000 0.520760 0.517470 1.039299
H1    H     H_    0.838772 0.685649 0.225464 0.173541
H2    H     H_    0.377140 0.860267 0.483616 0.242861
H3    H     H_    0.695599 0.952919 0.528521 0.190808
H4    H     H_    0.146663 0.452965 0.381052 0.218670
H5    H     H_    0.889711 0.770049 0.059004 0.184413
H6    H     H_    0.428787 0.405712 0.159908 0.150718
H7    H     H_    0.163997 0.328723 0.775781 0.213638
H8    H     H_    0.257972 0.367940 0.078519 0.181342
H9    H     H_    0.615011 0.692623 0.779069 0.207605
H10   H     H_    0.614854 0.134189 0.525141 0.196668
N1    N     N_2   0.845330 0.551960 0.543750 -0.264193
N2    N     N_2   0.154690 0.448120 0.456210 -0.283607
O1    O     O_R   0.426290 0.668220 0.490680 -0.564765
O2    O     O_R   0.659360 0.703290 0.520190 -0.556441
O3    O     O_R   0.326580 0.473880 0.629020 -0.529013
O4    O     O_R   0.559660 0.508940 0.658530 -0.567083
O5    O     O_R   0.340640 0.296710 0.479810 -0.525947
O6    O     O_R   0.573710 0.331780 0.509320 -0.564903
O7    O     O_R   0.440340 0.491060 0.341470 -0.589129
O8    O     O_R   0.673420 0.526120 0.370980 -0.545721
Br1   Br    Br    0.220424 0.002683 0.448035 -0.472384
Br2   Br    Br    0.037059 0.457624 0.665508 -0.436729
Br3   Br    Br    0.847335 0.366753 0.378301 -0.482455
C25   C     C_2   0.920198 0.669857 0.598396 1.047211
O9    O     O_2   0.848653 0.724481 0.655007 -0.575752
O10   O     O_R   0.073620 0.727275 0.584260 -0.766402
H11   H     H_    0.111234 0.809994 0.628341 0.357746
C26   C     C_2   0.841203 0.805035 0.877222 0.885852
O11   O     O_2   0.962089 0.801165 0.880932 -0.578994
O12   O     O_R   0.829860 0.909308 0.832871 -0.705772
H12   H     H_    0.929252 0.975305 0.807149 0.363083
C27   C     C_2   0.044779 0.249177 0.965203 0.874544
O13   O     O_2   0.952361 0.212135 0.907181 -0.558056
O14   O     O_R   0.009139 0.202004 0.062855 -0.745175
H13   H     H_    0.904600 0.137679 0.075915 0.353190

loop_
_geom_bond_atom_site_label_1
_geom_bond_atom_site_label_2
_ccdc_geom_bond_type
C23   C27   S    
C2    C4    A    
C23   C24   A    
C19   O7    A    
C13   H2    S    
C6    C7    A    
C18   O6    A    
Cu1   N2    S    
C14   C18   S    
C9    C20   A    
C25   O10   S    
C1    C11   S    
C17   Br2   S    
C16   N1    D    
C4    C8    A    
C9    C21   A    
Cu1   O5    S    
O14   H13   S    
C8    C21   A    
C27   O13   D    
C19   O8    A    
Cu2   O6    S    
Cu2   N1    S    
C3    C10   A    
C18   O5    A    
Cu1   O1    S    
C11   H3    S    
N1    C25   S    
C11   C13   D    
Cu2   O2    S    
C14   Br1   S    
C10   C12   S    
C6    C26   S    
C19   C21   S    
C25   O9    D    
C3    C7    A    
C2    C3    A    
C17   N2    D    
C13   C15   S    
Cu2   O4    S    
C2    C24   A    
C5    C6    A    
C26   O12   S    
H4    N2    S    
O12   H12   S    
Cu2   O8    S    
C27   O14   S    
C8    H6    S    
Cu1   O7    S    
C15   H10   S    
C16   Br3   S    
C9    H1    S    
C12   O3    A    
Cu1   O3    S    
C5    C20   A    
C22   H7    S    
C1    O1    A    
C14   C15   D    
C16   C17   S    
C12   O4    A    
C1    O2    A    
Cu1   Cu2   S    
C26   O11   D    
C7    H9    S    
C22   C23   A    
C10   C22   A    
O10   H11   S    
C4    C5    A    
C20   H5    S    
C24   H8    S    
