data_mof_unit_25281.cif
_audit_creation_date              2012-12-10T19:48:35-0500
_audit_creation_method            fapswitch 2.2
_symmetry_space_group_name_H-M    P1
_symmetry_Int_Tables_number       1
_space_group_crystal_system       triclinic
_cell_length_a                    11.75846
_cell_length_b                    11.953142
_cell_length_c                    10.271542
_cell_angle_alpha                 87.539485
_cell_angle_beta                  86.265288
_cell_angle_gamma                 93.235503
_cell_volume                      1436.73387723

loop_
_atom_site_label
_atom_site_type_symbol
_atom_type_description
_atom_site_fract_x
_atom_site_fract_y
_atom_site_fract_z
_atom_type_partial_charge
C1    C     C_R   0.504963 0.263308 0.500686 0.658498
C2    C     C_R   0.493430 0.737213 0.499054 0.666444
C3    C     C_R   0.863400 0.489564 0.495179 0.019438
C4    C     C_R   0.130372 0.501360 0.499923 -0.068269
C5    C     C_R   0.938078 0.491644 0.629923 0.007455
C6    C     C_R   0.060222 0.500688 0.368961 0.037645
C7    C     C_3   0.558163 0.041714 0.615913 -0.143045
C8    C     C_3   0.442369 0.957814 0.384255 -0.135879
C9    C     C_3   0.613873 0.964265 0.492349 -0.133633
C10   C     C_3   0.385289 0.036917 0.506668 -0.139437
C11   C     C_3   0.497401 0.877116 0.499273 0.036954
C12   C     C_3   0.502760 0.122836 0.500914 0.035637
C13   C     C_3   0.442316 0.956908 0.617435 -0.111662
C14   C     C_3   0.557507 0.043191 0.382584 -0.097278
C15   C     C_3   0.538991 0.591939 0.256287 0.352461
C16   C     C_3   0.461373 0.410967 0.925310 0.241242
C17   C     C_3   0.404825 0.576736 0.941244 0.057106
C18   C     C_3   0.597125 0.422334 0.059130 -0.019770
C19   C     C_3   0.602113 0.545119 0.942968 0.540509
C20   C     C_3   0.397844 0.455524 0.059256 0.404575
C21   C     C_R   0.266165 0.502932 0.500901 0.727439
C22   C     C_R   0.670040 0.482975 0.495595 0.789843
C23   C     C_R   0.288546 0.590915 0.108782 0.413966
C24   C     C_R   0.710508 0.408997 0.891285 0.352825
C25   C     C_R   0.215484 0.588481 0.208920 -0.112661
C26   C     C_R   0.777129 0.409212 0.789892 -0.118184
C27   C     C_R   0.093067 0.508571 0.207533 0.009017
C28   C     C_R   0.876336 0.488897 0.778041 0.088665
C29   C     C_R   0.090818 0.412008 0.108139 -0.007649
C30   C     C_R   0.910317 0.569410 0.905844 -0.087085
C31   C     C_R   0.153929 0.425573 0.972022 -0.108125
C32   C     C_R   0.845783 0.571684 0.028634 -0.120242
C33   C     C_R   0.255988 0.509073 0.952426 -0.133953
C34   C     C_R   0.744065 0.491428 0.047387 -0.143464
C35   C     C_R   0.935153 0.499040 0.370905 -0.188788
C36   C     C_R   0.064923 0.499946 0.629453 -0.228908
Cu1   Cu    Cu3+1 0.500030 0.499990 0.643150 0.865808
Cu2   Cu    Cu3+1 0.499970 0.500010 0.356850 0.778256
H1    H     H_    0.302499 0.485665 0.848148 0.140623
H2    H     H_    0.697391 0.513838 0.151808 0.145263
H3    H     H_    0.335248 0.670120 0.899909 0.167072
H4    H     H_    0.665061 0.344415 0.103210 0.092744
H5    H     H_    0.563907 0.712883 0.087087 0.079158
H6    H     H_    0.436770 0.286881 0.859338 0.190874
H7    H     H_    0.249929 0.649023 0.285949 0.127680
H8    H     H_    0.748159 0.350705 0.713881 0.144458
H9    H     H_    0.019871 0.350154 0.121427 0.086712
H10   H     H_    0.981652 0.637173 0.889799 0.094008
H11   H     H_    0.139251 0.359514 0.900613 0.101097
H12   H     H_    0.861897 0.640681 0.099399 0.104572
H13   H     H_    0.885580 0.498659 0.272735 0.149318
H14   H     H_    0.112403 0.502135 0.727899 0.144263
H15   H     H_    0.731073 0.933758 0.486688 0.088770
H16   H     H_    0.275973 0.065224 0.512407 0.103727
H17   H     H_    0.603825 0.073536 0.712882 0.112325
H18   H     H_    0.397939 0.923819 0.287102 0.111135
H19   H     H_    0.394879 0.924327 0.714358 0.122074
H20   H     H_    0.605180 0.075565 0.285672 0.110347
N1    N     N_3   0.500090 0.499970 0.858290 -0.295530
N2    N     N_3   0.499910 0.500030 0.141710 -0.463560
O1    O     O_R   0.500060 0.316850 0.620870 -0.597134
O2    O     O_R   0.499940 0.683150 0.379130 -0.703173
O3    O     O_R   0.500000 0.316860 0.379090 -0.718379
O4    O     O_R   0.500000 0.683140 0.620910 -0.662156
O5    O     O_R   0.319670 0.500010 0.620890 -0.607303
O6    O     O_R   0.680330 0.499990 0.379110 -0.721440
O7    O     O_R   0.319620 0.500010 0.379110 -0.724640
O8    O     O_R   0.680380 0.499990 0.620890 -0.765797
O9    O     O_3   0.714326 0.575932 0.888499 -0.638390
C37   C     C_3   0.737589 0.679813 0.812593 0.128719
H21   H     H_    0.828661 0.711647 0.805934 0.146529
H22   H     H_    0.689710 0.752977 0.856420 0.085377
C38   C     C_3   0.798220 0.662571 0.677805 -0.170351
H23   H     H_    0.772812 0.584359 0.618737 0.280434
H24   H     H_    0.618160 0.621937 0.620720 0.300375
C39   C     C_3   0.745004 0.763816 0.582679 -0.837734
H25   H     H_    0.678902 0.837327 0.623920 0.221968
H26   H     H_    0.719897 0.750164 0.463183 0.197852
H27   H     H_    0.832961 0.804592 0.567944 0.233008
O10   O     O_3   0.285380 0.424005 0.111473 -0.659621
C40   C     C_3   0.282418 0.360991 0.233433 0.245636
H28   H     H_    0.439541 0.395240 0.278764 0.230454
H29   H     H_    0.322003 0.398278 0.295780 0.197201
C41   C     C_3   0.278265 0.227660 0.208484 -0.322316
H30   H     H_    0.215375 0.195281 0.129304 0.186621
H31   H     H_    0.371367 0.209371 0.171811 0.187211
C42   C     C_3   0.247476 0.165237 0.340728 -0.771985
H32   H     H_    0.324236 0.196462 0.410183 0.230559
H33   H     H_    0.253454 0.059883 0.325854 0.209380
H34   H     H_    0.161076 0.183094 0.388814 0.231341
O11   O     O_3   0.401510 0.672947 0.068920 -0.841575
H35   H     H_    0.427716 0.688036 0.154718 0.322324
O12   O     O_3   0.568235 0.326802 0.930329 -0.782303
H36   H     H_    0.625817 0.256646 0.967216 0.246430

loop_
_geom_bond_atom_site_label_1
_geom_bond_atom_site_label_2
_ccdc_geom_bond_type
C42   H32   S    
C4    C36   A    
O12   H36   S    
C27   C29   A    
C38   H23   S    
C41   C42   S    
C7    H17   S    
C5    C36   A    
C8    H18   S    
C40   H28   S    
C15   C19   S    
C33   H1    S    
C29   H9    S    
C34   H2    S    
C39   H26   S    
C30   H10   S    
C41   H31   S    
C18   H4    S    
C13   H19   S    
Cu1   O8    S    
C17   C20   S    
C6    C35   A    
C7    C9    S    
C18   C19   S    
C15   N2    S    
C22   O6    A    
Cu2   O6    S    
C23   C33   A    
Cu1   O5    S    
C31   C33   A    
C37   H21   S    
C20   N2    S    
C16   H6    S    
C36   H14   S    
C21   O7    A    
C38   H24   S    
C1    C12   S    
C31   H11   S    
C2    C11   S    
C1    O3    A    
C40   H29   S    
C2    O4    A    
C7    C12   S    
C14   H20   S    
C20   O10   S    
C39   H25   S    
C4    C6    A    
O11   H35   S    
C19   N1    S    
C24   C34   A    
Cu1   O4    S    
C16   N1    S    
C32   C34   A    
C9    C14   S    
Cu1   Cu2   S    
C5    C28   S    
C6    C27   S    
C3    C35   A    
C16   C20   S    
C22   O8    A    
C37   C38   S    
C16   C18   S    
C41   H30   S    
C9    C11   S    
C32   H12   S    
Cu1   N1    S    
C10   C12   S    
C17   N1    S    
Cu2   N2    S    
C18   N2    S    
C12   C14   S    
C42   H33   S    
C35   H13   S    
C38   C39   S    
C23   O11   S    
C19   O9    S    
C9    H15   S    
C25   H7    S    
C40   C41   S    
Cu2   O3    S    
C15   C17   S    
C8    C14   S    
C21   O5    A    
C24   C26   A    
O10   C40   S    
C3    C5    A    
C10   C13   S    
C1    O1    A    
Cu1   O1    S    
C25   C27   A    
C26   C28   A    
C28   C30   A    
C15   H5    S    
C29   C31   A    
C24   O12   S    
C30   C32   A    
C4    C21   S    
C11   C13   S    
C8    C11   S    
C23   C25   A    
O9    C37   S    
C10   H16   S    
C17   H3    S    
C26   H8    S    
C7    C13   S    
C39   H27   S    
Cu2   O7    S    
C8    C10   S    
C42   H34   S    
C3    C22   S    
C37   H22   S    
C2    O2    A    
Cu2   O2    S    
