data_mof_unit_41537.cif
_audit_creation_date              2012-12-10T17:15:51-0500
_audit_creation_method            fapswitch 2.2
_symmetry_space_group_name_H-M    P1
_symmetry_Int_Tables_number       1
_space_group_crystal_system       triclinic
_cell_length_a                    10.146611
_cell_length_b                    10.661445
_cell_length_c                    10.552596
_cell_angle_alpha                 91.466015
_cell_angle_beta                  95.83628
_cell_angle_gamma                 80.579937
_cell_volume                      1120.27594808

loop_
_atom_site_label
_atom_site_type_symbol
_atom_type_description
_atom_site_fract_x
_atom_site_fract_y
_atom_site_fract_z
_atom_type_partial_charge
C1    C     C_R   0.443700 0.500359 0.265181 0.870507
C2    C     C_2   0.503330 0.396655 0.928373 0.550213
C3    C     C_2   0.072654 0.488655 0.489079 -0.111702
C4    C     C_R   0.501479 0.260211 0.502086 0.847476
C5    C     C_2   0.927536 0.510616 0.511758 -0.121471
C6    C     C_R   0.556164 0.480797 0.733098 1.052801
C7    C     C_R   0.501078 0.739549 0.507640 0.958807
C8    C     C_R   0.693722 0.107617 0.682789 -0.185777
C9    C     C_R   0.780266 0.032865 0.772018 -0.247617
C10   C     C_R   0.766280 0.907112 0.787722 -0.236259
C11   C     C_R   0.666543 0.854714 0.712861 0.529744
C12   C     C_R   0.598402 0.054288 0.599738 0.038618
C13   C     C_R   0.590292 0.924697 0.609557 -0.026133
C14   C     C_R   0.272408 0.509270 0.069225 0.190304
C15   C     C_R   0.169690 0.449786 0.108239 -0.130661
C16   C     C_R   0.038029 0.481459 0.051499 -0.147607
C17   C     C_R   0.007881 0.572896 0.955796 -0.113475
C18   C     C_R   0.109286 0.633132 0.917080 -0.150744
C19   C     C_R   0.241056 0.601653 0.973560 -0.069312
C20   C     C_3   0.530266 0.780356 0.838448 -0.388270
C21   C     C_3   0.391197 0.226949 0.905101 -0.291946
C22   C     C_R   0.505932 0.127612 0.510602 -0.049816
C23   C     C_R   0.411417 0.075418 0.430391 -0.212173
C24   C     C_R   0.410407 0.947545 0.433171 -0.227001
C25   C     C_R   0.500493 0.872461 0.519532 -0.104978
C26   C     C_2   0.412259 0.474571 0.129484 -0.205032
C27   C     C_2   0.513685 0.413536 0.066167 -0.330329
C28   C     C_2   0.588682 0.450153 0.866512 -0.523697
H1    H     H_    0.340934 0.133526 0.362841 0.135496
H2    H     H_    0.614227 0.387748 0.114112 0.159323
H3    H     H_    0.676703 0.481429 0.916925 0.129340
H4    H     H_    0.191870 0.378077 0.181624 0.107438
H5    H     H_    0.959404 0.434981 0.081603 0.120863
H6    H     H_    0.905982 0.597227 0.911834 0.149292
H7    H     H_    0.085719 0.704451 0.843487 0.114191
H8    H     H_    0.318278 0.649323 0.942984 0.104157
H9    H     H_    0.430831 0.807566 0.783198 0.178531
H10   H     H_    0.551244 0.858672 0.905829 0.159521
H11   H     H_    0.525061 0.698648 0.898756 0.185995
H12   H     H_    0.892037 0.580334 0.582537 0.173204
H13   H     H_    0.363010 0.228540 0.004278 0.161351
H14   H     H_    0.488607 0.162985 0.897374 0.150553
H15   H     H_    0.313261 0.186534 0.843146 0.189173
H16   H     H_    0.108291 0.418364 0.418913 0.150061
H17   H     H_    0.879821 0.383298 0.382330 0.155698
H18   H     H_    0.120006 0.617514 0.616842 0.161973
H19   H     H_    0.702246 0.207095 0.681512 0.172581
H20   H     H_    0.853553 0.074562 0.833944 0.162848
H21   H     H_    0.826099 0.852730 0.864676 0.153758
H22   H     H_    0.340742 0.906430 0.366068 0.149580
N1    N     N_2   0.157290 0.551390 0.551110 -0.180422
N2    N     N_2   0.842740 0.448550 0.448960 -0.196022
O1    O     O_R   0.568950 0.489660 0.307530 -0.606525
O2    O     O_3   0.395000 0.350538 0.862721 -0.562051
O3    O     O_R   0.348880 0.522640 0.340350 -0.613267
O4    O     O_R   0.610060 0.300270 0.483590 -0.632698
O5    O     O_R   0.389990 0.333260 0.516410 -0.600717
O6    O     O_R   0.651120 0.477360 0.659650 -0.601678
O7    O     O_R   0.431050 0.510340 0.692470 -0.556881
O8    O     O_R   0.610010 0.666740 0.483590 -0.595510
O9    O     O_R   0.389940 0.699730 0.516410 -0.624108
O10   O     O_3   0.631107 0.744771 0.755017 -0.631921
Zn1   Zn    Zn3+2 0.646940 0.477980 0.478090 0.945718
Zn2   Zn    Zn3+2 0.353060 0.522020 0.521910 0.966688

loop_
_geom_bond_atom_site_label_1
_geom_bond_atom_site_label_2
_ccdc_geom_bond_type
C4    O5    A    
C8    C9    A    
O9    Zn2   S    
C2    C28   D    
C23   C24   A    
C5    N2    D    
C2    C27   S    
C12   C22   A    
C16   H5    S    
C4    C22   S    
C9    C10   A    
C6    O6    A    
C7    O9    A    
C7    C25   S    
C8    C12   A    
C11   O10   S    
C10   C11   A    
O3    Zn2   S    
C14   C15   A    
C17   C18   A    
C1    O3    A    
O4    Zn1   S    
C15   H4    S    
C14   C26   S    
C27   H2    S    
C20   O10   S    
C20   H9    S    
O1    Zn1   S    
C13   C25   A    
C26   C27   D    
C21   O2    S    
C9    H20   S    
O8    Zn1   S    
C21   H13   S    
C23   H1    S    
C6    O7    A    
C19   H8    S    
C24   H22   S    
C1    C26   S    
C6    C28   S    
C2    O2    S    
C3    H16   S    
C8    H19   S    
C17   H6    S    
C15   C16   A    
O7    Zn2   S    
C7    O8    A    
C11   C13   A    
C20   H10   S    
C24   C25   A    
O5    Zn2   S    
C18   C19   A    
C18   H7    S    
C5    H12   S    
O6    Zn1   S    
C20   H11   S    
C1    O1    A    
C22   C23   A    
C14   C19   A    
C3    N1    D    
H17   N2    S    
C12   C13   A    
C21   H15   S    
C10   H21   S    
H18   N1    S    
C28   H3    S    
C4    O4    A    
N1    Zn2   S    
C21   H14   S    
C16   C17   A    
C3    C5    S    
N2    Zn1   S    
