data_mof_unit_18563.cif
_audit_creation_date              2012-12-10T17:42:42-0500
_audit_creation_method            fapswitch 2.2
_symmetry_space_group_name_H-M    P1
_symmetry_Int_Tables_number       1
_space_group_crystal_system       triclinic
_cell_length_a                    9.966341
_cell_length_b                    10.679479
_cell_length_c                    13.068096
_cell_angle_alpha                 92.923544
_cell_angle_beta                  70.889945
_cell_angle_gamma                 91.708809
_cell_volume                      1312.41882631

loop_
_atom_site_label
_atom_site_type_symbol
_atom_type_description
_atom_site_fract_x
_atom_site_fract_y
_atom_site_fract_z
_atom_type_partial_charge
Br1   Br    Br    0.969038 0.092181 0.459721 -0.490889
Br2   Br    Br    0.407214 0.283348 0.209156 -0.529288
C1    C     C_R   0.505226 0.739134 0.491716 0.865698
C2    C     C_R   0.379088 0.446761 0.815470 -0.125777
C3    C     C_R   0.329211 0.873201 0.391938 -0.332731
C4    C     C_R   0.422786 0.484472 0.702175 0.899626
C5    C     C_R   0.204239 0.925132 0.386872 0.403439
C6    C     C_R   0.152862 0.034352 0.449136 0.307157
C7    C     C_R   0.232113 0.097800 0.507393 0.339926
C8    C     C_R   0.370910 0.055139 0.496079 -0.078254
C9    C     C_R   0.405108 0.932888 0.455317 0.026217
C10   C     C_R   0.510848 0.872458 0.483748 -0.065018
C11   C     C_R   0.603191 0.940235 0.526678 -0.176562
C12   C     C_R   0.444669 0.417511 0.977013 0.050385
C13   C     C_R   0.590378 0.067683 0.541744 -0.122945
C14   C     C_R   0.478570 0.126861 0.522508 -0.119564
C15   C     C_R   0.803837 0.676537 0.628487 -0.146113
C16   C     C_R   0.493124 0.260393 0.508811 0.918471
C17   C     C_R   0.844134 0.774042 0.685245 -0.239248
C18   C     C_R   0.979748 0.779182 0.688890 -0.253367
C19   C     C_R   0.077264 0.684524 0.637704 0.470433
C20   C     C_R   0.044857 0.589593 0.565958 0.091685
C21   C     C_R   0.901023 0.588026 0.564068 0.105986
C22   C     C_R   0.952895 0.416978 0.437841 -0.064272
C23   C     C_R   0.481323 0.410029 0.863008 0.037102
C24   C     C_R   0.094991 0.416369 0.438531 -0.029500
C25   C     C_R   0.578559 0.497046 0.295906 0.889263
C26   C     C_R   0.799393 0.486461 0.998572 -0.160612
C27   C     C_R   0.625231 0.478992 0.178171 -0.237820
C28   C     C_R   0.237038 0.461372 0.880577 -0.205560
C29   C     C_R   0.198372 0.453487 0.992343 -0.126263
C30   C     C_R   0.301619 0.437878 0.040790 -0.104281
C31   C     C_R   0.555674 0.420940 0.022327 0.019096
C32   C     C_R   0.696994 0.438299 0.954613 -0.002950
C33   C     C_R   0.731893 0.405007 0.844972 -0.305149
C34   C     C_R   0.622793 0.375446 0.801770 0.465345
C35   C     C_R   0.531072 0.415826 0.132877 0.167851
C36   C     C_R   0.760008 0.519666 0.109202 0.393913
H1    H     H_    0.366305 0.785951 0.346949 0.167246
H2    H     H_    0.157059 0.485158 0.845569 0.173159
H3    H     H_    0.269040 0.449016 0.128076 0.173673
H4    H     H_    0.089400 0.468272 0.042360 0.204437
H5    H     H_    0.684985 0.895141 0.548849 0.190382
H6    H     H_    0.802236 0.639668 0.210998 0.351961
H7    H     H_    0.175204 0.789558 0.290810 0.335695
H8    H     H_    0.211383 0.196118 0.640324 0.334429
H9    H     H_    0.201538 0.753186 0.716792 0.311432
H10   H     H_    0.754241 0.293071 0.673286 0.350279
H11   H     H_    0.668215 0.120038 0.568284 0.227259
H12   H     H_    0.919545 0.349033 0.386488 0.187568
H13   H     H_    0.694248 0.673932 0.638487 0.214389
H14   H     H_    0.767562 0.843194 0.730816 0.179890
H15   H     H_    0.006038 0.853386 0.739090 0.160271
H16   H     H_    0.842274 0.398521 0.794359 0.157658
H17   H     H_    0.166557 0.346545 0.389359 0.206891
H18   H     H_    0.905734 0.507825 0.946049 0.152549
N1    N     N_R   0.856860 0.501200 0.500990 -0.113646
N2    N     N_R   0.142450 0.501280 0.501020 -0.105019
O1    O     O_R   0.385310 0.683220 0.500000 -0.562883
O2    O     O_3   0.125916 0.866749 0.327962 -0.700247
O3    O     O_3   0.163679 0.188426 0.584482 -0.726071
O4    O     O_3   0.195822 0.680753 0.667604 -0.724237
O5    O     O_3   0.650910 0.309391 0.703707 -0.761304
O6    O     O_R   0.614640 0.683250 0.500010 -0.647911
O7    O     O_R   0.328400 0.499950 0.653610 -0.547379
O8    O     O_R   0.557730 0.499970 0.653620 -0.607948
O9    O     O_R   0.385360 0.316750 0.499990 -0.582174
O10   O     O_R   0.614690 0.316780 0.500000 -0.577959
O11   O     O_R   0.442270 0.500030 0.346380 -0.595913
O12   O     O_R   0.671600 0.500050 0.346390 -0.599828
O13   O     O_3   0.855640 0.588735 0.145755 -0.765016
Zn1   Zn    Zn3+2 0.346880 0.499980 0.499990 1.017684
Zn2   Zn    Zn3+2 0.653120 0.500020 0.500010 0.985254

loop_
_geom_bond_atom_site_label_1
_geom_bond_atom_site_label_2
_ccdc_geom_bond_type
C27   C36   A    
C20   N2    A    
O11   Zn1   S    
C30   H3    S    
H7    O2    S    
C12   C31   A    
C29   H4    S    
C6    C7    A    
C25   C27   S    
C34   O5    S    
C7    C8    A    
C17   C18   A    
C25   O11   A    
C26   C36   A    
O1    Zn1   S    
O6    Zn2   S    
C24   H17   S    
C15   H13   S    
O12   Zn2   S    
C13   H11   S    
C2    C23   A    
C16   O9    A    
C28   H2    S    
C5    C6    A    
C8    C14   A    
C1    O6    A    
C10   C11   A    
C33   H16   S    
C24   N2    A    
Br2   C35   S    
N2    Zn1   S    
C19   O4    S    
C15   C21   A    
C25   O12   A    
H9    O4    S    
C7    O3    S    
C2    C4    S    
C15   C17   A    
C22   C24   A    
C19   C20   A    
C3    C9    A    
C3    C5    A    
C11   C13   A    
C12   C23   A    
C22   H12   S    
C28   C29   A    
C32   C33   A    
C2    C28   A    
C8    C9    A    
H8    O3    S    
C27   C35   A    
C13   C14   A    
O7    Zn1   S    
C5    O2    S    
C11   H5    S    
C31   C32   A    
C18   C19   A    
H6    O13   S    
C14   C16   S    
O9    Zn1   S    
N1    Zn2   S    
C21   N1    A    
C3    H1    S    
C20   C21   A    
C18   H15   S    
H10   O5    S    
C4    O8    A    
C1    C10   S    
C23   C34   A    
C26   C32   A    
O10   Zn2   S    
C36   O13   S    
O8    Zn2   S    
C16   O10   A    
C17   H14   S    
Br1   C6    S    
C4    O7    A    
C31   C35   A    
C26   H18   S    
C29   C30   A    
C9    C10   A    
C12   C30   A    
C22   N1    A    
C33   C34   A    
C1    O1    A    
