data_mof_unit_49618.cif
_audit_creation_date              2012-12-11T14:06:51-0500
_audit_creation_method            fapswitch 2.2
_symmetry_space_group_name_H-M    P1
_symmetry_Int_Tables_number       1
_space_group_crystal_system       triclinic
_cell_length_a                    6.927427
_cell_length_b                    17.415499
_cell_length_c                    24.169931
_cell_angle_alpha                 105.158141
_cell_angle_beta                  90.413988
_cell_angle_gamma                 90.457378
_cell_volume                      2814.29781388

loop_
_atom_site_label
_atom_site_type_symbol
_atom_type_description
_atom_site_fract_x
_atom_site_fract_y
_atom_site_fract_z
_atom_type_partial_charge
O1    O     O_R   0.494290 0.391990 0.999150 -0.575936
O2    O     O_R   0.827170 0.534410 0.082350 -0.503807
O3    O     O_R   0.994360 0.608010 0.000850 -0.543362
C1    C     C_R   0.658646 0.547662 0.106305 0.781202
O4    O     O_R   0.824210 0.388010 0.004470 -0.508530
O5    O     O_R   0.991370 0.460560 0.922410 -0.540122
C2    C     C_R   0.654236 0.354259 0.997881 0.678067
O6    O     O_R   0.497270 0.539440 0.077590 -0.541676
O7    O     O_3   0.659770 0.523970 0.973170 -0.339758
V1    V     V_3+5 0.935840 0.495550 0.004980 1.694678
O8    O     O_R   0.320910 0.465590 0.917650 -0.511050
C3    C     C_R   0.150382 0.451997 0.893661 0.788290
O9    O     O_R   0.323870 0.611990 0.995530 -0.506476
C4    C     C_R   0.153901 0.644999 0.998696 0.773671
V2    V     V_3+5 0.435470 0.504450 0.995020 1.680378
O10   O     O_3   0.161670 0.476030 0.026830 -0.361102
C5    C     C_2   0.140112 0.731947 0.006227 0.046675
C6    C     C_2   0.975748 0.767828 0.993257 0.018594
C7    C     C_R   0.971282 0.254359 0.622868 0.787558
N1    N     N_R   0.005403 0.333443 0.648701 -0.554627
C8    C     C_R   0.001630 0.387781 0.616400 0.761251
C9    C     C_R   0.995096 0.362155 0.555531 -0.073800
C10   C     C_R   0.954761 0.280737 0.529443 -0.101708
C11   C     C_R   0.919392 0.228454 0.563995 -0.197546
C12   C     C_R   0.026134 0.414002 0.519590 0.350896
C13   C     C_R   0.019758 0.384254 0.459947 -0.073512
C14   C     C_R   0.980210 0.303780 0.434116 -0.063612
C15   C     C_R   0.944183 0.252081 0.468861 -0.039662
C16   C     C_R   0.888375 0.172865 0.442751 -0.207359
C17   C     C_R   0.837461 0.122363 0.478013 0.245834
C18   C     C_R   0.837671 0.152128 0.538456 0.418936
C19   C     C_R   0.973837 0.273908 0.373886 0.734606
N2    N     N_R   0.962132 0.193167 0.349045 -0.528959
C20   C     C_R   0.877755 0.148426 0.381853 0.718511
O11   O     O_2   0.997822 0.200388 0.653140 -0.423230
O12   O     O_2   0.006912 0.465931 0.643374 -0.417122
H1    H     H_    0.047721 0.424777 0.433636 0.211498
O13   O     O_2   0.961861 0.326035 0.341614 -0.443457
O14   O     O_2   0.769426 0.084551 0.355760 -0.420224
C21   C     C_R   0.011501 0.071590 0.266065 0.337143
C22   C     C_R   0.966887 0.037377 0.207344 0.291885
C23   C     C_R   0.978994 0.085819 0.168696 -0.347971
C24   C     C_R   0.043996 0.165353 0.189661 0.131253
C25   C     C_R   0.072505 0.198440 0.249021 0.324147
C26   C     C_R   0.008385 0.155670 0.288087 0.036513
C27   C     C_R   0.222418 0.405274 0.729667 0.260955
C28   C     C_R   0.254209 0.441478 0.789285 0.298484
C29   C     C_R   0.129846 0.421150 0.829928 -0.269253
C30   C     C_R   0.970237 0.371541 0.809715 -0.178165
H2    H     H_    0.872557 0.355673 0.839855 0.210623
C31   C     C_R   0.926207 0.344152 0.751615 0.345897
C32   C     C_R   0.051564 0.360213 0.710053 0.150203
C33   C     C_R   0.437181 0.845341 0.613982 0.673695
N3    N     N_R   0.470645 0.798004 0.649925 -0.569896
C34   C     C_R   0.504927 0.718199 0.628234 0.704248
C35   C     C_R   0.517378 0.683888 0.567686 -0.116869
C36   C     C_R   0.484213 0.733876 0.531113 -0.088737
C37   C     C_R   0.424415 0.812514 0.554562 -0.140218
C38   C     C_R   0.553610 0.601932 0.542132 0.329957
C39   C     C_R   0.556602 0.571871 0.481603 0.261174
C40   C     C_R   0.544258 0.624598 0.445481 -0.120587
C41   C     C_R   0.505645 0.705644 0.470925 -0.092896
C42   C     C_R   0.486704 0.759402 0.436284 -0.155129
C43   C     C_R   0.399464 0.834230 0.459870 0.277793
C44   C     C_R   0.347164 0.855373 0.518011 0.407112
C45   C     C_R   0.564227 0.599924 0.384672 0.688213
N4    N     N_R   0.566757 0.654612 0.352754 -0.565342
C46   C     C_R   0.542386 0.733765 0.378410 0.755938
O15   O     O_2   0.424727 0.924860 0.635450 -0.483746
O16   O     O_2   0.525106 0.673083 0.665342 -0.424821
O17   O     O_2   0.582148 0.522470 0.357270 -0.441373
O18   O     O_2   0.575681 0.787162 0.347964 -0.408277
C47   C     C_R   0.455789 0.646129 0.252700 0.363172
C48   C     C_R   0.486938 0.622371 0.193616 -0.154427
H3    H     H_    0.381744 0.639031 0.165576 0.195913
C49   C     C_R   0.645967 0.575532 0.170199 -0.239880
C50   C     C_R   0.778971 0.553831 0.208442 0.350783
C51   C     C_R   0.754644 0.583334 0.268053 -0.109176
H4    H     H_    0.859083 0.568967 0.297244 0.207808
C52   C     C_R   0.592915 0.628581 0.290964 0.205093
C53   C     C_R   0.626835 0.827514 0.745800 -0.077621
H5    H     H_    0.752513 0.795059 0.726344 0.175237
C54   C     C_R   0.626777 0.862845 0.805029 0.242093
C55   C     C_R   0.464944 0.907560 0.831182 -0.108361
C56   C     C_R   0.304967 0.912829 0.796128 -0.178627
H6    H     H_    0.178700 0.946058 0.814199 0.183463
C57   C     C_R   0.305157 0.875628 0.737288 -0.048406
H7    H     H_    0.179131 0.880332 0.711677 0.154044
C58   C     C_R   0.466834 0.833181 0.711391 0.286368
C59   C     C_2   0.643360 0.266748 0.987087 0.260064
C60   C     C_2   0.479392 0.230179 0.998930 -0.410535
H8    H     H_    0.353881 0.266053 0.014643 0.161261
O19   O     O_R   0.618210 0.960470 0.922400 -0.519294
O20   O     O_R   0.291310 0.111960 0.995450 -0.514789
O21   O     O_R   0.124210 0.039530 0.077580 -0.534743
C61   C     C_R   0.462675 0.144416 0.996904 0.848738
O22   O     O_R   0.288310 0.965490 0.917650 -0.549214
O23   O     O_R   0.121180 0.892010 0.999220 -0.535694
C62   C     C_R   0.456480 0.946127 0.894207 0.751118
O24   O     O_R   0.621230 0.107990 0.000760 -0.509304
O25   O     O_3   0.455770 0.976060 0.026840 -0.363352
V3    V     V_3+5 0.179680 0.004440 0.995020 1.713146
O26   O     O_R   0.791670 0.888040 0.004570 -0.521072
C63   C     C_R   0.961645 0.854933 0.001220 0.810858
O27   O     O_R   0.794680 0.034510 0.082370 -0.526932
C64   C     C_R   0.964413 0.050803 0.105792 0.883016
V4    V     V_3+5 0.680070 0.995560 0.005010 1.738111
O28   O     O_3   0.953840 0.023940 0.973160 -0.336488
Br1   Br    Br    0.358372 0.791363 0.046353 -0.408367
Br2   Br    Br    0.280436 0.275672 0.270691 -0.255181
Br3   Br    Br    0.417946 0.409572 0.674125 -0.259942
S1    S     S_3+6 0.433854 0.517403 0.812394 0.132057
O29   O     O_2   0.609137 0.481928 0.832545 -0.301524
O30   O     O_2   0.491465 0.554586 0.765373 -0.219924
O31   O     O_3   0.350681 0.590148 0.867032 -0.473624
H9    H     H_    0.232300 0.609223 0.851847 0.339142
Br4   Br    Br    0.687707 0.286539 0.734146 -0.318865
Br5   Br    Br    0.595917 0.527213 0.587683 -0.233643
Br6   Br    Br    0.566462 0.457280 0.450810 -0.381894
Br7   Br    Br    0.322156 0.903463 0.413149 -0.116781
S2    S     S_3+6 0.131896 0.910080 0.538847 0.143249
O32   O     O_2   0.168636 0.997165 0.545401 -0.236748
O33   O     O_2   0.981471 0.880794 0.492967 -0.270661
O34   O     O_3   0.043487 0.895564 0.600144 -0.498828
H10   H     H_    0.063001 0.946519 0.629610 0.390374
Br8   Br    Br    0.215862 0.697440 0.278291 -0.336947
Br9   Br    Br    0.760144 0.707808 0.951751 -0.367222
S3    S     S_3+6 0.964233 0.483678 0.184300 0.089957
O35   O     O_2   0.121055 0.521184 0.157375 -0.316483
O36   O     O_2   0.049478 0.456467 0.233254 -0.257955
O37   O     O_3   0.874384 0.404316 0.135107 -0.471652
H11   H     H_    0.767041 0.384404 0.154585 0.349342
Br10  Br    Br    0.849771 0.842293 0.846550 -0.490752
S4    S     S_3+6 0.846467 0.213836 0.952709 0.036767
O38   O     O_2   0.968882 0.193264 0.998104 -0.328862
O39   O     O_2   0.784973 0.138931 0.909084 -0.311905
O40   O     O_3   0.976348 0.269909 0.919029 -0.511651
H12   H     H_    0.099266 0.282403 0.940834 0.332756
Br11  Br    Br    0.087173 0.525634 0.546469 -0.390110
Br12  Br    Br    0.796077 0.009687 0.445356 -0.116655
S5    S     S_3+6 0.692418 0.103830 0.580408 0.172921
O41   O     O_2   0.581471 0.165620 0.622930 -0.271730
O42   O     O_2   0.549109 0.047053 0.544104 -0.260300
O43   O     O_3   0.832064 0.053728 0.615697 -0.421252
H13   H     H_    0.743406 0.035621 0.641794 0.396750
S6    S     S_3+6 0.156292 0.017014 0.303404 0.209165
O44   O     O_2   0.032124 0.964607 0.329216 -0.205939
O45   O     O_2   0.294153 0.965439 0.262514 -0.204821
O46   O     O_3   0.286229 0.080026 0.355392 -0.467866
H14   H     H_    0.243112 0.070146 0.391916 0.372648
S7    S     S_3+6 0.910886 0.933958 0.181784 0.133321
O47   O     O_2   0.084253 0.891875 0.151696 -0.304043
O48   O     O_2   0.856793 0.898509 0.229927 -0.197787
O49   O     O_3   0.723902 0.919768 0.135465 -0.483841
H15   H     H_    0.719223 0.861599 0.118051 0.374362
Br13  Br    Br    0.102464 0.228726 0.137166 -0.367385

loop_
_geom_bond_atom_site_label_1
_geom_bond_atom_site_label_2
_ccdc_geom_bond_type
O25   V4    S    
C57   H7    S    
O25   V3    S    
N2    C26   S    
C47   C48   A    
C20   O14   S    
C7    N1    A    
C1    O6    A    
C33   O15   S    
S3    O35   D    
S4    O40   S    
S1    O30   D    
C53   H5    S    
C59   C60   D    
C36   C41   A    
C8    O12   S    
C50   C51   A    
O27   V4    S    
C13   C14   A    
C16   C17   A    
C48   C49   A    
C8    C9    A    
C15   C16   A    
C12   Br11  S    
S5    O42   D    
O5    C3    A    
C17   C18   A    
C59   S4    S    
C51   C52   A    
C47   Br8   S    
C27   C32   A    
C35   C36   A    
C39   Br6   S    
C22   C23   A    
S7    O49   S    
S2    O34   S    
C28   S1    S    
C53   C54   A    
C60   C61   S    
N3    C34   A    
O8    V2    S    
C40   C45   A    
C54   C55   A    
C30   C31   A    
C9    C12   A    
V4    O28   S    
V3    O28   S    
O1    V2    S    
C44   S2    S    
O7    V1    S    
O19   C62   A    
O22   V3    S    
O21   V3    S    
C3    C29   S    
C53   C58   A    
C45   N4    A    
S7    O47   D    
C38   C39   A    
O9    C4    A    
C4    C5    S    
S5    O41   D    
S1    O29   D    
O22   C62   A    
N2    C20   A    
S6    O45   D    
C56   C57   A    
C21   C26   A    
C17   Br12  S    
C48   H3    S    
N4    C46   A    
C49   C50   A    
N3    C58   S    
S5    O43   S    
C60   H8    S    
O4    C2    A    
C51   H4    S    
S4    O39   D    
C12   C13   A    
C33   N3    A    
C2    C59   S    
C16   C20   A    
C31   C32   A    
S3    O36   D    
C39   C40   A    
C18   S5    S    
O2    C1    A    
C24   C25   A    
C45   O17   S    
C41   C42   A    
O21   C64   A    
O23   V3    S    
C6    Br9   S    
S6    O46   S    
C37   C44   A    
C28   C29   A    
C46   O18   S    
C34   C35   A    
C5    C6    D    
O49   H15   S    
C6    C63   S    
C10   C15   A    
C55   C56   A    
O20   C61   A    
C23   C64   S    
C56   H6    S    
C50   S3    S    
C21   C22   A    
O6    V2    S    
C19   O13   S    
C57   C58   A    
C1    C49   S    
C23   C24   A    
C24   Br13  S    
O2    V1    S    
S3    O37   S    
O26   C63   A    
S2    O33   D    
C25   C26   A    
S6    O44   D    
O27   C64   A    
C27   C28   A    
C29   C30   A    
O24   V4    S    
C14   C19   A    
O1    C2    A    
C55   C62   S    
N4    C52   S    
O43   H13   S    
C5    Br1   S    
O5    V1    S    
O26   V4    S    
C33   C37   A    
S2    O32   D    
C13   H1    S    
S4    O38   D    
C22   S7    S    
O3    C4    A    
C38   Br5   S    
O40   H12   S    
C42   C46   A    
C43   Br7   S    
C35   C38   A    
C21   S6    S    
C19   N2    A    
O9    V2    S    
C7    C11   A    
O7    V2    S    
C11   C18   A    
O4    V1    S    
N1    C32   S    
O3    V1    S    
C7    O11   S    
O46   H14   S    
O19   V4    S    
C36   C37   A    
O23   C63   A    
V2    O10   S    
C61   O24   A    
C43   C44   A    
C31   Br4   S    
C47   C52   A    
S7    O48   D    
C40   C41   A    
C54   Br10  S    
C34   O16   S    
C10   C11   A    
C42   C43   A    
N1    C8    A    
O20   V3    S    
C30   H2    S    
C14   C15   A    
C9    C10   A    
V1    O10   S    
O31   H9    S    
C27   Br3   S    
S1    O31   S    
O37   H11   S    
O8    C3    A    
O34   H10   S    
C25   Br2   S    
