data_mof_unit_26160.cif
_audit_creation_date              2012-12-10T16:41:52-0500
_audit_creation_method            fapswitch 2.2
_symmetry_space_group_name_H-M    P1
_symmetry_Int_Tables_number       1
_space_group_crystal_system       triclinic
_cell_length_a                    10.881851
_cell_length_b                    8.761011
_cell_length_c                    7.516534
_cell_angle_alpha                 102.836693
_cell_angle_beta                  96.726421
_cell_angle_gamma                 93.553459
_cell_volume                      691.005845349

loop_
_atom_site_label
_atom_site_type_symbol
_atom_type_description
_atom_site_fract_x
_atom_site_fract_y
_atom_site_fract_z
_atom_type_partial_charge
C1    C     C_R   0.500122 0.200623 0.454010 0.798303
C2    C     C_2   0.490090 0.965347 0.569001 0.185719
C3    C     C_R   0.265915 0.502066 0.497568 0.794866
C4    C     C_R   0.501334 0.799400 0.546083 0.795880
C5    C     C_R   0.733918 0.487480 0.500675 0.797547
C6    C     C_2   0.920940 0.405417 0.358477 -0.138084
C7    C     C_2   0.864246 0.453953 0.509509 -0.203243
C8    C     C_2   0.056629 0.393582 0.378490 0.339016
C9    C     C_2   0.133769 0.514274 0.485870 0.239911
C10   C     C_2   0.513729 0.034858 0.431894 0.191629
Cu1   Cu    Cu3+1 0.513740 0.517380 0.684380 1.028442
Cu2   Cu    Cu3+1 0.486260 0.482620 0.315620 1.071781
N1    N     N_2   0.465540 0.456420 0.038510 -0.128443
N2    N     N_2   0.534460 0.543580 0.961490 0.054843
O1    O     O_R   0.508930 0.286130 0.619780 -0.552188
O2    O     O_R   0.485720 0.256780 0.308360 -0.611700
O3    O     O_R   0.333540 0.514670 0.655670 -0.625940
O4    O     O_R   0.310330 0.485320 0.344250 -0.577384
O5    O     O_R   0.514280 0.743220 0.691640 -0.616386
O6    O     O_R   0.491070 0.713870 0.380220 -0.492059
O7    O     O_R   0.689670 0.514680 0.655750 -0.597557
O8    O     O_R   0.666460 0.485330 0.344330 -0.522979
C11   C     C_1   0.852686 0.357052 0.174570 0.325472
N3    N     N_1   0.797483 0.317224 0.028331 -0.233086
C12   C     C_1   0.929304 0.461228 0.692821 0.365827
N4    N     N_1   0.981855 0.467661 0.837734 -0.242014
O9    O     O_3   0.105305 0.259515 0.289217 -0.735529
H1    H     H_    0.035605 0.180090 0.227828 0.335278
O10   O     O_3   0.089520 0.655775 0.561873 -0.745969
H2    H     H_    0.161046 0.730296 0.628862 0.324447
O11   O     O_3   0.556046 0.951091 0.274866 -0.706944
H3    H     H_    0.579646 0.023401 0.197726 0.338504
O12   O     O_3   0.450550 0.049566 0.727869 -0.741460
H4    H     H_    0.425087 0.977502 0.804209 0.343019
C13   C     C_1   0.365466 0.361460 0.930361 0.586830
N5    N     N_1   0.280938 0.281800 0.842792 -0.270105
O13   O     O_3   0.625964 0.637851 0.075333 -0.527501
H5    H     H_    0.670584 0.690413 0.994770 0.351258

loop_
_geom_bond_atom_site_label_1
_geom_bond_atom_site_label_2
_ccdc_geom_bond_type
C2    C4    S    
C11   N3    T    
N1    C13   S    
C6    C7    D    
C3    C9    S    
C13   N5    T    
C7    C12   S    
C9    O10   S    
Cu1   Cu2   S    
Cu2   O6    S    
O12   H4    S    
C1    O2    A    
N1    N2    D    
N2    O13   S    
Cu1   O5    S    
O10   H2    S    
C1    O1    A    
C6    C11   S    
C2    O12   S    
O13   H5    S    
C3    O3    A    
Cu1   N2    S    
C1    C10   S    
C2    C10   D    
Cu2   O8    S    
C5    O7    A    
Cu2   N1    S    
C3    O4    A    
Cu2   O4    S    
O9    H1    S    
C5    C7    S    
C8    O9    S    
Cu1   O3    S    
C6    C8    S    
C12   N4    T    
C4    O5    A    
Cu1   O1    S    
C10   O11   S    
Cu1   O7    S    
O11   H3    S    
C5    O8    A    
Cu2   O2    S    
C8    C9    D    
C4    O6    A    
