data_mof_unit_27188.cif
_audit_creation_date              2012-12-11T14:17:30-0500
_audit_creation_method            fapswitch 2.2
_symmetry_space_group_name_H-M    P1
_symmetry_Int_Tables_number       1
_space_group_crystal_system       triclinic
_cell_length_a                    6.940242
_cell_length_b                    13.691978
_cell_length_c                    20.423637
_cell_angle_alpha                 101.90554
_cell_angle_beta                  90.184322
_cell_angle_gamma                 90.727988
_cell_volume                      1898.8343004

loop_
_atom_site_label
_atom_site_type_symbol
_atom_type_description
_atom_site_fract_x
_atom_site_fract_y
_atom_site_fract_z
_atom_type_partial_charge
O1    O     O_R   0.506860 0.599390 0.449240 -0.544046
O2    O     O_R   0.180220 0.594600 0.586780 -0.555668
O3    O     O_R   0.004500 0.400610 0.550760 -0.538995
C1    C     C_R   0.350338 0.612629 0.614608 0.718329
O4    O     O_R   0.177490 0.611290 0.451970 -0.545513
O5    O     O_R   0.001750 0.417420 0.414990 -0.538837
C2    C     C_R   0.346643 0.637036 0.434270 0.733293
O6    O     O_R   0.509610 0.582580 0.585010 -0.541167
O7    O     O_3   0.337420 0.436370 0.488020 -0.358008
V1    V     V_3+5 0.064680 0.511800 0.502220 1.433643
O8    O     O_R   0.671710 0.405400 0.413220 -0.531231
C3    C     C_R   0.840514 0.384925 0.386600 0.737506
O9    O     O_R   0.674440 0.388710 0.548030 -0.536837
C4    C     C_R   0.842505 0.362230 0.564796 0.703052
V2    V     V_3+5 0.564010 0.488200 0.497780 1.468069
O10   O     O_3   0.841140 0.563630 0.511980 -0.379245
C5    C     C_R   0.831025 0.109141 0.607641 -0.159696
H1    H     H_    0.833389 0.163442 0.516329 0.113978
H2    H     H_    0.836424 0.981705 0.687345 0.120656
H3    H     H_    0.829085 0.031743 0.581439 0.113299
C6    C     C_R   0.846872 0.283614 0.603240 -0.035654
C7    C     C_R   0.851385 0.313049 0.924424 0.145189
C8    C     C_R   0.790931 0.384576 0.887970 0.168792
C9    C     C_R   0.755131 0.354723 0.818774 -0.077279
C10   C     C_R   0.810049 0.258845 0.783295 -0.010654
C11   C     C_R   0.840116 0.182481 0.820277 -0.026965
C12   C     C_R   0.825176 0.235255 0.711864 0.093124
C13   C     C_R   0.829224 0.134293 0.677902 0.135125
C14   C     C_R   0.834467 0.059058 0.714045 -0.231343
C15   C     C_R   0.846340 0.081087 0.783681 -0.056025
C16   C     C_R   0.846806 0.309176 0.673145 -0.192863
C17   C     C_R   0.835791 0.183651 0.570498 -0.166415
C18   C     C_R   0.859042 0.211066 0.891664 -0.137666
H4    H     H_    0.867487 0.387024 0.696320 0.111367
C19   C     C_2   0.998020 0.267280 0.291772 -0.031380
C20   C     C_2   0.849249 0.326752 0.317199 -0.326906
H5    H     H_    0.731326 0.338589 0.284940 0.145248
C21   C     C_2   0.005979 0.215451 0.219877 -0.220082
C22   C     C_2   0.853846 0.170337 0.184027 -0.192675
H6    H     H_    0.147270 0.208587 0.196797 0.166820
C23   C     C_2   0.216253 0.768423 0.790065 -0.114385
C24   C     C_2   0.358722 0.832150 0.816156 -0.297496
H7    H     H_    0.092318 0.759144 0.820613 0.156270
H8    H     H_    0.478317 0.846109 0.785338 0.152271
C25   C     C_2   0.214432 0.712306 0.719203 -0.138848
C26   C     C_2   0.370168 0.670118 0.684843 0.018135
H9    H     H_    0.073355 0.700892 0.695490 0.117647
C27   C     C_R   0.460852 0.886019 0.386969 0.157448
H10   H     H_    0.465682 0.011216 0.299143 0.175327
C28   C     C_R   0.360110 0.717341 0.396043 -0.095954
C29   C     C_R   0.339191 0.683352 0.072634 0.160701
C30   C     C_R   0.347402 0.609400 0.110558 -0.123205
C31   C     C_R   0.360899 0.634825 0.180069 -0.218846
C32   C     C_R   0.356320 0.735355 0.214612 0.106689
C33   C     C_R   0.368527 0.810558 0.176111 0.019605
C34   C     C_R   0.357502 0.763019 0.286323 0.038962
C35   C     C_R   0.417412 0.861494 0.317284 0.040767
C36   C     C_R   0.431515 0.934112 0.277679 -0.161735
C37   C     C_R   0.399513 0.909947 0.209147 -0.185816
C38   C     C_R   0.300013 0.697154 0.328373 0.039314
C39   C     C_R   0.441052 0.811613 0.425808 0.120243
C40   C     C_R   0.355786 0.784522 0.105191 -0.089849
H11   H     H_    0.380047 0.574592 0.206169 0.143553
H12   H     H_    0.345362 0.531181 0.086243 0.122740
H13   H     H_    0.409170 0.969636 0.181840 0.138426
O11   O     O_R   0.203230 0.917310 0.915020 -0.526606
O12   O     O_R   0.535500 0.888690 0.048040 -0.544439
O13   O     O_R   0.711080 0.082610 0.085000 -0.543343
C41   C     C_R   0.366172 0.862204 0.064995 0.698372
O14   O     O_R   0.532630 0.905370 0.913230 -0.533103
O15   O     O_R   0.708190 0.099410 0.949230 -0.538205
C42   C     C_R   0.363617 0.886882 0.886088 0.754878
O16   O     O_R   0.206120 0.900510 0.050790 -0.542007
O17   O     O_3   0.375360 0.063570 0.011990 -0.377393
V3    V     V_3+5 0.648170 0.988200 0.997780 1.463860
O18   O     O_R   0.038240 0.111390 0.951940 -0.542716
C43   C     C_R   0.869884 0.135643 0.933321 0.739865
O19   O     O_R   0.041120 0.094710 0.086750 -0.544882
C44   C     C_R   0.872149 0.113315 0.114224 0.695862
V4    V     V_3+5 0.148810 0.011930 0.002180 1.454373
O20   O     O_3   0.871750 0.936430 0.988010 -0.361581
C45   C     C_1   0.665662 0.167679 0.214313 0.323882
N1    N     N_1   0.514967 0.165701 0.237984 -0.400313
C46   C     C_3   0.567782 0.671417 0.717545 -0.699798
H14   H     H_    0.651569 0.604398 0.695143 0.212527
H15   H     H_    0.651925 0.737796 0.710288 0.184764
H16   H     H_    0.557237 0.669800 0.771498 0.232085
C47   C     C_3   0.496041 0.835215 0.499575 -0.770881
H17   H     H_    0.469609 0.773220 0.525764 0.189869
H18   H     H_    0.651945 0.854491 0.505178 0.207765
H19   H     H_    0.409574 0.898629 0.526379 0.207724
C48   C     C_3   0.534391 0.990562 0.418299 -0.773457
H20   H     H_    0.666144 0.007838 0.391884 0.205800
H21   H     H_    0.421550 0.045837 0.414302 0.222080
H22   H     H_    0.573825 0.002024 0.471816 0.214601
C49   C     C_3   0.152400 0.614009 0.305640 -0.767912
H23   H     H_    0.032385 0.621015 0.341994 0.218754
H24   H     H_    0.081288 0.618611 0.257744 0.214134
H25   H     H_    0.219708 0.539895 0.301797 0.194111
C50   C     C_3   0.318265 0.653516 0.997624 -0.803647
H26   H     H_    0.303616 0.571300 0.980569 0.210021
H27   H     H_    0.187381 0.687898 0.981203 0.208351
H28   H     H_    0.446552 0.679292 0.973220 0.205063
C51   C     C_3   0.894207 0.345263 0.998877 -0.782647
H29   H     H_    0.009268 0.403699 0.007051 0.210028
H30   H     H_    0.761747 0.374918 0.025813 0.207260
H31   H     H_    0.946950 0.284750 0.022496 0.192348
C52   C     C_1   0.627660 0.415256 0.787660 0.294738
N2    N     N_1   0.523695 0.462676 0.763080 -0.375885
C53   C     C_3   0.757060 0.492854 0.921501 -0.769626
H32   H     H_    0.796292 0.512359 0.975165 0.219117
H33   H     H_    0.843627 0.542422 0.895875 0.206432
H34   H     H_    0.602385 0.510284 0.917494 0.211936
C54   C     C_1   0.858707 0.994546 0.813356 0.263444
N3    N     N_1   0.867336 0.923761 0.835734 -0.342391
C55   C     C_1   0.158881 0.251476 0.333493 0.366266
N4    N     N_1   0.286980 0.238730 0.367048 -0.343778

loop_
_geom_bond_atom_site_label_1
_geom_bond_atom_site_label_2
_ccdc_geom_bond_type
C21   H6    S    
C33   C40   A    
C33   C37   A    
C23   C24   D    
C19   C20   D    
C46   H16   S    
C1    O6    A    
C51   H30   S    
C54   N3    T    
C35   C36   A    
C27   C35   A    
C1    C26   S    
C31   C32   A    
C34   C35   A    
O13   V3    S    
C6    C16   A    
C4    C6    S    
C20   H5    S    
C46   H15   S    
O5    C3    A    
C21   C22   D    
O19   V4    S    
V2    O10   S    
C49   H25   S    
C5    H3    S    
C7    C51   S    
C52   N2    T    
C8    C53   S    
C53   H32   S    
C48   H20   S    
O8    V2    S    
C46   H14   S    
O11   C42   A    
C49   H24   S    
C8    C9    A    
C41   O16   A    
O1    V2    S    
C3    C20   S    
O7    V1    S    
O13   C44   A    
O17   V4    S    
O9    C4    A    
C23   H7    S    
C29   C40   A    
C24   H8    S    
C50   H27   S    
C51   H29   S    
C25   H9    S    
C6    C17   A    
C32   C34   A    
O17   V3    S    
C12   C16   A    
C29   C30   A    
C19   C21   S    
C9    C10   A    
C22   C45   S    
C30   H12   S    
O4    C2    A    
O19   C44   A    
V3    O20   S    
C36   C37   A    
C25   C26   D    
C48   H22   S    
H10   C36   S    
C34   C38   A    
C40   C41   S    
O12   C41   A    
C22   C44   S    
O2    C1    A    
C14   C15   A    
C39   C47   S    
C11   C18   A    
C47   H19   S    
C49   H23   S    
C48   H21   S    
C16   H4    S    
C19   C55   S    
O18   C43   A    
C53   H34   S    
O3    C4    A    
C9    C52   S    
C38   C49   S    
C47   H18   S    
C11   C15   A    
O6    V2    S    
O9    V2    S    
C26   C46   S    
O12   V3    S    
O2    V1    S    
O15   C43   A    
C30   C31   A    
C15   C54   S    
C29   C50   S    
C28   C39   A    
C7    C18   A    
C32   C33   A    
C13   C14   A    
O1    C2    A    
C5    C13   A    
O18   V4    S    
C2    C28   S    
V4    O20   S    
O5    V1    S    
O8    C3    A    
C10   C12   A    
O11   V4    S    
C28   C38   A    
C10   C11   A    
O4    V1    S    
O3    V1    S    
V1    O10   S    
C37   H13   S    
O15   V3    S    
C31   H11   S    
C18   C43   S    
C27   C39   A    
C50   H26   S    
O16   V4    S    
C55   N4    T    
C50   H28   S    
O7    V2    S    
C53   H33   S    
H1    C17   S    
C47   H17   S    
C45   N1    T    
C27   C48   S    
O14   V3    S    
C5    C17   A    
C23   C25   S    
C7    C8    A    
O14   C42   A    
C24   C42   S    
C51   H31   S    
C12   C13   A    
H2    C14   S    
