data_mof_unit_40059.cif
_audit_creation_date              2012-12-10T17:19:02-0500
_audit_creation_method            fapswitch 2.2
_symmetry_space_group_name_H-M    P1
_symmetry_Int_Tables_number       1
_space_group_crystal_system       triclinic
_cell_length_a                    10.321536
_cell_length_b                    10.834853
_cell_length_c                    13.839407
_cell_angle_alpha                 95.275825
_cell_angle_beta                  101.260848
_cell_angle_gamma                 90.505582
_cell_volume                      1510.8985649

loop_
_atom_site_label
_atom_site_type_symbol
_atom_type_description
_atom_site_fract_x
_atom_site_fract_y
_atom_site_fract_z
_atom_type_partial_charge
C1    C     C_R   0.050247 0.731681 0.501350 0.876883
C2    C     C_2   0.003367 0.055574 0.438666 -0.096054
C3    C     C_2   0.427364 0.512127 0.507763 -0.017946
C4    C     C_2   0.572720 0.483732 0.500045 0.001006
C5    C     C_R   0.094293 0.517156 0.686386 0.856806
C6    C     C_R   0.904973 0.484713 0.313376 0.885938
C7    C     C_R   0.141232 0.531914 0.795544 -0.173338
C8    C     C_R   0.848623 0.459261 0.205292 -0.171703
C9    C     C_R   0.106235 0.580395 0.965162 -0.045641
C10   C     C_R   0.830349 0.334300 0.046279 -0.091562
C11   C     C_R   0.053751 0.556799 0.862564 -0.196319
C12   C     C_R   0.950677 0.266320 0.500694 0.895569
C13   C     C_R   0.904098 0.375729 0.140834 -0.118955
C14   C     C_R   0.275795 0.520227 0.835294 -0.072606
C15   C     C_R   0.726791 0.509705 0.167506 -0.032976
C16   C     C_R   0.315431 0.501947 0.935365 0.059388
C17   C     C_R   0.639671 0.445736 0.086561 0.070083
C18   C     C_R   0.241040 0.554439 0.003166 0.081291
C19   C     C_R   0.692949 0.358218 0.022569 0.034092
C20   C     C_R   0.433282 0.440349 0.968452 -0.003260
C21   C     C_R   0.502272 0.471458 0.065074 0.017717
C22   C     C_2   0.242305 0.648013 0.177426 0.864868
C23   C     C_R   0.430622 0.524155 0.136547 -0.211661
C24   C     C_2   0.643101 0.179954 0.887664 0.930579
C25   C     C_1   0.699727 0.635483 0.202068 0.208834
C26   C     C_1   0.378271 0.542253 0.779909 0.256553
C27   C     C_2   0.035165 0.324159 0.171440 1.029922
C28   C     C_2   0.907500 0.560819 0.828074 0.998405
C29   C     C_1   0.015511 0.620120 0.028665 0.266870
C30   C     C_1   0.898451 0.268009 0.975624 0.247726
C31   C     C_2   0.478654 0.507359 0.243416 0.983701
C32   C     C_2   0.382993 0.271919 0.826892 0.917607
C33   C     C_1   0.109551 0.091186 0.392847 0.351824
C34   C     C_R   0.478142 0.341670 0.909332 -0.106330
C35   C     C_1   0.958308 0.859354 0.334137 0.220403
C36   C     C_1   0.821689 0.080536 0.527887 0.273370
C37   C     C_1   0.139315 0.927468 0.596779 0.189785
C38   C     C_2   0.661296 0.678306 0.576910 1.052896
C39   C     C_2   0.347062 0.332522 0.410279 1.071546
C40   C     C_R   0.303018 0.571572 0.105019 -0.055377
C41   C     C_R   0.606798 0.297804 0.938127 -0.082112
C42   C     C_2   0.067115 0.863334 0.505318 -0.195376
C43   C     C_2   0.927896 0.131334 0.487704 -0.236888
C44   C     C_2   0.994258 0.921934 0.432997 -0.081719
H1    H     H_    0.591675 0.398028 0.459279 0.194353
H2    H     H_    0.442988 0.170609 0.417244 0.352683
H3    H     H_    0.409145 0.593154 0.554286 0.179784
H4    H     H_    0.165670 0.657711 0.300158 0.358964
H5    H     H_    0.692843 0.001611 0.899213 0.371205
H6    H     H_    0.215450 0.292415 0.139125 0.389666
H7    H     H_    0.889500 0.378996 0.779340 0.320196
H8    H     H_    0.462693 0.687857 0.293734 0.334357
H9    H     H_    0.337312 0.210247 0.681906 0.361144
H10   H     H_    0.561746 0.837412 0.562969 0.354630
N1    N     N_2   0.322180 0.446120 0.460900 -0.156827
N2    N     N_1   0.196883 0.978467 0.669899 -0.136856
N3    N     N_2   0.677820 0.553880 0.539100 -0.168677
N4    N     N_1   0.675254 0.735604 0.228154 -0.157077
N5    N     N_1   0.462279 0.560242 0.738158 -0.152970
N6    N     N_1   0.941201 0.652880 0.077525 -0.151725
N7    N     N_1   0.953911 0.215357 0.920099 -0.111475
N8    N     N_1   0.196142 0.106641 0.353579 -0.099512
N9    N     N_1   0.935465 0.811854 0.254342 -0.148883
N10   N     N_1   0.736852 0.040163 0.560119 -0.114115
O1    O     O_R   0.935190 0.693030 0.507870 -0.598695
O2    O     O_R   0.203098 0.594455 0.255279 -0.747591
O3    O     O_2   0.654725 0.174622 0.801147 -0.540335
O4    O     O_R   0.667414 0.076102 0.940741 -0.770989
O5    O     O_2   0.051765 0.256005 0.237495 -0.601779
O6    O     O_R   0.134774 0.343506 0.118634 -0.794393
O7    O     O_2   0.850916 0.657901 0.839772 -0.525197
O8    O     O_R   0.833065 0.454266 0.785247 -0.738141
O9    O     O_2   0.524052 0.407937 0.265856 -0.582545
O10   O     O_R   0.480739 0.603551 0.318460 -0.760409
O11   O     O_2   0.278021 0.232601 0.842021 -0.594576
O12   O     O_R   0.064810 0.306970 0.492130 -0.618877
O13   O     O_R   0.411478 0.255261 0.731922 -0.727761
O14   O     O_2   0.742443 0.725462 0.647113 -0.561423
O15   O     O_R   0.561226 0.750430 0.528952 -0.810760
O16   O     O_2   0.310113 0.316157 0.320883 -0.573979
O17   O     O_R   0.418719 0.242014 0.462403 -0.819483
O18   O     O_R   0.142080 0.658430 0.482770 -0.623335
O19   O     O_R   0.857920 0.341570 0.517230 -0.601084
O20   O     O_R   0.969700 0.527180 0.651960 -0.588642
O21   O     O_R   0.030300 0.472820 0.348040 -0.569759
O22   O     O_R   0.176600 0.492580 0.626860 -0.616632
O23   O     O_R   0.823400 0.507420 0.373140 -0.595278
O24   O     O_2   0.228919 0.758944 0.169579 -0.597214
Zn1   Zn    Zn3+2 0.861850 0.523100 0.516760 1.056316
Zn2   Zn    Zn3+2 0.138150 0.476900 0.483240 1.029855

loop_
_geom_bond_atom_site_label_1
_geom_bond_atom_site_label_2
_ccdc_geom_bond_type
C8    C13   A    
H5    O4    S    
C32   O11   D    
O1    Zn1   S    
C25   N4    T    
C6    O21   A    
N3    Zn1   S    
N1    Zn2   S    
H8    O10   S    
C15   C25   S    
C38   O15   S    
C23   C40   A    
H2    O17   S    
C37   C42   S    
C18   C40   A    
C22   O2    S    
C24   O3    D    
C32   O13   S    
C37   N2    T    
C3    N1    D    
C7    C14   A    
C39   N1    S    
C2    C44   S    
C33   N8    T    
C4    N3    D    
C1    O1    A    
C22   O24   D    
C26   N5    T    
C2    C43   D    
C27   O5    D    
C9    C29   S    
C20   C34   A    
C24   C41   S    
C28   O8    S    
C34   C41   A    
C42   C44   D    
C7    C11   A    
C4    H1    S    
O19   Zn1   S    
C39   O17   S    
O22   Zn2   S    
C5    C7    S    
C5    O20   A    
C31   O10   S    
C6    C8    S    
C38   O14   D    
C1    O18   A    
C17   C21   A    
C6    O23   A    
C12   O19   A    
C32   C34   S    
H9    O13   S    
C38   N3    S    
C10   C30   S    
C29   N6    T    
C10   C19   A    
C16   C20   A    
C22   C40   S    
C14   C26   S    
C35   C44   S    
C9    C11   A    
C27   O6    S    
C5    O22   A    
C2    C33   S    
C8    C15   A    
C21   C23   A    
C14   C16   A    
C28   O7    D    
H7    O8    S    
C3    C4    S    
H10   O15   S    
C15   C17   A    
C10   C13   A    
O21   Zn2   S    
C9    C18   A    
C12   C43   S    
O18   Zn2   S    
C39   O16   D    
C12   O12   A    
H6    O6    S    
C11   C28   S    
C3    H3    S    
C17   C19   A    
C31   O9    D    
C24   O4    S    
C1    C42   S    
C20   C21   A    
C16   C18   A    
O20   Zn1   S    
C30   N7    T    
O12   Zn2   S    
O23   Zn1   S    
C13   C27   S    
C36   C43   S    
C35   N9    T    
H4    O2    S    
C36   N10   T    
C19   C41   A    
C23   C31   S    
