data_mof_unit_57167.cif
_audit_creation_date              2012-12-10T18:58:12-0500
_audit_creation_method            fapswitch 2.2
_symmetry_space_group_name_H-M    P1
_symmetry_Int_Tables_number       1
_space_group_crystal_system       triclinic
_cell_length_a                    10.708157
_cell_length_b                    9.901402
_cell_length_c                    15.813612
_cell_angle_alpha                 87.887118
_cell_angle_beta                  93.592935
_cell_angle_gamma                 87.757395
_cell_volume                      1670.7729976

loop_
_atom_site_label
_atom_site_type_symbol
_atom_type_description
_atom_site_fract_x
_atom_site_fract_y
_atom_site_fract_z
_atom_type_partial_charge
Br1   Br    Br    0.148059 0.246769 0.608546 -0.495888
Br2   Br    Br    0.844597 0.770098 0.403526 -0.382368
Br3   Br    Br    0.895445 0.201532 0.473483 -0.385661
Br4   Br    Br    0.117123 0.808363 0.505213 -0.376249
C1    C     C_R   0.872777 0.495732 0.482023 -0.312367
C2    C     C_R   0.510759 0.363819 0.963215 0.337773
C3    C     C_R   0.535618 0.480566 0.914544 -0.248145
C4    C     C_R   0.518389 0.499130 0.087440 -0.241405
C5    C     C_1   0.522232 0.483006 0.824971 0.115169
C6    C     C_1   0.507505 0.507869 0.175765 0.136045
C7    C     C_1   0.501952 0.507685 0.250538 -0.173801
C8    C     C_1   0.510928 0.489814 0.749736 -0.188659
C9    C     C_R   0.589776 0.064124 0.548607 0.340348
C10   C     C_R   0.417089 0.934440 0.447067 0.349307
C11   C     C_R   0.415761 0.080035 0.447407 0.343726
C12   C     C_R   0.127244 0.509809 0.517285 -0.302818
C13   C     C_R   0.590480 0.919963 0.546761 0.386190
C14   C     C_R   0.068549 0.388863 0.534160 0.176102
C15   C     C_R   0.930234 0.619237 0.467796 0.242512
C16   C     C_R   0.945328 0.377697 0.505681 0.221543
C17   C     C_R   0.055811 0.628860 0.491993 0.220214
C18   C     C_3   0.690920 0.182579 0.656855 0.186697
C19   C     C_3   0.807905 0.151464 0.715664 -0.871187
C20   C     C_3   0.369314 0.871140 0.311439 0.125796
C21   C     C_3   0.284441 0.779326 0.260896 -0.783212
C22   C     C_3   0.219438 0.148632 0.386022 0.198991
C23   C     C_R   0.260701 0.502755 0.508183 0.950698
C24   C     C_3   0.155350 0.261883 0.329383 -0.811649
C25   C     C_3   0.714785 0.825501 0.660315 0.174417
C26   C     C_3   0.854259 0.804263 0.684662 -0.752972
C27   C     C_3   0.410986 0.808049 0.034643 0.073652
C28   C     C_3   0.401879 0.953332 0.061706 -0.724511
C29   C     C_3   0.554215 0.171896 0.891647 0.095362
C30   C     C_3   0.490710 0.068656 0.836423 -0.749111
C31   C     C_3   0.735494 0.707229 0.916826 0.149764
C32   C     C_3   0.780558 0.850253 0.924104 -0.845778
C33   C     C_3   0.622629 0.213258 0.138393 0.065778
C34   C     C_R   0.739248 0.498219 0.491375 0.924454
C35   C     C_3   0.609245 0.128691 0.219507 -0.742907
C36   C     C_R   0.498776 0.502421 0.339182 0.868814
C37   C     C_R   0.500776 0.497428 0.660791 0.846452
C38   C     C_R   0.560844 0.602089 0.953106 0.303307
C39   C     C_R   0.514203 0.371425 0.051463 0.350793
C40   C     C_R   0.534206 0.616022 0.037625 0.355630
H1    H     H_    0.694874 0.292207 0.644355 0.197437
H2    H     H_    0.273882 0.682477 0.296919 0.266689
H3    H     H_    0.188276 0.156573 0.450992 0.218692
H4    H     H_    0.187749 0.052339 0.360485 0.200178
H5    H     H_    0.185904 0.254647 0.263798 0.252865
H6    H     H_    0.052242 0.253563 0.327599 0.240224
H7    H     H_    0.179737 0.362004 0.353359 0.248863
H8    H     H_    0.669362 0.732629 0.680442 0.156592
H9    H     H_    0.674140 0.909442 0.695508 0.095497
H10   H     H_    0.906338 0.890112 0.659457 0.310606
H11   H     H_    0.871199 0.796352 0.754526 0.184398
H12   H     H_    0.605441 0.158426 0.689909 0.097833
H13   H     H_    0.890475 0.709624 0.657533 0.247960
H14   H     H_    0.327784 0.754560 0.055004 0.125564
H15   H     H_    0.407112 0.811601 0.964164 0.180080
H16   H     H_    0.487687 0.005064 0.045807 0.290181
H17   H     H_    0.319435 0.007263 0.027911 0.228058
H18   H     H_    0.391099 0.956547 0.130677 0.234968
H19   H     H_    0.613381 0.117721 0.943328 0.136949
H20   H     H_    0.615517 0.231708 0.851614 0.121864
H21   H     H_    0.429494 0.006272 0.874511 0.264502
H22   H     H_    0.432364 0.121405 0.783759 0.259568
H23   H     H_    0.893036 0.150848 0.679051 0.327544
H24   H     H_    0.561380 0.001359 0.809250 0.196868
H25   H     H_    0.773353 0.661510 0.860152 0.131193
H26   H     H_    0.776427 0.647623 0.974149 0.122217
H27   H     H_    0.741495 0.897702 0.979835 0.269431
H28   H     H_    0.884403 0.847778 0.932073 0.210436
H29   H     H_    0.750489 0.911650 0.866052 0.234065
H30   H     H_    0.682689 0.298992 0.155656 0.132137
H31   H     H_    0.672400 0.150738 0.093096 0.133080
H32   H     H_    0.566761 0.031420 0.204906 0.237551
H33   H     H_    0.702956 0.106375 0.252289 0.235014
H34   H     H_    0.816560 0.230436 0.763589 0.199845
H35   H     H_    0.549817 0.184612 0.262672 0.284958
H36   H     H_    0.803230 0.053931 0.750947 0.227574
H37   H     H_    0.468674 0.835804 0.307812 0.174078
H38   H     H_    0.358415 0.974545 0.281682 0.150040
H39   H     H_    0.190290 0.829550 0.247835 0.247387
H40   H     H_    0.325000 0.756097 0.200333 0.212226
N1    N     N_R   0.500000 0.857200 0.500000 -0.184612
N2    N     N_R   0.500000 0.142800 0.500000 -0.180720
O1    O     O_R   0.316770 0.614620 0.499990 -0.544485
O2    O     O_3   0.332752 0.868536 0.395583 -0.557394
O3    O     O_3   0.350264 0.159474 0.383996 -0.603042
O4    O     O_3   0.699531 0.845903 0.571594 -0.503366
O5    O     O_3   0.523156 0.743017 0.070991 -0.579161
O6    O     O_3   0.460002 0.252480 0.925945 -0.559514
O7    O     O_3   0.602915 0.711058 0.907424 -0.596293
O8    O     O_3   0.502472 0.255890 0.101944 -0.572890
O9    O     O_R   0.683230 0.385380 0.500010 -0.576229
O10   O     O_R   0.683230 0.614620 0.500010 -0.541092
O11   O     O_R   0.316770 0.385380 0.499990 -0.571387
O12   O     O_R   0.499980 0.614630 0.378020 -0.602191
O13   O     O_R   0.500020 0.385370 0.621980 -0.645422
O14   O     O_R   0.500020 0.614630 0.621980 -0.622564
O15   O     O_R   0.499980 0.385370 0.378020 -0.561510
O16   O     O_3   0.700463 0.119023 0.578856 -0.512223
Zn1   Zn    Zn3+2 0.500000 0.653120 0.500000 1.047321
Zn2   Zn    Zn3+2 0.500000 0.346880 0.500000 1.030715

loop_
_geom_bond_atom_site_label_1
_geom_bond_atom_site_label_2
_ccdc_geom_bond_type
C33   H30   S    
C12   C17   A    
C38   O7    S    
C31   C32   S    
C4    C39   A    
N2    Zn2   S    
C30   H22   S    
C1    C16   A    
C22   O3    S    
C26   H10   S    
Br1   C14   S    
C8    C37   S    
C13   N1    A    
C35   H33   S    
C27   H14   S    
C15   C17   A    
C28   H17   S    
C36   O12   A    
C24   H7    S    
C27   H15   S    
O12   Zn1   S    
C26   H13   S    
C39   O8    S    
C3    C38   A    
C19   H23   S    
C20   H38   S    
C36   O15   A    
C24   H6    S    
C31   H26   S    
C9    N2    A    
C21   H40   S    
C37   O13   A    
C19   H36   S    
N1    Zn1   S    
C32   H27   S    
C22   H4    S    
C12   C23   S    
O13   Zn2   S    
C33   H31   S    
C1    C34   S    
C38   C40   A    
C30   H21   S    
C25   O4    S    
C31   O7    S    
C20   C21   S    
C32   H29   S    
C29   O6    S    
C30   H24   S    
C18   H12   S    
O14   Zn1   S    
C35   H35   S    
C34   O9    A    
C20   H37   S    
C25   C26   S    
C11   O3    S    
C24   H5    S    
C27   C28   S    
C29   H19   S    
C29   C30   S    
C37   O14   A    
Br3   C16   S    
C35   H32   S    
C23   O1    A    
C20   O2    S    
C40   O5    S    
C22   H3    S    
C11   N2    A    
O1    Zn1   S    
C4    C6    S    
O15   Zn2   S    
C27   O5    S    
C2    C39   A    
C28   H16   S    
O9    Zn2   S    
C3    C5    S    
C23   O11   A    
Br2   C15   S    
C10   C11   A    
C13   O4    S    
C4    C40   A    
C10   N1    A    
C2    C3    A    
C1    C15   A    
C26   H11   S    
C22   C24   S    
C18   O16   S    
C9    C13   A    
C28   H18   S    
C33   C35   S    
Br4   C17   S    
C25   H9    S    
C29   H20   S    
C2    O6    S    
C33   O8    S    
C14   C16   A    
C19   H34   S    
C7    C36   S    
C5    C8    T    
O11   Zn2   S    
C6    C7    T    
C10   O2    S    
C18   H1    S    
C31   H25   S    
C12   C14   A    
O10   Zn1   S    
C34   O10   A    
C21   H39   S    
C18   C19   S    
C9    O16   S    
C21   H2    S    
C32   H28   S    
C25   H8    S    
