data_mof_unit_20306.cif
_audit_creation_date              2012-12-10T17:57:26-0500
_audit_creation_method            fapswitch 2.2
_symmetry_space_group_name_H-M    P1
_symmetry_Int_Tables_number       1
_space_group_crystal_system       triclinic
_cell_length_a                    9.547803
_cell_length_b                    10.828075
_cell_length_c                    13.498566
_cell_angle_alpha                 90.880374
_cell_angle_beta                  73.444289
_cell_angle_gamma                 90.392596
_cell_volume                      1337.52305908

loop_
_atom_site_label
_atom_site_type_symbol
_atom_type_description
_atom_site_fract_x
_atom_site_fract_y
_atom_site_fract_z
_atom_type_partial_charge
C1    C     C_R   0.500344 0.737838 0.499839 0.810858
C2    C     C_R   0.442936 0.476652 0.976504 0.101777
C3    C     C_R   0.481422 0.455078 0.868362 0.090466
C4    C     C_R   0.548230 0.455631 0.030016 0.029119
C5    C     C_R   0.696027 0.437968 0.973809 0.129533
C6    C     C_R   0.730614 0.406910 0.869283 -0.203796
C7    C     C_R   0.621646 0.405423 0.819459 -0.152265
C8    C     C_R   0.511030 0.448722 0.137757 0.178220
C9    C     C_R   0.766989 0.471638 0.130305 -0.229745
C10   C     C_R   0.380258 0.487317 0.813052 -0.094042
C11   C     C_R   0.631836 0.936782 0.484703 -0.165829
C12   C     C_R   0.423083 0.492851 0.699446 0.809942
C13   C     C_R   0.631510 0.064541 0.484911 -0.177774
C14   C     C_R   0.499828 0.128299 0.499065 -0.009981
C15   C     C_R   0.368546 0.063310 0.512720 -0.167151
C16   C     C_R   0.368807 0.935518 0.513037 -0.176944
C17   C     C_R   0.500446 0.871752 0.499332 -0.016920
C18   C     C_R   0.909563 0.593332 0.548518 0.104027
C19   C     C_R   0.058277 0.593343 0.546354 -0.091684
C20   C     C_R   0.091486 0.405667 0.454441 0.020362
C21   C     C_R   0.943571 0.406515 0.453130 -0.053379
C22   C     C_R   0.499807 0.262173 0.499629 0.781910
C23   C     C_R   0.577047 0.491395 0.300701 0.837204
C24   C     C_R   0.805122 0.446174 0.024368 -0.189868
C25   C     C_R   0.619148 0.472051 0.188234 -0.099082
C26   C     C_R   0.240525 0.530202 0.867321 -0.195872
C27   C     C_R   0.204291 0.551754 0.973117 -0.160268
C28   C     C_R   0.305551 0.529193 0.026715 -0.113281
Cu1   Cu    Cu3+1 0.359340 0.499980 0.500000 0.970050
Cu2   Cu    Cu3+1 0.640660 0.500020 0.500000 0.974659
H1    H     H_    0.852822 0.484227 0.167492 0.176124
H2    H     H_    0.734368 0.113105 0.473400 0.144164
H3    H     H_    0.265683 0.110952 0.523856 0.146252
H4    H     H_    0.265965 0.886946 0.524471 0.141849
H5    H     H_    0.101403 0.667081 0.584298 0.118884
H6    H     H_    0.160330 0.328977 0.419079 0.164789
H7    H     H_    0.902759 0.331675 0.415091 0.136160
H8    H     H_    0.840891 0.380374 0.826771 0.142937
H9    H     H_    0.919141 0.435603 0.981704 0.149582
H10   H     H_    0.161653 0.554688 0.827028 0.157236
H11   H     H_    0.277059 0.557876 0.107025 0.169483
H12   H     H_    0.099312 0.591461 0.013176 0.144902
H13   H     H_    0.651334 0.366824 0.742241 0.168984
H14   H     H_    0.734869 0.889251 0.472326 0.137595
N1    N     N_R   0.147940 0.499970 0.499970 -0.160707
N2    N     N_R   0.852060 0.500060 0.499990 -0.180239
O1    O     O_R   0.381250 0.680340 0.500010 -0.595135
O2    O     O_R   0.618820 0.680370 0.500010 -0.573531
O3    O     O_R   0.323240 0.499950 0.650980 -0.591206
O4    O     O_R   0.560810 0.499980 0.650980 -0.535142
O5    O     O_R   0.381180 0.319630 0.499990 -0.588620
O6    O     O_R   0.618750 0.319660 0.499990 -0.608496
O7    O     O_R   0.439190 0.500020 0.349020 -0.534700
O8    O     O_R   0.676760 0.500050 0.349020 -0.593364
C29   C     C_2   0.823542 0.698098 0.604640 0.405251
H15   H     H_    0.862868 0.791472 0.585432 0.004221
O9    O     O_2   0.716992 0.682291 0.678518 -0.515194
Br1   Br    Br    0.336367 0.356017 0.205695 -0.572327

loop_
_geom_bond_atom_site_label_1
_geom_bond_atom_site_label_2
_ccdc_geom_bond_type
C12   O4    A    
C29   H15   S    
C19   N1    A    
C1    O2    A    
C12   O3    A    
C6    C7    A    
C7    H13   S    
C11   C13   A    
C13   H2    S    
C1    C17   S    
C20   N1    A    
C4    C8    A    
C16   H4    S    
C14   C22   S    
C6    H8    S    
C2    C3    A    
Cu2   O4    S    
C9    C25   A    
C11   H14   S    
C9    C24   A    
C3    C10   A    
C19   H5    S    
C13   C14   A    
Cu1   O3    S    
C8    C25   A    
Cu2   O8    S    
C27   H12   S    
C26   H10   S    
C26   C27   A    
Cu1   Cu2   S    
C5    C24   A    
C10   C12   S    
C18   C29   S    
Cu1   O1    S    
C2    C4    A    
C18   N2    A    
Cu2   O2    S    
Cu2   N2    S    
C23   O7    A    
C3    C7    A    
C29   O9    D    
C1    O1    A    
C5    C6    A    
C22   O5    A    
C9    H1    S    
C15   C16   A    
C20   H6    S    
C28   H11   S    
C24   H9    S    
C21   H7    S    
C20   C21   A    
C23   O8    A    
C22   O6    A    
C21   N2    A    
Cu1   O5    S    
C27   C28   A    
C18   C19   A    
Cu2   O6    S    
C14   C15   A    
C4    C5    A    
C2    C28   A    
C8    Br1   S    
C23   C25   S    
C15   H3    S    
C10   C26   A    
C11   C17   A    
Cu1   N1    S    
C16   C17   A    
Cu1   O7    S    
