data_mof_unit_39932.cif
_audit_creation_date              2012-12-10T17:20:22-0500
_audit_creation_method            fapswitch 2.2
_symmetry_space_group_name_H-M    P1
_symmetry_Int_Tables_number       1
_space_group_crystal_system       triclinic
_cell_length_a                    11.698962
_cell_length_b                    10.832531
_cell_length_c                    9.629416
_cell_angle_alpha                 90.173124
_cell_angle_beta                  90.062522
_cell_angle_gamma                 94.936128
_cell_volume                      1215.79722823

loop_
_atom_site_label
_atom_site_type_symbol
_atom_type_description
_atom_site_fract_x
_atom_site_fract_y
_atom_site_fract_z
_atom_type_partial_charge
C1    C     C_R   0.492845 0.262228 0.499686 0.795869
C2    C     C_R   0.266906 0.045274 0.780625 -0.141788
C3    C     C_R   0.268159 0.917274 0.783511 -0.137017
C4    C     C_R   0.337390 0.858118 0.691473 -0.155216
C5    C     C_R   0.410320 0.926999 0.597138 0.092641
C6    C     C_R   0.410289 0.057928 0.595356 0.050785
C7    C     C_R   0.480766 0.127089 0.497841 -0.213626
C8    C     C_R   0.538813 0.065864 0.393751 0.414344
C9    C     C_R   0.532578 0.938107 0.391985 -0.281922
C10   C     C_R   0.477985 0.868861 0.498634 -0.188483
C11   C     C_R   0.686516 0.646512 0.135926 0.482571
C12   C     C_R   0.284090 0.498760 0.499952 0.781764
C13   C     C_R   0.781545 0.683148 0.048720 -0.301199
C14   C     C_R   0.768494 0.689963 0.908301 -0.268160
C15   C     C_R   0.666406 0.646861 0.849766 -0.118131
C16   C     C_R   0.583657 0.572640 0.923948 0.158575
C17   C     C_R   0.587979 0.572470 0.073972 0.105124
C18   C     C_R   0.419452 0.431463 0.073485 -0.033883
C19   C     C_R   0.419939 0.430961 0.926047 -0.042643
C20   C     C_R   0.491355 0.736249 0.500032 0.841519
C21   C     C_R   0.715270 0.494858 0.500125 0.838714
C22   C     C_1   0.162140 0.496827 0.499935 -0.183142
C23   C     C_1   0.059449 0.494951 0.500137 -0.011939
C24   C     C_1   0.939449 0.493216 0.500444 -0.019729
C25   C     C_1   0.836903 0.492979 0.500511 -0.193517
C26   C     C_R   0.335419 0.115002 0.686284 -0.145995
Cu1   Cu    Cu3+1 0.499990 0.499990 0.640660 0.926185
Cu2   Cu    Cu3+1 0.500010 0.500010 0.359340 0.991322
H1    H     H_    0.836225 0.734919 0.844846 0.168907
H2    H     H_    0.354076 0.374062 0.871116 0.122851
H3    H     H_    0.325033 0.212923 0.682663 0.139987
H4    H     H_    0.210486 0.090604 0.849557 0.126859
H5    H     H_    0.212770 0.863176 0.854764 0.132960
H6    H     H_    0.328925 0.758179 0.692337 0.160543
H7    H     H_    0.576579 0.893615 0.309453 0.219700
H8    H     H_    0.353358 0.374919 0.128005 0.132345
H9    H     H_    0.863641 0.722580 0.086452 0.134927
N1    N     N_R   0.501070 0.501210 0.147910 -0.189295
N2    N     N_R   0.501110 0.501290 0.852040 -0.189758
O1    O     O_R   0.499990 0.319640 0.618810 -0.588427
O2    O     O_R   0.500000 0.319660 0.381240 -0.531375
O3    O     O_R   0.337190 0.500000 0.618790 -0.593510
O4    O     O_R   0.337200 0.500030 0.381210 -0.582977
O5    O     O_R   0.500000 0.680340 0.618760 -0.622671
O6    O     O_R   0.500010 0.680360 0.381190 -0.509463
O7    O     O_R   0.662800 0.499970 0.618790 -0.595408
O8    O     O_R   0.662810 0.500000 0.381210 -0.532559
O9    O     O_3   0.596724 0.130285 0.287509 -0.552438
C27   C     C_3   0.713187 0.154235 0.325139 0.075638
H10   H     H_    0.755877 0.066554 0.329615 0.130386
H11   H     H_    0.722620 0.202760 0.427315 0.121222
C28   C     C_3   0.773995 0.236990 0.215873 -0.747438
H12   H     H_    0.770790 0.188847 0.113767 0.241368
H13   H     H_    0.731915 0.324599 0.206103 0.263755
H14   H     H_    0.865080 0.259305 0.246115 0.190409
H15   H     H_    0.658103 0.670756 0.744266 0.204417
O10   O     O_3   0.682716 0.697357 0.269777 -0.542632
C29   C     C_3   0.787485 0.760562 0.317966 0.046161
H16   H     H_    0.810149 0.844979 0.254765 0.139292
H17   H     H_    0.857572 0.697370 0.314514 0.150219
C30   C     C_3   0.779096 0.804016 0.468188 -0.836227
H18   H     H_    0.730523 0.733900 0.532236 0.245328
H19   H     H_    0.866599 0.821729 0.512737 0.205744
H20   H     H_    0.737395 0.891456 0.475003 0.218139

loop_
_geom_bond_atom_site_label_1
_geom_bond_atom_site_label_2
_ccdc_geom_bond_type
C8    C9    A    
C30   H20   S    
C23   C24   S    
C8    O9    S    
Cu2   O8    S    
C6    C7    A    
C9    C10   A    
Cu2   O4    S    
C13   H9    S    
C20   O6    A    
C28   H14   S    
Cu2   N1    S    
Cu1   O1    S    
C27   C28   S    
C15   H15   S    
C29   C30   S    
C2    C3    A    
C18   N1    A    
C26   H3    S    
C2    C26   A    
C11   O10   S    
C13   C14   A    
C24   C25   T    
C11   C13   A    
Cu1   O3    S    
O10   C29   S    
C6    C26   A    
C19   N2    A    
C5    C6    A    
Cu1   O7    S    
C1    O2    A    
O9    C27   S    
C20   O5    A    
C28   H13   S    
C21   O7    A    
C12   O4    A    
C17   N1    A    
C22   C23   T    
C30   H18   S    
C4    H6    S    
Cu2   O6    S    
C7    C8    A    
C3    H5    S    
C14   H1    S    
C29   H17   S    
C3    C4    A    
C12   C22   S    
Cu2   O2    S    
C5    C10   A    
C28   H12   S    
C2    H4    S    
C27   H10   S    
C10   C20   S    
Cu1   Cu2   S    
C30   H19   S    
C21   C25   S    
C14   C15   A    
C18   C19   A    
C9    H7    S    
C12   O3    A    
C16   N2    A    
C1    O1    A    
C21   O8    A    
C29   H16   S    
C1    C7    S    
C19   H2    S    
C18   H8    S    
Cu1   O5    S    
C11   C17   A    
C15   C16   A    
C16   C17   A    
Cu1   N2    S    
C4    C5    A    
C27   H11   S    
