data_mof_unit_39451.cif
_audit_creation_date              2012-12-10T22:11:13-0500
_audit_creation_method            fapswitch 2.2
_symmetry_space_group_name_H-M    P1
_symmetry_Int_Tables_number       1
_space_group_crystal_system       triclinic
_cell_length_a                    12.119077
_cell_length_b                    12.318203
_cell_length_c                    22.950374
_cell_angle_alpha                 90.783314
_cell_angle_beta                  90.690547
_cell_angle_gamma                 90.94041
_cell_volume                      3425.11246689

loop_
_atom_site_label
_atom_site_type_symbol
_atom_type_description
_atom_site_fract_x
_atom_site_fract_y
_atom_site_fract_z
_atom_type_partial_charge
C1    C     C_R   0.656995 0.998351 0.579475 0.869053
C2    C     C_R   0.104845 0.868467 0.823240 0.130877
C3    C     C_R   0.898128 0.215062 0.136901 -0.250907
C4    C     C_R   0.101875 0.784928 0.863094 -0.250906
C5    C     C_R   0.146345 0.907343 0.303221 -0.179793
C6    C     C_R   0.853666 0.092659 0.696774 -0.179784
C7    C     C_R   0.228163 0.906503 0.345785 -0.196156
C8    C     C_R   0.771848 0.093499 0.654210 -0.196156
C9    C     C_R   0.851092 0.102212 0.309325 -0.155021
C10   C     C_R   0.148897 0.897788 0.690670 -0.155013
C11   C     C_R   0.770993 0.101031 0.351590 -0.208625
C12   C     C_R   0.343005 0.001649 0.420525 0.869051
C13   C     C_R   0.228996 0.898968 0.648405 -0.208627
C14   C     C_3   0.994130 0.005796 0.247841 -0.105413
C15   C     C_3   0.005871 0.994204 0.752159 -0.105418
C16   C     C_R   0.655249 0.001852 0.421048 0.872872
C17   C     C_R   0.344751 0.998148 0.578951 0.872873
C18   C     C_R   0.094223 0.005018 0.288747 0.108083
C19   C     C_R   0.905777 0.994981 0.711253 0.108082
C20   C     C_R   0.257700 0.002498 0.375692 -0.025229
C21   C     C_R   0.742300 0.997502 0.624308 -0.025232
C22   C     C_R   0.899262 0.004700 0.290516 0.177708
C23   C     C_R   0.894166 0.771119 0.148200 -0.216217
C24   C     C_R   0.100737 0.995300 0.709484 0.177714
C25   C     C_R   0.740369 0.003103 0.377403 -0.023419
C26   C     C_R   0.259630 0.996897 0.622596 -0.023422
C27   C     C_R   0.992933 0.103785 0.207556 0.122056
C28   C     C_R   0.007067 0.896215 0.792444 0.122060
C29   C     C_R   0.997341 0.268822 0.124837 -0.044725
C30   C     C_R   0.002659 0.731178 0.875162 -0.044728
C31   C     C_R   0.992109 0.910072 0.205114 0.135263
C32   C     C_R   0.007891 0.089927 0.794886 0.135258
C33   C     C_R   0.990989 0.749467 0.118076 -0.020216
C34   C     C_R   0.105836 0.228870 0.851806 -0.216215
C35   C     C_R   0.009011 0.250532 0.881924 -0.020219
C36   C     C_R   0.992855 0.662474 0.075116 0.870317
C37   C     C_R   0.007145 0.337526 0.924884 0.870317
C38   C     C_R   0.998869 0.352360 0.081049 0.880780
C39   C     C_R   0.001131 0.647640 0.918951 0.880781
C40   C     C_R   0.122377 0.100145 0.320738 -0.163427
C41   C     C_R   0.877614 0.899852 0.679267 -0.163433
C42   C     C_R   0.204504 0.099311 0.362985 -0.196926
C43   C     C_R   0.795487 0.900686 0.637020 -0.196926
C44   C     C_R   0.873008 0.908065 0.319773 -0.180554
C45   C     C_R   0.087645 0.889987 0.172655 -0.168998
C46   C     C_R   0.127000 0.091937 0.680231 -0.180557
C47   C     C_R   0.792576 0.906797 0.361889 -0.201209
C48   C     C_R   0.207432 0.093205 0.638115 -0.201208
C49   C     C_R   0.092931 0.156883 0.193069 -0.232052
C50   C     C_R   0.907067 0.843127 0.806936 -0.232044
C51   C     C_R   0.094737 0.239310 0.152870 -0.202298
C52   C     C_R   0.905262 0.760700 0.847135 -0.202298
C53   C     C_R   0.894364 0.851182 0.191077 -0.170921
C54   C     C_R   0.105639 0.148807 0.808929 -0.170920
C55   C     C_R   0.912351 0.110021 0.827340 -0.168998
C56   C     C_R   0.087497 0.809679 0.130164 -0.199944
C57   C     C_R   0.912499 0.190329 0.869831 -0.199943
C58   C     C_R   0.895157 0.131524 0.176755 0.130880
H1    H     H_    0.224625 0.174059 0.386454 0.155945
H2    H     H_    0.837078 0.063233 0.819630 0.138576
H3    H     H_    0.122047 0.830536 0.283175 0.139672
H4    H     H_    0.877972 0.169467 0.716816 0.139668
H5    H     H_    0.875639 0.179958 0.291895 0.128764
H6    H     H_    0.124343 0.820042 0.708096 0.128760
H7    H     H_    0.772462 0.830775 0.382755 0.157829
H8    H     H_    0.227553 0.169228 0.617253 0.157830
H9    H     H_    0.172867 0.278467 0.143019 0.161724
H10   H     H_    0.827130 0.721551 0.856990 0.161725
H11   H     H_    0.818399 0.725984 0.138859 0.156780
H12   H     H_    0.775358 0.825936 0.613555 0.155946
H13   H     H_    0.181606 0.273998 0.861150 0.156782
H14   H     H_    0.162854 0.795362 0.106546 0.156935
H15   H     H_    0.837140 0.204654 0.893445 0.156937
H16   H     H_    0.822492 0.235371 0.114164 0.159137
H17   H     H_    0.177511 0.764612 0.885827 0.159139
H18   H     H_    0.267265 0.830383 0.355694 0.155778
H19   H     H_    0.732754 0.169621 0.644297 0.155780
H20   H     H_    0.733546 0.176952 0.364143 0.157109
H21   H     H_    0.266436 0.823046 0.635848 0.157111
H22   H     H_    0.079690 0.175308 0.313337 0.134812
H23   H     H_    0.914945 0.833231 0.309891 0.134689
H24   H     H_    0.920293 0.824687 0.686672 0.134811
H25   H     H_    0.733385 0.129044 0.197412 0.179415
H26   H     H_    0.768065 0.040327 0.144179 0.186899
H27   H     H_    0.266612 0.870936 0.802573 0.179419
H28   H     H_    0.231953 0.959649 0.855811 0.186895
H29   H     H_    0.085071 0.166773 0.690117 0.134686
H30   H     H_    0.171415 0.132985 0.211236 0.151074
H31   H     H_    0.828584 0.867032 0.788773 0.151069
H32   H     H_    0.816933 0.867681 0.211990 0.160150
H33   H     H_    0.183071 0.132302 0.788019 0.160151
H34   H     H_    0.162916 0.936783 0.180362 0.138579
N1    N     N_3   0.793013 0.073522 0.184497 -0.476769
N2    N     N_3   0.206993 0.926461 0.815494 -0.476776
O1    O     O_R   0.621380 0.090460 0.561410 -0.627476
O2    O     O_R   0.912410 0.372520 0.941210 -0.630884
O3    O     O_R   0.905660 0.383870 0.059980 -0.631950
O4    O     O_R   0.094340 0.616130 0.940020 -0.631951
O5    O     O_R   0.092570 0.390420 0.063230 -0.627614
O6    O     O_R   0.907430 0.609580 0.936770 -0.627615
O7    O     O_R   0.900680 0.620930 0.055550 -0.627417
O8    O     O_R   0.099320 0.379070 0.944450 -0.627417
O9    O     O_R   0.378620 0.909540 0.438590 -0.627475
O10   O     O_R   0.617150 0.909540 0.438590 -0.630682
O11   O     O_R   0.382850 0.090460 0.561410 -0.630683
O12   O     O_R   0.619720 0.093230 0.440890 -0.628642
O13   O     O_R   0.380280 0.906770 0.559110 -0.628643
O14   O     O_R   0.618800 0.906770 0.559110 -0.630100
O15   O     O_R   0.381200 0.093230 0.440890 -0.630099
O16   O     O_R   0.087590 0.627480 0.058790 -0.630882
Zn1   Zn    Zn3+2 0.501730 0.123520 0.501540 0.936997
Zn2   Zn    Zn3+2 0.498270 0.876480 0.498460 0.936997
Zn3   Zn    Zn3+2 0.125690 0.504390 0.002180 0.934292
Zn4   Zn    Zn3+2 0.874310 0.495610 0.997820 0.934291

loop_
_geom_bond_atom_site_label_1
_geom_bond_atom_site_label_2
_ccdc_geom_bond_type
C13   H21   S    
C1    C21   S    
O13   Zn2   S    
C23   H11   S    
C14   C31   S    
C49   C51   A    
C15   C28   S    
C15   C32   S    
C15   C19   S    
C6    C19   A    
C17   C26   S    
C35   C37   S    
C58   N1    S    
C17   O13   A    
C37   O8    A    
C9    C22   A    
C11   C25   A    
H25   N1    S    
C33   C36   S    
C34   C35   A    
C57   H15   S    
C3    C29   A    
C3    H16   S    
C18   C40   A    
C4    H17   S    
H28   N2    S    
C21   C43   A    
C28   C50   A    
C16   O10   A    
C22   C44   A    
C45   C56   A    
C23   C33   A    
C29   C38   S    
C50   C52   A    
C40   H22   S    
C14   C27   S    
C25   C47   A    
C32   C55   A    
C52   H10   S    
C44   C47   A    
C16   O12   A    
C33   C56   A    
C40   C42   A    
O11   Zn1   S    
C55   H2    S    
O7    Zn4   S    
C41   C43   A    
C49   H30   S    
O2    Zn4   S    
C38   O3    A    
C32   C54   A    
C12   O15   A    
C23   C53   A    
O12   Zn1   S    
C46   C48   A    
C2    N2    S    
O6    Zn4   S    
C12   O9    A    
C44   H23   S    
C5    C7    A    
C39   O4    A    
C6    C8    A    
C5    C18   A    
C10   C24   A    
C10   C13   A    
O14   Zn2   S    
C37   O2    A    
O9    Zn2   S    
C2    C4    A    
C11   H20   S    
C17   O11   A    
C45   H34   S    
H27   N2    S    
C50   H31   S    
C1    O1    A    
C12   C20   S    
C8    C21   A    
C5    H3    S    
C51   H9    S    
C31   C53   A    
C9    C11   A    
O16   Zn3   S    
C15   C24   S    
C34   C54   A    
C43   H12   S    
C55   C57   A    
C36   O16   A    
C8    H19   S    
C13   C26   A    
O10   Zn2   S    
C46   H29   S    
C29   C51   A    
C16   C25   S    
C30   C52   A    
C56   H14   S    
C9    H5    S    
C14   C18   S    
C10   H6    S    
C38   O5    A    
O4    Zn3   S    
C27   C58   A    
C42   H1    S    
O5    Zn3   S    
C20   C42   A    
C7    H18   S    
C26   C48   A    
C35   C57   A    
C24   C46   A    
C6    H4    S    
O15   Zn1   S    
C54   H33   S    
O8    Zn3   S    
O1    Zn1   S    
C14   C22   S    
C39   O6    A    
C41   H24   S    
C30   C39   S    
H26   N1    S    
C1    O14   A    
C3    C58   A    
C19   C41   A    
C7    C20   A    
C31   C45   A    
C53   H32   S    
C36   O7    A    
C2    C28   A    
C48   H8    S    
O3    Zn4   S    
C34   H13   S    
C47   H7    S    
C4    C30   A    
C27   C49   A    
