data_mof_unit_38280.cif
_audit_creation_date              2012-12-10T18:46:12-0500
_audit_creation_method            fapswitch 2.2
_symmetry_space_group_name_H-M    P1
_symmetry_Int_Tables_number       1
_space_group_crystal_system       triclinic
_cell_length_a                    9.836769
_cell_length_b                    10.686923
_cell_length_c                    13.108623
_cell_angle_alpha                 89.751799
_cell_angle_beta                  70.741596
_cell_angle_gamma                 90.086875
_cell_volume                      1300.90844967

loop_
_atom_site_label
_atom_site_type_symbol
_atom_type_description
_atom_site_fract_x
_atom_site_fract_y
_atom_site_fract_z
_atom_type_partial_charge
C1    C     C_R   0.500259 0.740110 0.499625 0.862573
C2    C     C_R   0.427020 0.437134 0.984690 -0.083972
C3    C     C_R   0.463601 0.418727 0.872910 -0.089678
C4    C     C_R   0.538642 0.432904 0.030261 0.010057
C5    C     C_R   0.675187 0.382780 0.971271 -0.031956
C6    C     C_R   0.697343 0.336826 0.867550 -0.289795
C7    C     C_R   0.591263 0.350767 0.819254 0.554025
C8    C     C_R   0.520002 0.486332 0.130237 -0.191679
C9    C     C_R   0.758351 0.422519 0.123516 -0.319374
C10   C     C_R   0.370423 0.467918 0.820308 -0.132214
C11   C     C_R   0.631904 0.936239 0.458274 -0.212177
C12   C     C_R   0.421045 0.490538 0.703802 0.939672
C13   C     C_R   0.631926 0.064560 0.456836 -0.213293
C14   C     C_R   0.500742 0.127617 0.495262 -0.013878
C15   C     C_R   0.369515 0.063831 0.533403 -0.214854
C16   C     C_R   0.369515 0.935699 0.534723 -0.203316
C17   C     C_R   0.500731 0.872545 0.497797 -0.002291
C18   C     C_R   0.953105 0.412544 0.443056 -0.156053
C19   C     C_R   0.096775 0.412472 0.443392 -0.040928
C20   C     C_R   0.046976 0.586500 0.558279 -0.205342
C21   C     C_R   0.901875 0.588348 0.557595 0.617838
C22   C     C_R   0.500541 0.259960 0.498128 0.882614
C23   C     C_R   0.579091 0.498427 0.295535 0.884731
C24   C     C_R   0.784904 0.376299 0.018647 0.564255
C25   C     C_R   0.624472 0.474945 0.179763 -0.155974
C26   C     C_R   0.231154 0.506477 0.881374 -0.251958
C27   C     C_R   0.184446 0.496456 0.993142 -0.164294
C28   C     C_R   0.279661 0.458559 0.045790 0.526442
H1    H     H_    0.840394 0.414438 0.161583 0.174799
H2    H     H_    0.733609 0.114218 0.426261 0.147639
H3    H     H_    0.267735 0.112721 0.564030 0.157605
H4    H     H_    0.267692 0.886315 0.565867 0.145879
H5    H     H_    0.918408 0.342321 0.397719 0.139601
H6    H     H_    0.171232 0.341882 0.399229 0.147795
H7    H     H_    0.082890 0.652491 0.606267 0.139297
H8    H     H_    0.795924 0.288483 0.823698 0.203407
H9    H     H_    0.422553 0.537127 0.171499 0.212318
H10   H     H_    0.157411 0.542397 0.842628 0.191177
H11   H     H_    0.073590 0.517310 0.039234 0.176553
H12   H     H_    0.733523 0.887098 0.428060 0.154514
N1    N     N_R   0.142790 0.500030 0.500030 -0.098291
N2    N     N_R   0.857180 0.499940 0.500010 -0.112881
O1    O     O_R   0.385370 0.683250 0.500010 -0.631592
O2    O     O_R   0.614700 0.683220 0.500010 -0.583355
O3    O     O_R   0.328400 0.499990 0.653620 -0.628776
O4    O     O_R   0.557730 0.499960 0.653620 -0.528566
O5    O     O_R   0.385300 0.316780 0.499990 -0.635993
O6    O     O_R   0.614630 0.316750 0.499990 -0.592969
O7    O     O_R   0.442270 0.500040 0.346380 -0.602857
O8    O     O_R   0.671600 0.500010 0.346380 -0.625384
Zn1   Zn    Zn3+2 0.346870 0.500020 0.500000 0.950718
Zn2   Zn    Zn3+2 0.653130 0.499980 0.500000 1.016752
O9    O     O_3   0.800168 0.670978 0.620627 -0.576357
C29   C     C_3   0.854711 0.794321 0.611382 -0.363800
H13   H     H_    0.762380 0.859893 0.636571 0.204767
H14   H     H_    0.920209 0.819273 0.526759 0.143886
H15   H     H_    0.917571 0.808592 0.666903 0.157997
O10   O     O_3   0.919665 0.330701 0.960511 -0.615671
C30   C     C_3   0.935183 0.210358 0.999656 -0.367858
H16   H     H_    0.850243 0.145315 0.992497 0.161812
H17   H     H_    0.934285 0.213526 0.084676 0.160380
H18   H     H_    0.040961 0.172235 0.949779 0.195510
O11   O     O_3   0.222320 0.428691 0.154378 -0.625377
C31   C     C_3   0.217977 0.296857 0.165066 -0.342917
H19   H     H_    0.185582 0.248854 0.101174 0.154122
H20   H     H_    0.136049 0.270854 0.242993 0.166428
H21   H     H_    0.323892 0.261000 0.165218 0.181474
O12   O     O_3   0.608264 0.286217 0.724850 -0.586169
C32   C     C_3   0.532341 0.171955 0.752047 -0.359274
H22   H     H_    0.414868 0.187516 0.770933 0.166246
H23   H     H_    0.553262 0.122596 0.820511 0.150235
H24   H     H_    0.569473 0.108428 0.681936 0.207995

loop_
_geom_bond_atom_site_label_1
_geom_bond_atom_site_label_2
_ccdc_geom_bond_type
C32   H24   S    
C22   O6    A    
C28   O11   S    
C9    C24   A    
C15   H3    S    
C6    C7    A    
C26   H10   S    
C29   H14   S    
C16   H4    S    
C2    C28   A    
C1    O2    A    
O8    Zn2   S    
C14   C15   A    
C9    H1    S    
C4    C8    A    
O1    Zn1   S    
C31   H19   S    
C10   C26   A    
C11   H12   S    
C18   N2    A    
C2    C3    A    
C7    O12   S    
C9    C25   A    
C30   H16   S    
C3    C10   A    
C13   C14   A    
C29   H15   S    
C21   O9    S    
C8    C25   A    
C11   C13   A    
O2    Zn2   S    
C26   C27   A    
C32   H22   S    
C5    C24   A    
C10   C12   S    
C5    C6    A    
C2    C4    A    
C24   O10   S    
N1    Zn1   S    
C6    H8    S    
C20   N1    A    
C3    C7    A    
C23   C25   S    
C14   C22   S    
C18   H5    S    
C22   O5    A    
C30   H17   S    
C4    C5    A    
C23   O7    A    
C8    H9    S    
O3    Zn1   S    
O11   C31   S    
C31   H21   S    
O4    Zn2   S    
C13   H2    S    
O6    Zn2   S    
C20   C21   A    
C12   O4    A    
C18   C19   A    
N2    Zn2   S    
C27   C28   A    
C32   H23   S    
C29   H13   S    
C16   C17   A    
C23   O8    A    
O5    Zn1   S    
C21   N2    A    
O7    Zn1   S    
O10   C30   S    
O12   C32   S    
C20   H7    S    
C1    C17   S    
C1    O1    A    
C15   C16   A    
C11   C17   A    
C19   N1    A    
O9    C29   S    
C27   H11   S    
C12   O3    A    
C30   H18   S    
C19   H6    S    
C31   H20   S    
