data_mof_unit_44780.cif
_audit_creation_date              2013-03-05T15:41:10-0500
_audit_creation_method            fapswitch 2.2
_symmetry_space_group_name_H-M    P1
_symmetry_Int_Tables_number       1
_space_group_crystal_system       triclinic
_cell_length_a                    15.872146
_cell_length_b                    8.694167
_cell_length_c                    7.594993
_cell_angle_alpha                 103.011451
_cell_angle_beta                  97.746353
_cell_angle_gamma                 93.17322
_cell_volume                      1007.84931194

loop_
_atom_site_label
_atom_site_type_symbol
_atom_site_description
_atom_site_fract_x
_atom_site_fract_y
_atom_site_fract_z
_atom_type_partial_charge
O1    O     O_R   0.506050 0.286130 0.619770 -0.624582
O2    O     O_R   0.490330 0.256780 0.308370 -0.578548
C1    C     C_R   0.492082 0.199991 0.452955 0.768372
O3    O     O_R   0.387300 0.514690 0.655770 -0.635969
O4    O     O_R   0.371580 0.485340 0.344370 -0.513699
C2    C     C_R   0.340573 0.501329 0.496684 0.817457
Cu1   Cu    Cu3+1 0.509300 0.517380 0.684380 0.987324
Cu2   Cu    Cu3+1 0.490700 0.482620 0.315620 1.080650
O5    O     O_R   0.509670 0.743220 0.691630 -0.605555
O6    O     O_R   0.493950 0.713870 0.380230 -0.508012
O7    O     O_R   0.628420 0.514660 0.655630 -0.575091
O8    O     O_R   0.612700 0.485310 0.344230 -0.540084
C3    C     C_R   0.499262 0.799303 0.545730 0.896672
C4    C     C_R   0.659459 0.498936 0.503300 0.811375
C5    C     C_3   0.066207 0.446084 0.660035 0.116217
C6    C     C_3   0.029551 0.396409 0.301960 0.645814
C7    C     C_3   0.930817 0.373456 0.324762 -0.168127
C8    C     C_1   0.749239 0.496681 0.513021 -0.160512
C9    C     C_3   0.082855 0.510197 0.484456 -0.125438
C10   C     C_3   0.966735 0.450385 0.678836 0.748954
C11   C     C_3   0.917095 0.500495 0.506368 -0.235180
C12   C     C_3   0.951805 0.678769 0.501387 -0.248457
C13   C     C_3   0.054938 0.687053 0.505827 0.276882
C14   C     C_1   0.824907 0.496537 0.517541 -0.024657
C15   C     C_1   0.175326 0.510011 0.479268 0.021243
C16   C     C_1   0.250986 0.506540 0.486640 -0.096585
C17   C     C_2   0.472663 0.032328 0.427590 -0.208091
C18   C     C_2   0.499657 0.967349 0.567649 -0.360680
H1    H     H_    0.531511 0.039642 0.698217 0.160631
N1    N     N_2   0.476670 0.456430 0.038530 -0.079082
N2    N     N_2   0.523330 0.543570 0.961470 0.035452
O9    O     O_3   0.932448 0.300667 0.688192 -0.657124
H2    H     H_    0.965103 0.273390 0.796145 0.422288
O10   O     O_3   0.113961 0.542916 0.821793 -0.730259
H3    H     H_    0.176067 0.542278 0.816596 0.354234
O11   O     O_3   0.950343 0.552742 0.841315 -0.621968
H4    H     H_    0.991357 0.646953 0.881431 0.370917
C19   C     C_2   0.900904 0.725907 0.337003 0.380829
H5    H     H_    0.837378 0.764775 0.347497 0.089093
O12   O     O_2   0.925767 0.714593 0.189993 -0.503724
C20   C     C_2   0.417286 0.946834 0.254576 0.486705
H6    H     H_    0.423827 0.980124 0.127351 0.099396
O13   O     O_2   0.360546 0.846094 0.254878 -0.487457
C21   C     C_2   0.411484 0.340315 0.933555 0.571724
H7    H     H_    0.400124 0.307382 0.788077 0.072447
O14   O     O_2   0.365136 0.271079 0.011821 -0.569651
O15   O     O_3   0.580581 0.650835 0.077409 -0.589955
H8    H     H_    0.610081 0.704869 0.998286 0.340852
C22   C     C_2   0.099497 0.281151 0.648404 0.422523
H9    H     H_    0.164241 0.272604 0.710889 0.086256
O16   O     O_2   0.057483 0.158284 0.566110 -0.467279
O17   O     O_3   0.034621 0.464919 0.151765 -0.654829
H10   H     H_    0.092406 0.455134 0.116950 0.367568
O18   O     O_3   0.063168 0.247071 0.262993 -0.646009
H11   H     H_    0.121940 0.259243 0.234394 0.321139
C23   C     C_2   0.900516 0.203591 0.331389 0.582627
H12   H     H_    0.847975 0.184290 0.403962 0.081172
O19   O     O_2   0.924438 0.086475 0.235687 -0.432915
C24   C     C_2   0.869889 0.389599 0.156501 0.549401
H13   H     H_    0.819287 0.468106 0.167032 0.058427
O20   O     O_2   0.870035 0.300343 0.007885 -0.457873
O21   O     O_3   0.102039 0.784107 0.668518 -0.669621
H14   H     H_    0.073945 0.785967 0.776204 0.385755
C25   C     C_2   0.083615 0.772254 0.365178 0.687095
H15   H     H_    0.056152 0.880948 0.350639 0.163721
O22   O     O_2   0.142174 0.732684 0.280781 -0.520494
C26   C     C_2   0.926850 0.803138 0.658886 0.331653
H16   H     H_    0.880465 0.772969 0.740974 0.151465
O23   O     O_2   0.953361 0.942334 0.686350 -0.446821

loop_
_geom_bond_atom_site_label_1
_geom_bond_atom_site_label_2
_geom_bond_distance
_ccdc_geom_bond_type
O4    Cu2   1.933097 S    
C9    C13   1.602926 S    
C3    C18   1.432313 S    
O21   H14   0.980398 S    
C23   O19   1.221968 D    
C20   H6    1.085300 S    
C17   C20   1.492731 S    
C5    O10   1.416043 S    
O15   H8    0.989796 S    
Cu2   O8    1.917470 S    
Cu2   N1    2.045146 S    
O9    H2    0.991830 S    
C10   C11   1.594728 S    
C22   O16   1.218435 D    
C1    C17   1.436931 S    
O2    C1    1.299173 A    
Cu1   Cu2   2.721887 S    
N2    O15   1.338470 S    
C11   C12   1.626274 S    
C25   H15   1.083902 S    
Cu1   O7    1.933097 S    
C20   O13   1.221610 D    
C7    C23   1.541510 S    
N1    C21   1.422966 S    
C2    C16   1.417469 S    
C7    C24   1.533189 S    
O3    Cu1   1.917468 S    
C8    C14   1.196954 T    
O4    C2    1.299391 A    
Cu2   O6    1.955278 S    
O11   H4    0.981139 S    
C19   O12   1.218890 D    
O8    C4    1.307116 A    
O10   H3    0.992128 S    
C5    C22   1.543580 S    
C6    C9    1.609161 S    
N1    N2    1.311253 D    
C9    C15   1.473628 S    
O7    C4    1.299926 A    
C6    O18   1.415735 S    
C12   C26   1.532875 S    
C24   O20   1.217672 D    
Cu1   N2    2.045145 S    
C23   H12   1.085124 S    
C26   H16   1.084213 S    
C10   O11   1.414266 S    
C13   C25   1.532022 S    
C24   H13   1.082028 S    
C19   H5    1.088322 S    
O17   H10   0.991073 S    
O3    C2    1.307331 A    
C22   H9    1.086100 S    
C10   O9    1.403291 S    
C11   C14   1.476012 S    
O2    Cu2   1.951490 S    
C17   C18   1.344917 D    
Cu1   O5    1.951490 S    
O5    C3    1.302237 A    
C12   C13   1.629986 S    
C18   H1    1.087689 S    
O1    Cu1   1.955278 S    
O18   H11   0.991268 S    
C26   O23   1.221243 D    
C15   C16   1.197009 T    
C5    C9    1.603811 S    
C4    C8    1.418393 S    
C12   C19   1.540962 S    
C13   O21   1.417514 S    
C7    C11   1.609791 S    
C21   H7    1.064624 S    
C6    O17   1.409940 S    
C6    C7    1.606168 S    
C21   O14   1.219359 D    
C5    C10   1.606053 S    
O1    C1    1.301479 A    
O6    C3    1.297257 A    
C25   O22   1.220581 D    
