data_mof_unit_54272.cif
_audit_creation_date              2013-03-05T15:41:55-0500
_audit_creation_method            fapswitch 2.2
_symmetry_space_group_name_H-M    P1
_symmetry_Int_Tables_number       1
_space_group_crystal_system       triclinic
_cell_length_a                    19.448528
_cell_length_b                    7.25478
_cell_length_c                    17.721642
_cell_angle_alpha                 89.980242
_cell_angle_beta                  107.509753
_cell_angle_gamma                 89.824911
_cell_volume                      2384.56254913

loop_
_atom_site_label
_atom_site_type_symbol
_atom_site_description
_atom_site_fract_x
_atom_site_fract_y
_atom_site_fract_z
_atom_type_partial_charge
O1    O     O_R   0.414820 0.494320 0.416790 -0.543861
O2    O     O_R   0.585180 0.994320 0.583210 -0.554060
O3    O     O_R   0.560270 0.819500 0.430140 -0.558260
O4    O     O_R   0.439730 0.319500 0.569860 -0.563786
C1    C     C_R   0.581092 0.655268 0.414693 0.859750
C2    C     C_R   0.418648 0.155711 0.584989 0.817748
O5    O     O_R   0.413840 0.823740 0.407440 -0.544705
O6    O     O_R   0.586160 0.323740 0.592560 -0.507787
O7    O     O_R   0.437710 0.998590 0.560350 -0.568064
O8    O     O_R   0.562290 0.498590 0.439650 -0.560254
C3    C     C_R   0.387272 0.655683 0.386210 0.907124
C4    C     C_R   0.611490 0.155040 0.616146 0.813739
O9    O     O_3   0.508000 0.662290 0.550200 -0.272542
O10   O     O_3   0.492000 0.162290 0.449800 -0.275895
V1    V     V_3+5 0.498520 0.935380 0.490690 1.199899
V2    V     V_3+5 0.501480 0.435380 0.509310 1.217081
C5    C     C_2   0.781435 0.264313 0.795445 -0.068908
C6    C     C_2   0.218662 0.760615 0.207806 -0.123448
C7    C     C_2   0.824923 0.115596 0.813802 -0.225000
C8    C     C_2   0.184824 0.607387 0.173240 -0.223964
H1    H     H_    0.794716 0.385437 0.833025 0.128748
H2    H     H_    0.193379 0.894126 0.190662 0.133559
H3    H     H_    0.815508 0.996324 0.775315 0.119256
H4    H     H_    0.212535 0.475851 0.185521 0.108406
C9    C     C_2   0.718130 0.282410 0.722887 0.372959
C10   C     C_2   0.294332 0.757084 0.261783 0.315709
C11   C     C_2   0.674030 0.139053 0.690015 -0.122175
C12   C     C_2   0.315008 0.645347 0.327134 -0.070863
C13   C     C_R   0.319915 0.293980 0.630400 -0.088464
C14   C     C_R   0.678113 0.497489 0.372131 -0.095581
C15   C     C_R   0.368908 0.149073 0.633991 -0.116243
C16   C     C_R   0.630414 0.646705 0.365185 -0.097802
C17   C     C_R   0.370065 0.999173 0.684353 -0.080177
C18   C     C_R   0.630943 0.789359 0.311923 -0.073693
C19   C     C_R   0.323937 0.995093 0.731943 -0.002403
C20   C     C_R   0.678236 0.783814 0.265839 0.004711
C21   C     C_R   0.274311 0.140176 0.727720 0.013113
C22   C     C_R   0.727218 0.635812 0.274081 0.025437
C23   C     C_R   0.271665 0.290219 0.675949 0.068393
C24   C     C_R   0.727383 0.490889 0.327725 0.025180
C25   C     C_R   0.327516 0.848404 0.784288 -0.118896
C26   C     C_R   0.677026 0.925214 0.211772 -0.111072
C27   C     C_R   0.282604 0.842413 0.833094 0.331426
C28   C     C_R   0.724044 0.924004 0.165355 0.335036
C29   C     C_R   0.230483 0.983563 0.827067 -0.030455
C30   C     C_R   0.774031 0.776699 0.173363 -0.029423
C31   C     C_R   0.227204 0.134145 0.774851 -0.015368
C32   C     C_R   0.775676 0.632948 0.228451 -0.034823
C33   C     C_R   0.176630 0.278188 0.769539 0.098185
C34   C     C_R   0.825293 0.485429 0.237341 0.079723
C35   C     C_R   0.173120 0.426534 0.716826 0.128747
C36   C     C_R   0.826111 0.342064 0.291504 0.170629
C37   C     C_R   0.220662 0.432560 0.670042 0.110953
C38   C     C_R   0.777086 0.343571 0.336042 0.096284
C39   C     C_R   0.180414 0.975900 0.870302 -0.052674
C40   C     C_R   0.820919 0.766107 0.126332 -0.053116
C41   C     C_R   0.131038 0.119686 0.866545 -0.129571
C42   C     C_R   0.870674 0.621310 0.135346 -0.133738
C43   C     C_R   0.130050 0.270719 0.816886 -0.065625
C44   C     C_R   0.872885 0.482875 0.191196 -0.024679
H5    H     H_    0.318884 0.408370 0.590758 0.119379
H6    H     H_    0.677403 0.388996 0.413779 0.087355
H7    H     H_    0.407998 0.887328 0.687712 0.097582
H8    H     H_    0.593894 0.904374 0.305714 0.117189
H9    H     H_    0.366721 0.739297 0.788524 0.133134
H10   H     H_    0.639624 0.039217 0.206145 0.130930
H11   H     H_    0.179321 0.858418 0.907441 0.146185
H12   H     H_    0.817989 0.866592 0.080513 0.153220
H13   H     H_    0.091474 0.380478 0.814094 0.118090
H14   H     H_    0.911592 0.371745 0.197869 0.120512
O11   O     O_R   0.937810 0.773680 0.060480 -0.555622
O12   O     O_R   0.062190 0.273680 0.939520 -0.549794
O13   O     O_R   0.086190 0.439740 0.092580 -0.558556
O14   O     O_R   0.913810 0.939740 0.907420 -0.549856
C45   C     C_R   0.113328 0.607368 0.112897 0.842487
C46   C     C_R   0.888425 0.108565 0.884846 0.842636
O15   O     O_R   0.939760 0.444210 0.069890 -0.547900
O16   O     O_R   0.060240 0.944210 0.930110 -0.563739
O17   O     O_R   0.914790 0.269640 0.916760 -0.554497
O18   O     O_R   0.085210 0.769640 0.083240 -0.554334
C47   C     C_R   0.919394 0.612647 0.085121 0.808176
C48   C     C_R   0.080939 0.112269 0.915231 0.815953
O19   O     O_3   0.992050 0.601530 0.949880 -0.285579
O20   O     O_3   0.007950 0.101530 0.050120 -0.284948
V3    V     V_3+5 0.001480 0.328340 0.009300 1.173505
V4    V     V_3+5 0.998520 0.828340 0.990700 1.167892
N1    N     N_3   0.120519 0.569757 0.710471 -0.510895
H15   H     H_    0.086691 0.574760 0.652193 0.172139
H16   H     H_    0.147018 0.695922 0.724216 0.170868
N2    N     N_3   0.877090 0.193689 0.301250 -0.496418
H17   H     H_    0.908969 0.190615 0.360417 0.182044
H18   H     H_    0.848737 0.069675 0.288784 0.198482
N3    N     N_3   0.216469 0.581075 0.615202 -0.514847
H19   H     H_    0.224107 0.705755 0.645964 0.173989
H20   H     H_    0.165121 0.581675 0.573988 0.172463
N4    N     N_3   0.779251 0.193621 0.389605 -0.512913
H21   H     H_    0.790369 0.246132 0.446936 0.183709
H22   H     H_    0.728876 0.129484 0.373683 0.175638
N5    N     N_R   0.701946 0.465254 0.692573 0.074754
O21   O     O_R   0.748825 0.553553 0.667295 -0.407282
O22   O     O_R   0.650373 0.556319 0.708670 -0.364789
N6    N     N_R   0.344937 0.880745 0.243303 0.106325
O23   O     O_R   0.322515 0.036569 0.207870 -0.332543
O24   O     O_R   0.410052 0.825202 0.249123 -0.344638
N7    N     N_3   0.685666 0.963574 0.728966 -0.487020
H23   H     H_    0.637921 0.924169 0.740010 0.231424
H24   H     H_    0.697057 0.869501 0.689841 0.269793
N8    N     N_3   0.265047 0.523289 0.347376 -0.523675
H25   H     H_    0.255924 0.408143 0.310502 0.204320
H26   H     H_    0.216616 0.592197 0.342585 0.169966
N9    N     N_R   0.292377 0.695015 0.889705 0.087274
O25   O     O_R   0.299139 0.731953 0.963436 -0.308759
O26   O     O_R   0.309551 0.530878 0.871703 -0.355714
N10   N     N_R   0.720008 0.074077 0.111073 0.081679
O27   O     O_R   0.778136 0.159874 0.109393 -0.392896
O28   O     O_R   0.657672 0.145533 0.073366 -0.316296

loop_
_geom_bond_atom_site_label_1
_geom_bond_atom_site_label_2
_geom_bond_distance
_ccdc_geom_bond_type
C14   C16   1.404511 A    
N1    H15   1.044872 S    
N3    H19   1.043961 S    
O13   C45   1.333036 A    
C36   N2    1.435908 S    
N9    O25   1.301327 A    
O1    C3    1.331235 A    
C46   O17   1.333397 A    
O2    C4    1.336574 A    
C2    O7    1.312473 A    
N10   O27   1.300335 A    
C31   C33   1.416430 A    
O5    C3    1.334993 A    
N7    H24   1.042812 S    
O14   C46   1.334541 A    
C7    C46   1.475440 S    
C19   C21   1.412534 A    
C32   C34   1.415440 A    
C41   C43   1.401595 A    
C11   N7    1.432486 S    
C42   C44   1.401278 A    
N8    H25   1.042995 S    
N3    H20   1.044898 S    
O18   V4    2.011156 S    
C17   C19   1.404426 A    
C6    C10   1.494702 S    
C20   C26   1.398760 A    
C9    N5    1.429150 S    
C8    H4    1.083778 S    
C28   C30   1.420500 A    
C33   C35   1.412814 A    
N4    H22   1.045228 S    
C34   C36   1.411868 A    
C15   C17   1.402421 A    
O15   C47   1.335878 A    
C40   C42   1.402148 A    
C21   C31   1.414052 A    
C45   O18   1.335614 A    
C22   C32   1.414558 A    
C17   H7    1.084465 S    
C1    C16   1.483197 S    
O16   V4    2.020289 S    
O5    V1    2.022814 S    
C2    C15   1.482562 S    
C28   N10   1.438830 S    
O6    V2    2.018372 S    
C25   C27   1.402756 A    
C26   C28   1.401961 A    
C36   C38   1.408893 A    
O12   V3    1.989129 S    
C30   C32   1.421969 A    
C29   C31   1.420256 A    
C13   H5    1.083356 S    
C4    C11   1.499164 S    
C37   N3    1.436354 S    
O20   V3    1.786002 S    
O4    C2    1.311811 A    
C42   C47   1.483622 S    
C35   N1    1.436299 S    
C25   H9    1.084158 S    
C40   H12   1.079593 S    
C5    H1    1.086603 S    
C8    C45   1.477262 S    
N10   O28   1.301339 A    
C35   C37   1.416234 A    
C16   C18   1.402625 A    
O4    V2    2.020255 S    
C7    H3    1.083365 S    
O11   V4    1.990397 S    
O16   C48   1.335949 A    
N2    H18   1.045080 S    
N5    O21   1.300552 A    
O10   V1    1.787094 S    
C44   H14   1.083203 S    
O6    C4    1.336911 A    
N4    H21   1.045333 S    
C13   C23   1.410255 A    
C18   H8    1.084485 S    
C14   C24   1.411844 A    
N9    O26   1.301246 A    
O1    V2    2.010976 S    
O14   V4    2.018284 S    
N6    O24   1.301914 A    
O2    V1    2.013405 S    
C27   C29   1.419852 A    
O13   V3    2.022718 S    
C43   H13   1.083219 S    
N5    O22   1.300815 A    
C24   C38   1.416412 A    
C14   H6    1.081787 S    
O17   V3    2.013576 S    
O3    V1    2.017508 S    
C6    H2    1.085933 S    
C38   N4    1.435682 S    
O3    C1    1.312435 A    
C39   H11   1.080832 S    
C9    C11   1.364495 D    
N7    H23   1.045570 S    
C10   C12   1.370105 D    
C33   C43   1.409006 A    
C5    C9    1.494226 S    
C39   C41   1.403604 A    
O7    V1    2.002139 S    
C34   C44   1.407550 A    
C1    O8    1.311807 A    
C21   C23   1.414169 A    
O8    V2    2.003599 S    
C10   N6    1.442191 S    
C22   C24   1.416556 A    
N2    H17   1.045488 S    
C23   C37   1.411537 A    
C3    C12   1.480609 S    
C12   N8    1.439354 S    
C20   C22   1.411254 A    
C5    C7    1.346790 D    
C18   C20   1.402278 A    
N8    H26   1.045604 S    
C6    C8    1.344036 D    
N6    O23   1.301590 A    
C19   C25   1.399247 A    
O15   V3    2.017544 S    
C27   N9    1.438532 S    
O19   V4    1.787170 S    
C29   C39   1.409827 A    
C13   C15   1.405165 A    
O9    V2    1.788268 S    
C30   C40   1.410353 A    
C26   H10   1.084312 S    
N1    H16   1.044125 S    
C41   C48   1.484187 S    
O12   C48   1.334789 A    
O11   C47   1.334209 A    
