data_mof_unit_58217.cif
_audit_creation_date              2012-12-10T20:31:04-0500
_audit_creation_method            fapswitch 2.2
_symmetry_space_group_name_H-M    P1
_symmetry_Int_Tables_number       1
_space_group_crystal_system       triclinic
_cell_length_a                    14.879876
_cell_length_b                    10.752235
_cell_length_c                    9.892046
_cell_angle_alpha                 89.4124
_cell_angle_beta                  88.289162
_cell_angle_gamma                 89.942636
_cell_volume                      1581.85839813

loop_
_atom_site_label
_atom_site_type_symbol
_atom_type_description
_atom_site_fract_x
_atom_site_fract_y
_atom_site_fract_z
_atom_type_partial_charge
C1    C     C_R   0.502028 0.260790 0.500617 0.873154
C2    C     C_R   0.185354 0.406230 0.565879 -0.272490
C3    C     C_R   0.231580 0.505738 0.506343 -0.069011
C4    C     C_R   0.327045 0.502362 0.501813 0.865991
C5    C     C_R   0.187444 0.607754 0.450750 -0.241571
C6    C     C_R   0.495230 0.060428 0.617357 -0.088370
C7    C     C_R   0.507566 0.129964 0.500132 -0.084376
C8    C     C_R   0.526254 0.068730 0.377842 -0.242054
C9    C     C_R   0.527451 0.939815 0.373750 -0.021034
C10   C     C_R   0.510173 0.870983 0.495312 -0.157886
C11   C     C_R   0.495760 0.935748 0.614572 -0.118241
C12   C     C_R   0.906722 0.604198 0.446307 0.049559
C13   C     C_3   0.490777 0.923717 0.767677 0.943777
C14   C     C_3   0.484262 0.068337 0.768026 -0.336350
C15   C     C_R   0.422342 0.478851 0.074599 0.149445
C16   C     C_R   0.504672 0.739285 0.498646 0.843537
C17   C     C_R   0.574446 0.533875 0.065732 0.032208
C18   C     C_R   0.574470 0.531181 0.922885 -0.074513
C19   C     C_R   0.421849 0.482780 0.932325 0.166977
C20   C     C_3   0.361376 0.373484 0.926282 -0.609752
C21   C     C_3   0.364762 0.364603 0.080157 0.301659
C22   C     C_R   0.672898 0.498497 0.498513 0.862533
C23   C     C_R   0.951895 0.300949 0.618352 -0.224361
C24   C     C_R   0.813887 0.600589 0.443003 -0.207879
C25   C     C_R   0.768218 0.497913 0.496370 -0.041391
C26   C     C_R   0.812766 0.398523 0.555914 -0.266433
C27   C     C_R   0.905729 0.400405 0.560174 0.150284
C28   C     C_R   0.953064 0.503997 0.505069 0.051185
C29   C     C_1   0.547122 0.884489 0.243587 0.191822
C30   C     C_3   0.339047 0.840908 0.750466 0.102260
C31   C     C_3   0.272851 0.949640 0.741294 -0.424246
C32   C     C_3   0.181976 0.906182 0.692321 -0.959838
C33   C     C_3   0.654449 0.906393 0.773350 0.035425
C34   C     C_R   0.045143 0.303246 0.621079 -0.234801
C35   C     C_3   0.713261 0.791602 0.751206 -0.311136
C36   C     C_3   0.807322 0.826965 0.698218 -0.985119
C37   C     C_1   0.556201 0.138046 0.832482 0.237421
C38   C     C_1   0.655480 0.577175 0.124166 0.235200
C39   C     C_3   0.362434 0.150808 0.120476 0.103637
C40   C     C_3   0.312474 0.127280 0.256246 -0.387961
C41   C     C_3   0.290578 0.989564 0.277121 -0.891471
C42   C     C_3   0.057655 0.931157 0.385269 0.056385
C43   C     C_3   0.023307 0.001490 0.261702 -0.341707
C44   C     C_3   0.988745 0.130550 0.299922 -0.940437
C45   C     C_R   0.092476 0.405084 0.565810 0.155827
C46   C     C_R   0.046448 0.506856 0.507999 -0.009149
C47   C     C_R   0.093899 0.610645 0.452403 0.020897
C48   C     C_R   0.047140 0.714063 0.399870 0.484632
C49   C     C_R   0.953158 0.707123 0.393348 -0.332837
H1    H     H_    0.776781 0.679081 0.403265 0.151062
H2    H     H_    0.222024 0.328628 0.608749 0.132268
H3    H     H_    0.226497 0.684172 0.407225 0.179251
H4    H     H_    0.915882 0.781788 0.346814 0.158108
H5    H     H_    0.539369 0.120894 0.284873 0.203690
H6    H     H_    0.303774 0.761281 0.801005 0.185274
H7    H     H_    0.358048 0.807163 0.648466 0.128094
H8    H     H_    0.262982 0.992686 0.842360 0.233476
H9    H     H_    0.300126 0.020925 0.669153 0.211554
H10   H     H_    0.190671 0.858789 0.593674 0.273478
H11   H     H_    0.136802 0.987508 0.680148 0.251020
H12   H     H_    0.416820 0.103309 0.798664 0.128707
H13   H     H_    0.150167 0.840626 0.766867 0.273865
H14   H     H_    0.687151 0.964777 0.849653 0.174774
H15   H     H_    0.653546 0.960842 0.677602 0.133728
H16   H     H_    0.719256 0.740581 0.848736 0.227627
H17   H     H_    0.681501 0.729793 0.677305 0.234229
H18   H     H_    0.803893 0.871214 0.596505 0.259656
H19   H     H_    0.849631 0.742136 0.690372 0.279836
H20   H     H_    0.839466 0.892232 0.768418 0.265592
H21   H     H_    0.410129 0.073268 0.099676 0.189800
H22   H     H_    0.313987 0.150230 0.036618 0.108831
H23   H     H_    0.634879 0.553867 0.864561 0.139809
H24   H     H_    0.354072 0.158400 0.340514 0.247189
H25   H     H_    0.249123 0.182141 0.260304 0.199714
H26   H     H_    0.240600 0.959309 0.203184 0.279648
H27   H     H_    0.263305 0.973995 0.381378 0.261665
H28   H     H_    0.351911 0.931624 0.264666 0.268852
H29   H     H_    0.111837 0.987482 0.428517 0.168374
H30   H     H_    0.004228 0.924965 0.466653 0.130910
H31   H     H_    0.078765 0.011673 0.184669 0.230128
H32   H     H_    0.968253 0.948457 0.215710 0.217862
H33   H     H_    0.932579 0.122976 0.376098 0.266337
H34   H     H_    0.293861 0.399462 0.889951 0.174100
H35   H     H_    0.963820 0.178896 0.208665 0.267979
H36   H     H_    0.043723 0.186899 0.341804 0.271010
H37   H     H_    0.393786 0.295432 0.871743 0.223982
H38   H     H_    0.299373 0.379864 0.135248 0.086212
H39   H     H_    0.774898 0.320458 0.598441 0.140335
H40   H     H_    0.915974 0.221282 0.660665 0.145948
H41   H     H_    0.080288 0.225160 0.665282 0.142558
N1    N     N_R   0.499390 0.499140 0.142800 -0.112682
N2    N     N_R   0.499390 0.499180 0.857150 -0.095210
N3    N     N_1   0.562557 0.841503 0.138709 -0.149882
N4    N     N_1   0.612095 0.194035 0.883371 -0.211465
N5    N     N_1   0.722028 0.613629 0.166316 -0.223995
O1    O     O_R   0.500010 0.316790 0.614690 -0.615093
O2    O     O_3   0.568619 0.869548 0.827152 -0.619071
O3    O     O_3   0.414405 0.260767 0.125003 -0.600974
O4    O     O_3   0.095073 0.814994 0.345470 -0.657805
O5    O     O_R   0.500000 0.316760 0.385350 -0.589362
O6    O     O_R   0.367850 0.499990 0.614680 -0.620679
O7    O     O_R   0.367840 0.499950 0.385340 -0.622975
O8    O     O_R   0.500000 0.683240 0.614650 -0.603337
O9    O     O_R   0.499990 0.683210 0.385310 -0.618678
O10   O     O_R   0.632160 0.500050 0.614660 -0.638877
O11   O     O_R   0.632150 0.500010 0.385320 -0.612153
O12   O     O_3   0.412347 0.870777 0.832636 -0.647862
Zn1   Zn    Zn3+2 0.500010 0.500020 0.653130 0.964367
Zn2   Zn    Zn3+2 0.499990 0.499980 0.346870 0.989798

loop_
_geom_bond_atom_site_label_1
_geom_bond_atom_site_label_2
_ccdc_geom_bond_type
C21   H38   S    
C30   O12   S    
C35   C36   S    
C17   N1    A    
C13   O12   S    
C12   C49   A    
C36   H18   S    
C7    C8    A    
C45   C46   A    
C15   C19   A    
C5    C47   A    
C28   C46   A    
C26   C27   A    
C12   C28   A    
C31   H9    S    
C44   H33   S    
C1    O1    A    
C41   H28   S    
C30   C31   S    
C41   H26   S    
C35   H16   S    
C40   H24   S    
C19   N2    A    
C16   O9    A    
C31   C32   S    
C8    C9    A    
C22   C25   S    
C20   H37   S    
C38   N5    T    
C23   H40   S    
C5    H3    S    
O8    Zn1   S    
C23   C27   A    
C9    C10   A    
C9    C29   S    
O6    Zn1   S    
O1    Zn1   S    
O5    Zn2   S    
C13   C14   S    
C18   H23   S    
C1    O5    A    
N2    Zn1   S    
C2    C45   A    
C24   H1    S    
O10   Zn1   S    
C42   H30   S    
C24   C25   A    
C10   C11   A    
C8    H5    S    
C39   C40   S    
C39   O3    S    
C35   H17   S    
C44   H35   S    
C43   H31   S    
C22   O11   A    
C14   H12   S    
C30   H7    S    
C4    O7    A    
C43   C44   S    
C34   H41   S    
C6    C14   S    
C16   O8    A    
C47   C48   A    
C33   H14   S    
C23   C34   A    
C4    O6    A    
C17   C18   A    
C34   C45   A    
C48   C49   A    
C42   H29   S    
C43   H32   S    
C42   C43   S    
C32   H11   S    
C3    C4    S    
C6    C11   A    
C36   H20   S    
C48   O4    S    
C46   C47   A    
C40   C41   S    
C1    C7    S    
C3    C5    A    
C36   H19   S    
C6    C7    A    
C22   O10   A    
C30   H6    S    
C12   C24   A    
C18   N2    A    
N1    Zn2   S    
C19   C20   S    
C2    C3    A    
C25   C26   A    
C32   H13   S    
C10   C16   S    
C42   O4    S    
C14   C37   S    
C29   N3    T    
C21   O3    S    
C11   C13   S    
C31   H8    S    
O9    Zn2   S    
C33   H15   S    
C49   H4    S    
C33   C35   S    
C39   H21   S    
C40   H25   S    
C37   N4    T    
C33   O2    S    
C17   C38   S    
C13   O2    S    
C2    H2    S    
C15   N1    A    
C15   C21   S    
C20   C21   S    
C26   H39   S    
C20   H34   S    
C27   C28   A    
C39   H22   S    
O7    Zn2   S    
C32   H10   S    
C44   H36   S    
C41   H27   S    
O11   Zn2   S    
