data_mof_unit_17583.cif
_audit_creation_date              2013-03-05T15:40:27-0500
_audit_creation_method            fapswitch 2.2
_symmetry_space_group_name_H-M    P1
_symmetry_Int_Tables_number       1
_space_group_crystal_system       triclinic
_cell_length_a                    19.056144
_cell_length_b                    11.099011
_cell_length_c                    18.840717
_cell_angle_alpha                 89.863216
_cell_angle_beta                  90.089193
_cell_angle_gamma                 89.964076
_cell_volume                      3984.8766613

loop_
_atom_site_label
_atom_site_type_symbol
_atom_site_description
_atom_site_fract_x
_atom_site_fract_y
_atom_site_fract_z
_atom_type_partial_charge
O1    O     O_R   0.215090 0.709860 0.828130 -0.461106
O2    O     O_R   0.784910 0.709860 0.171870 -0.456135
O3    O     O_R   0.715090 0.209860 0.828130 -0.466769
O4    O     O_R   0.284910 0.209860 0.171870 -0.456813
O5    O     O_R   0.236990 0.958390 0.823710 -0.518067
O6    O     O_R   0.763010 0.958390 0.176290 -0.514231
O7    O     O_R   0.736990 0.458390 0.823710 -0.525299
O8    O     O_R   0.263010 0.458390 0.176290 -0.508334
C1    C     C_R   0.271920 0.042305 0.852651 0.571998
C2    C     C_R   0.728162 0.042546 0.147440 0.565614
C3    C     C_R   0.771828 0.542639 0.852517 0.552683
C4    C     C_R   0.228046 0.542358 0.147306 0.582538
O9    O     O_R   0.332380 0.074750 0.830850 -0.448892
O10   O     O_R   0.667620 0.074750 0.169150 -0.451900
O11   O     O_R   0.832380 0.574750 0.830850 -0.450270
O12   O     O_R   0.167620 0.574750 0.169150 -0.442356
O13   O     O_R   0.445800 0.917770 0.825070 -0.474936
O14   O     O_R   0.554200 0.917770 0.174930 -0.466771
O15   O     O_R   0.945800 0.417770 0.825070 -0.476083
O16   O     O_R   0.054200 0.417770 0.174930 -0.476022
C5    C     C_R   0.471901 0.821826 0.853403 0.599868
C6    C     C_R   0.528160 0.822055 0.146518 0.614180
C7    C     C_R   0.971845 0.321850 0.853451 0.598061
C8    C     C_R   0.028088 0.322060 0.146557 0.591507
O17   O     O_R   0.456410 0.716580 0.829970 -0.436051
O18   O     O_R   0.543590 0.716580 0.170030 -0.427302
O19   O     O_R   0.956410 0.216580 0.829970 -0.436399
O20   O     O_R   0.043590 0.216580 0.170030 -0.432931
O21   O     O_R   0.321080 0.625290 0.822650 -0.458056
O22   O     O_R   0.678920 0.625290 0.177350 -0.454259
O23   O     O_R   0.821080 0.125290 0.822650 -0.458910
O24   O     O_R   0.178920 0.125290 0.177350 -0.450794
C9    C     C_R   0.260938 0.636109 0.851206 0.599528
C10   C     C_R   0.738994 0.636447 0.148678 0.599945
C11   C     C_R   0.760896 0.135961 0.851167 0.565913
C12   C     C_R   0.239049 0.136332 0.148769 0.601042
O25   O     O_R   0.214930 0.711450 0.668160 -0.471679
O26   O     O_R   0.785070 0.711450 0.331840 -0.452056
O27   O     O_R   0.714930 0.211450 0.668160 -0.461029
O28   O     O_R   0.285070 0.211450 0.331840 -0.464557
O29   O     O_R   0.236850 0.959870 0.675420 -0.446052
O30   O     O_R   0.763150 0.959870 0.324580 -0.458863
O31   O     O_R   0.736850 0.459870 0.675420 -0.449558
O32   O     O_R   0.263150 0.459870 0.324580 -0.461471
C13   C     C_R   0.271976 0.046938 0.649189 0.615401
C14   C     C_R   0.728896 0.048223 0.349493 0.576465
C15   C     C_R   0.772878 0.545602 0.649076 0.613510
C16   C     C_R   0.207926 0.496477 0.359045 0.562528
O33   O     O_R   0.332230 0.076350 0.670880 -0.468170
O34   O     O_R   0.667770 0.076350 0.329120 -0.449393
O35   O     O_R   0.832230 0.576350 0.670880 -0.448268
O36   O     O_R   0.167770 0.576350 0.329120 -0.395938
O37   O     O_R   0.445660 0.919250 0.676780 -0.472154
O38   O     O_R   0.554340 0.919250 0.323220 -0.440945
O39   O     O_R   0.945660 0.419250 0.676780 -0.460268
O40   O     O_R   0.054340 0.419250 0.323220 -0.472002
C17   C     C_R   0.473846 0.823413 0.651105 0.614594
C18   C     C_R   0.562820 0.818626 0.358652 0.562985
C19   C     C_R   0.971427 0.323993 0.648555 0.620956
C20   C     C_R   0.028146 0.322323 0.351335 0.563638
O41   O     O_R   0.456260 0.718170 0.670000 -0.413401
O42   O     O_R   0.543740 0.718170 0.330000 -0.421206
O43   O     O_R   0.956260 0.218170 0.670000 -0.417663
O44   O     O_R   0.043740 0.218170 0.330000 -0.437000
O45   O     O_R   0.320940 0.626760 0.674370 -0.435864
O46   O     O_R   0.679060 0.626760 0.325630 -0.492179
O47   O     O_R   0.820940 0.126760 0.674370 -0.467002
O48   O     O_R   0.179060 0.126760 0.325630 -0.464795
C21   C     C_R   0.259889 0.638392 0.646280 0.648802
C22   C     C_R   0.738779 0.640506 0.354001 0.598136
C23   C     C_R   0.758133 0.130480 0.650924 0.623792
C24   C     C_R   0.240729 0.133201 0.351264 0.568627
Cr1   Cr    Cr6+3 0.230530 0.836340 0.748870 1.182848
Cr2   Cr    Cr6+3 0.769470 0.836340 0.251130 1.183254
Cr3   Cr    Cr6+3 0.730530 0.336340 0.748870 1.180428
Cr4   Cr    Cr6+3 0.269470 0.336340 0.251130 1.185068
Cr5   Cr    Cr6+3 0.387420 0.989430 0.750820 1.179717
Cr6   Cr    Cr6+3 0.612580 0.989430 0.249180 1.192717
Cr7   Cr    Cr6+3 0.887420 0.489430 0.750820 1.185155
Cr8   Cr    Cr6+3 0.112580 0.489430 0.249180 1.196271
Cr9   Cr    Cr6+3 0.385640 0.677860 0.749230 1.226293
Cr10  Cr    Cr6+3 0.614360 0.677860 0.250770 1.211605
Cr11  Cr    Cr6+3 0.885640 0.177860 0.749230 1.210940
Cr12  Cr    Cr6+3 0.114360 0.177860 0.250770 1.220155
O49   O     O_3   0.334530 0.834540 0.749640 -0.334798
O50   O     O_3   0.665470 0.834540 0.250360 -0.369895
O51   O     O_3   0.834530 0.334540 0.749640 -0.337068
O52   O     O_3   0.165470 0.334540 0.250360 -0.371305
C25   C     C_R   0.495122 0.830434 0.074733 -0.015364
C26   C     C_R   0.505195 0.829825 0.925026 -0.011577
C27   C     C_R   0.994736 0.330459 0.074891 0.028644
C28   C     C_R   0.004936 0.329967 0.925177 -0.010648
C29   C     C_R   0.493869 0.940991 0.036752 -0.122768
C30   C     C_R   0.507383 0.940556 0.962415 -0.119217
C31   C     C_R   0.993351 0.441035 0.036945 -0.101679
C32   C     C_R   0.006880 0.440712 0.962601 -0.121928
C33   C     C_R   0.507796 0.722571 0.964152 0.249141
C34   C     C_R   0.491865 0.722946 0.036111 0.247166
C35   C     C_R   0.007562 0.222716 0.964291 0.241990
C36   C     C_R   0.991460 0.223026 0.036230 0.282016
C37   C     C_R   0.476926 0.051434 0.069815 0.207730
C38   C     C_R   0.525232 0.050256 0.928704 0.209341
C39   C     C_R   0.976311 0.551376 0.070081 0.215874
C40   C     C_R   0.024465 0.550560 0.928912 0.207219
C41   C     C_R   0.986983 0.660122 0.033755 0.294832
C42   C     C_R   0.014214 0.659705 0.964643 0.298632
C43   C     C_R   0.487951 0.160097 0.033512 0.298642
C44   C     C_R   0.515397 0.159471 0.964490 0.297611
C45   C     C_2   0.248343 0.578789 0.919788 0.026018
C46   C     C_2   0.751266 0.580046 0.079815 0.035117
C47   C     C_2   0.748321 0.078671 0.919820 -0.019648
C48   C     C_2   0.251622 0.079257 0.080210 0.023725
C49   C     C_2   0.254602 0.589697 0.080792 0.184911
C50   C     C_2   0.745125 0.590974 0.918691 0.188423
C51   C     C_2   0.755284 0.090353 0.081288 0.205646
C52   C     C_2   0.245301 0.089835 0.919019 0.188254
C53   C     C_2   0.287395 0.513094 0.036478 -0.049818
C54   C     C_2   0.711245 0.515706 0.963025 -0.075796
C55   C     C_2   0.787195 0.013361 0.036569 -0.038433
C56   C     C_2   0.212480 0.013490 0.963614 -0.048029
C57   C     C_2   0.300653 0.537913 0.961508 0.290182
C58   C     C_2   0.698709 0.539657 0.038279 0.288389
C59   C     C_2   0.800715 0.038786 0.961750 0.274838
C60   C     C_2   0.199302 0.038441 0.038575 0.287032
H1    H     H_    0.302378 0.424209 0.055182 0.225143
H2    H     H_    0.694359 0.428545 0.943763 0.203986
H3    H     H_    0.800847 0.923529 0.054709 0.224020
H4    H     H_    0.197301 0.924794 0.945096 0.226970
H5    H     H_    0.195942 0.587328 0.941654 0.143616
H6    H     H_    0.803536 0.588844 0.057717 0.152810
H7    H     H_    0.695824 0.086443 0.941555 0.148751
H8    H     H_    0.304027 0.087619 0.058348 0.144624
C61   C     C_2   0.512288 0.832537 0.585294 -0.037100
C62   C     C_2   0.553751 0.824161 0.434592 -0.110758
C63   C     C_2   0.001549 0.335558 0.577853 -0.071903
C64   C     C_2   0.993608 0.325926 0.420648 -0.086510
C65   C     C_2   0.517097 0.741310 0.471250 0.218333
C66   C     C_2   0.527848 0.733387 0.547226 0.215677
C67   C     C_2   0.995992 0.227173 0.463521 0.215223
C68   C     C_2   0.016380 0.236479 0.539698 0.221829
H9    H     H_    0.588267 0.886266 0.462202 0.131213
H10   H     H_    0.507720 0.919304 0.558641 0.137654
H11   H     H_    0.987063 0.414570 0.442095 0.159175
H12   H     H_    0.988604 0.419619 0.552402 0.151661
C69   C     C_2   0.238199 0.568777 0.585753 0.193366
C70   C     C_2   0.749465 0.596203 0.423246 0.222985
C71   C     C_2   0.744822 0.083742 0.582218 0.289542
C72   C     C_2   0.258617 0.049493 0.407220 0.251354
C73   C     C_2   0.220510 0.519125 0.432674 -0.038824
C74   C     C_2   0.752300 0.599002 0.584119 -0.002877
C75   C     C_2   0.759634 0.108539 0.409036 0.001316
C76   C     C_2   0.259099 0.079867 0.577085 0.042613
C77   C     C_2   0.169697 0.557228 0.475917 0.226428
C78   C     C_2   0.800999 0.626107 0.536056 0.283781
C79   C     C_2   0.721829 0.149693 0.462648 0.293090
C80   C     C_2   0.295187 0.021323 0.526955 0.258115
C81   C     C_2   0.190205 0.616827 0.540274 0.271132
C82   C     C_2   0.777621 0.671510 0.471033 0.217007
C83   C     C_2   0.758570 0.160514 0.529069 0.245046
C84   C     C_2   0.303071 0.079828 0.459266 0.215953
H13   H     H_    0.274618 0.515642 0.450228 0.164338
H14   H     H_    0.697324 0.611703 0.572652 0.161674
H15   H     H_    0.815306 0.095600 0.416687 0.194414
H16   H     H_    0.234356 0.166039 0.566007 0.161913
Cl1   Cl    Cl    0.540711 0.590429 0.924715 -0.362343
Cl2   Cl    Cl    0.458407 0.591453 0.076176 -0.360915
Cl3   Cl    Cl    0.040960 0.090870 0.924900 -0.370429
Cl4   Cl    Cl    0.958312 0.091371 0.076368 -0.334857
Cl5   Cl    Cl    0.081760 0.578828 0.449217 -0.471714
Cl6   Cl    Cl    0.893003 0.605458 0.542404 -0.452521
Cl7   Cl    Cl    0.629466 0.169364 0.461779 -0.385322
Cl8   Cl    Cl    0.337767 0.882201 0.541288 -0.488936
Cl9   Cl    Cl    0.154998 0.765655 0.546472 -0.349724
Cl10  Cl    Cl    0.792905 0.827026 0.459693 -0.534021
Cl11  Cl    Cl    0.823628 0.274134 0.536471 -0.553891
Cl12  Cl    Cl    0.356038 0.211138 0.459621 -0.460260
Cl13  Cl    Cl    0.268179 0.418307 0.580883 -0.600035
Cl14  Cl    Cl    0.724604 0.446727 0.441022 -0.467951
Cl15  Cl    Cl    0.685482 0.962164 0.575815 -0.582743
Cl16  Cl    Cl    0.211563 0.912209 0.408726 -0.356675
Cl17  Cl    Cl    0.430747 0.054552 0.151420 -0.485846
Cl18  Cl    Cl    0.570807 0.051453 0.846720 -0.504311
Cl19  Cl    Cl    0.930440 0.554207 0.151868 -0.477353
Cl20  Cl    Cl    0.070337 0.552146 0.847098 -0.509461
Cl21  Cl    Cl    0.967480 0.797167 0.076037 -0.275122
Cl22  Cl    Cl    0.034127 0.796207 0.921561 -0.286228
Cl23  Cl    Cl    0.468468 0.297263 0.075650 -0.272944
Cl24  Cl    Cl    0.536021 0.295801 0.921580 -0.287542
Cl25  Cl    Cl    0.382874 0.493131 0.928400 -0.302175
Cl26  Cl    Cl    0.617085 0.493036 0.072151 -0.299482
Cl27  Cl    Cl    0.883044 0.994397 0.928815 -0.298485
Cl28  Cl    Cl    0.117089 0.993847 0.071873 -0.302643
S1    S     S_3+6 0.239257 0.741984 0.061446 0.000496
O53   O     O_2   0.168120 0.751699 0.027674 -0.241618
O54   O     O_2   0.239571 0.812648 0.129423 -0.229615
O55   O     O_3   0.300917 0.796482 0.006201 -0.600269
H17   H     H_    0.342674 0.809798 0.036487 0.361912
S2    S     S_3+6 0.761303 0.742959 0.937515 0.001693
O56   O     O_2   0.832275 0.751629 0.971703 -0.239117
O57   O     O_2   0.761740 0.813461 0.869284 -0.234650
O58   O     O_3   0.699480 0.798443 0.992116 -0.601581
H18   H     H_    0.657612 0.810268 0.961721 0.362357
S3    S     S_3+6 0.743219 0.244016 0.063450 0.014508
O59   O     O_2   0.675750 0.257545 0.023041 -0.292005
O60   O     O_2   0.737431 0.311105 0.132388 -0.201566
O61   O     O_3   0.811435 0.299586 0.016941 -0.545746
H19   H     H_    0.795857 0.302551 0.966877 0.313811
S4    S     S_3+6 0.260850 0.242038 0.937974 -0.002754
O62   O     O_2   0.331849 0.251269 0.972058 -0.239983
O63   O     O_2   0.260945 0.312730 0.869808 -0.238353
O64   O     O_3   0.199039 0.296958 0.992787 -0.602544
H20   H     H_    0.157191 0.309239 0.962429 0.360673
S5    S     S_3+6 0.446833 0.654278 0.435509 0.148480
O65   O     O_2   0.408464 0.724212 0.379072 -0.184383
O66   O     O_2   0.475660 0.540175 0.403919 -0.184061
O67   O     O_3   0.389785 0.619193 0.500264 -0.454351
H21   H     H_    0.386433 0.530218 0.499644 0.404995
S6    S     S_3+6 0.547682 0.588319 0.583559 0.082242
O68   O     O_2   0.588325 0.516583 0.530018 -0.215299
O69   O     O_2   0.590264 0.602685 0.650245 -0.288153
O70   O     O_3   0.474111 0.511521 0.603076 -0.431991
H22   H     H_    0.490566 0.432509 0.621137 0.388057
S7    S     S_3+6 0.971276 0.081882 0.430749 0.131374
O71   O     O_2   0.929190 0.093825 0.363549 -0.263172
O72   O     O_2   0.035582 0.008149 0.415060 -0.145246
O73   O     O_3   0.922567 0.010609 0.492176 -0.444126
H23   H     H_    0.935136 0.924331 0.487879 0.426225
S8    S     S_3+6 0.064630 0.116718 0.580076 0.089075
O74   O     O_2   0.114350 0.063753 0.526960 -0.236073
O75   O     O_2   0.105888 0.164201 0.642086 -0.293017
O76   O     O_3   0.010036 0.008248 0.608900 -0.420159
H24   H     H_    0.041132 0.944629 0.628319 0.391115

loop_
_geom_bond_atom_site_label_1
_geom_bond_atom_site_label_2
_geom_bond_distance
_ccdc_geom_bond_type
C18   O42   1.292090 A    
Cr11  O51   1.992666 S    
S3    O59   1.500451 D    
O4    C12   1.273031 A    
O47   Cr11  1.957128 S    
C29   C30   1.424467 A    
O39   C19   1.282388 A    
O20   Cr12  2.075388 S    
C21   C69   1.439251 S    
O58   H18   0.989845 S    
C41   C42   1.402464 A    
C23   C71   1.418244 S    
C31   C32   1.424647 A    
C28   C32   1.418957 A    
C71   C83   1.339568 D    
C62   C65   1.345273 D    
C40   C42   1.401023 A    
C33   C34   1.389821 A    
S7    O73   1.681260 S    
O1    C9    1.272250 A    
O27   Cr3   2.081179 S    
C33   Cl1   1.761262 S    
S5    O65   1.503539 D    
C18   C62   1.442884 S    
O7    C3    1.269551 A    
S3    O60   1.502850 D    
C78   Cl6   1.771822 S    
C61   H10   1.088400 S    
C76   C80   1.338506 D    
C39   Cl19  1.773119 S    
S7    O72   1.503249 D    
O24   C12   1.272657 A    
C45   C57   1.346347 D    
C48   C60   1.347012 D    
C64   H11   1.071781 S    
O25   C21   1.250314 A    
C54   C58   1.463150 S    
C52   S4    1.752787 S    
C52   C56   1.346851 D    
C67   S7    1.791178 S    
O21   C9    1.272567 A    
O8    Cr4   1.956662 S    
O23   Cr11  1.941602 S    
C70   Cl14  1.757228 S    
C69   Cl13  1.767391 S    
C72   C84   1.338600 D    
C41   Cl21  1.758508 S    
C17   O41   1.265846 A    
O32   Cr4   1.954157 S    
C3    C50   1.451208 S    
C73   C77   1.335611 D    
O44   Cr12  2.061112 S    
C1    O9    1.275581 A    
C3    O11   1.275308 A    
C82   Cl10  1.763208 S    
O11   Cr7   2.069024 S    
S7    O71   1.503223 D    
O28   Cr4   2.076088 S    
S4    O62   1.500381 D    
S1    O54   1.503403 D    
C51   S3    1.752451 S    
C12   C48   1.460103 S    
C43   C44   1.402433 A    
S2    O57   1.503391 D    
C26   C30   1.418625 A    
S2    O56   1.500341 D    
C22   C70   1.407584 S    
C75   C79   1.323629 D    
C27   C36   1.400132 A    
O3    Cr3   2.068596 S    
C20   C64   1.463906 S    
C26   C33   1.399485 A    
O2    Cr2   2.073181 S    
O14   Cr6   1.956734 S    
C75   H15   1.079880 S    
Cr6   O50   1.992305 S    
C14   C75   1.432423 S    
O42   Cr10  2.061112 S    
C65   C66   1.448169 S    
Cr5   O49   1.993487 S    
C61   C66   1.348096 D    
O18   Cr10  2.075388 S    
C83   Cl11  1.774547 S    
C16   C73   1.430316 S    
C66   S6    1.788035 S    
C25   C29   1.419179 A    
C84   Cl12  1.773346 S    
C17   C61   1.444523 S    
C49   S1    1.752534 S    
C64   C67   1.360687 D    
O24   Cr12  1.943125 S    
O34   Cr6   2.075686 S    
Cr7   O51   1.993487 S    
S8    O74   1.499958 D    
S3    O61   1.685248 S    
C31   C39   1.413790 A    
O6    Cr2   1.956662 S    
C35   Cl3   1.761468 S    
C5    C26   1.493099 S    
S5    O66   1.504531 D    
O31   Cr3   1.949621 S    
C63   C68   1.345346 D    
C74   H14   1.078455 S    
C58   Cl26  1.759815 S    
O9    Cr5   2.069024 S    
O30   Cr2   1.954157 S    
C68   S8    1.783947 S    
O22   C10   1.272578 A    
C79   C83   1.438320 S    
O48   Cr12  1.954727 S    
C4    O12   1.275226 A    
C80   C84   1.437853 S    
O32   C16   1.302697 A    
O67   H21   0.989732 S    
C42   Cl22  1.758972 S    
C2    O10   1.275820 A    
C29   C37   1.413734 A    
O16   Cr8   1.956734 S    
O61   H19   0.988865 S    
O7    Cr3   1.961426 S    
Cr10  O50   1.993700 S    
C25   C34   1.400255 A    
C47   C59   1.346199 D    
C80   Cl8   1.763901 S    
O13   C5    1.289232 A    
Cr4   O52   1.981981 S    
O40   C20   1.298409 A    
C51   C55   1.346946 D    
O43   Cr11  2.059931 S    
O48   C24   1.271968 A    
O12   Cr8   2.066328 S    
C38   Cl18  1.773254 S    
O22   Cr10  1.943125 S    
O15   C7    1.288981 A    
O21   Cr9   1.941602 S    
O70   H22   0.990491 S    
C79   Cl7   1.773467 S    
O46   Cr10  1.954727 S    
O39   Cr7   1.947642 S    
O13   Cr5   1.953446 S    
O45   Cr9   1.957128 S    
O64   H20   0.989825 S    
O76   H24   0.990539 S    
C15   C74   1.413351 S    
O3    C11   1.272506 A    
O8    C4    1.267418 A    
S1    O55   1.682727 S    
S2    O58   1.682649 S    
O38   C18   1.309555 A    
C13   O33   1.261589 A    
C39   C41   1.401202 A    
C50   C54   1.345892 D    
O29   C13   1.275036 A    
C48   H8    1.084777 S    
C38   C44   1.401115 A    
Cr1   O49   1.981959 S    
C34   Cl2   1.761735 S    
C6    O18   1.284463 A    
C49   C53   1.347135 D    
Cr3   O51   1.981959 S    
O26   C22   1.254170 A    
C40   Cl20  1.773290 S    
S1    O53   1.500303 D    
C7    O19   1.284475 A    
C32   C40   1.413896 A    
O30   C14   1.269010 A    
S8    O75   1.503811 D    
C10   C46   1.460990 S    
C8    O20   1.284571 A    
O23   C11   1.272819 A    
C9    C45   1.459173 S    
C59   Cl27  1.758598 S    
C8    C27   1.494132 S    
C60   Cl28  1.759413 S    
C11   C47   1.460168 S    
S6    O70   1.681945 S    
C4    C49   1.449755 S    
O26   Cr2   2.076088 S    
S5    O67   1.680575 S    
C47   H7    1.084996 S    
C5    O17   1.284166 A    
C63   H12   1.076318 S    
O37   C17   1.287051 A    
O28   C24   1.265908 A    
C65   S5    1.783615 S    
O14   C6    1.289921 A    
C1    C52   1.450504 S    
C19   O43   1.274684 A    
C50   S2    1.752016 S    
C44   Cl24  1.758841 S    
O5    Cr1   1.961426 S    
Cr12  O52   1.993700 S    
O5    C1    1.268818 A    
O55   H17   0.989836 S    
C76   H16   1.085724 S    
O17   Cr9   2.077238 S    
O6    C2    1.266722 A    
C15   O35   1.250650 A    
C67   C68   1.490135 S    
C56   H4    1.084521 S    
C78   C82   1.395825 S    
C70   C82   1.341540 D    
C55   C59   1.460285 S    
Cr2   O50   1.981981 S    
C69   C81   1.360091 D    
C14   O34   1.264587 A    
O25   Cr1   2.081179 S    
O40   Cr8   1.945532 S    
C35   C36   1.390168 A    
C36   Cl4   1.761662 S    
S6    O69   1.503457 D    
C20   O44   1.260313 A    
C13   C76   1.426807 S    
O1    Cr1   2.068596 S    
O19   Cr11  2.077238 S    
Cr8   O52   1.992305 S    
S4    O63   1.503412 D    
C24   C72   1.443837 S    
C46   C58   1.347664 D    
C62   H9    1.086088 S    
C57   Cl25  1.759157 S    
O2    C10   1.273518 A    
S6    O68   1.502282 D    
O46   C22   1.266007 A    
O31   C15   1.273882 A    
S4    O64   1.682661 S    
O45   C21   1.283668 A    
C19   C63   1.456738 S    
C6    C25   1.493619 S    
O33   Cr5   2.071732 S    
C46   H6    1.084560 S    
O47   C23   1.275745 A    
O10   Cr6   2.066328 S    
C77   C81   1.436389 S    
C37   Cl17  1.773113 S    
O35   Cr7   2.071732 S    
O4    Cr4   2.073181 S    
C56   C60   1.461950 S    
O29   Cr1   1.949621 S    
C71   Cl15  1.765331 S    
C16   O36   1.297983 A    
C73   H13   1.082974 S    
C30   C38   1.413877 A    
C27   C31   1.419063 A    
C72   Cl16  1.768645 S    
O73   H23   0.990494 S    
C74   C78   1.331683 D    
C77   Cl5   1.764904 S    
C37   C43   1.401189 A    
O27   C23   1.261814 A    
C7    C28   1.493300 S    
C43   Cl23  1.758364 S    
O41   Cr9   2.059931 S    
C53   C57   1.460876 S    
C54   H2    1.082967 S    
O37   Cr5   1.947642 S    
O36   Cr8   2.075686 S    
C45   H5    1.084970 S    
C53   H1    1.084727 S    
O16   C8    1.290104 A    
S8    O76   1.681315 S    
Cr9   O49   1.992666 S    
C2    C51   1.449571 S    
O15   Cr7   1.953446 S    
C28   C35   1.399357 A    
C81   Cl9   1.786647 S    
O38   Cr6   1.945532 S    
C55   H3    1.084596 S    
