data_mof_unit_65391.cif
_audit_creation_date              2012-12-10T16:57:24-0500
_audit_creation_method            fapswitch 2.2
_symmetry_space_group_name_H-M    P1
_symmetry_Int_Tables_number       1
_space_group_crystal_system       triclinic
_cell_length_a                    21.77689
_cell_length_b                    21.779266
_cell_length_c                    22.193664
_cell_angle_alpha                 59.345022
_cell_angle_beta                  118.660171
_cell_angle_gamma                 90.632429
_cell_volume                      7555.98211325

loop_
_atom_site_label
_atom_site_type_symbol
_atom_type_description
_atom_site_fract_x
_atom_site_fract_y
_atom_site_fract_z
_atom_type_partial_charge
C1    C     C_R   0.615539 0.504071 0.493247 0.839626
C2    C     C_2   0.818504 0.485220 0.508124 0.304899
C3    C     C_2   0.692954 0.480947 0.451085 0.545609
C4    C     C_R   0.418734 0.581819 0.337428 0.874501
C5    C     C_2   0.672036 0.516778 0.475742 0.406227
C6    C     C_3   0.724994 0.192737 0.030987 0.568155
C7    C     C_3   0.681580 0.277520 0.973923 -0.393373
C8    C     C_1   0.625767 0.372670 0.751350 -0.113100
C9    C     C_1   0.876300 0.125089 0.248660 -0.099195
C10   C     C_3   0.750940 0.205058 0.973213 0.543543
C11   C     C_3   0.708911 0.289356 0.916886 -0.222578
C12   C     C_3   0.289882 0.710513 0.083272 -0.452227
C13   C     C_3   0.820149 0.218918 0.025510 0.460882
C14   C     C_3   0.794080 0.206620 0.083147 -0.263575
C15   C     C_3   0.777832 0.302954 0.969087 0.290889
C16   C     C_R   0.383864 0.496164 0.506218 0.844000
C17   C     C_3   0.751822 0.290607 0.026255 0.320281
C18   C     C_1   0.663381 0.334726 0.826230 0.209924
C19   C     C_1   0.839438 0.161961 0.173791 0.231599
C20   C     C_2   0.244717 0.510967 0.558340 0.336415
C21   C     C_2   0.181426 0.521311 0.492613 0.282013
C22   C     C_2   0.308870 0.519848 0.551033 0.333365
C23   C     C_3   0.181640 0.741049 0.975292 0.495726
C24   C     C_2   0.327475 0.483024 0.525441 0.276822
C25   C     C_R   0.001574 0.879070 0.503051 0.856198
C26   C     C_R   0.080647 0.918616 0.662567 0.887738
C27   C     C_R   0.997659 0.122269 0.493751 0.845956
C28   C     C_R   0.581232 0.418174 0.662589 0.883157
C29   C     C_R   0.919343 0.081227 0.337415 0.879720
C30   C     C_R   0.993845 0.619133 0.499105 0.872637
C31   C     C_R   0.881455 0.497066 0.501560 0.792630
C32   C     C_R   0.996531 0.380090 0.501338 0.845933
C33   C     C_R   0.118505 0.504983 0.498543 0.855242
C34   C     C_3   0.205705 0.792593 0.916784 -0.371592
C35   C     C_2   0.989459 0.685179 0.560202 0.267819
C36   C     C_2   0.976743 0.686223 0.494048 0.444474
C37   C     C_2   0.980316 0.757360 0.550289 0.534810
C38   C     C_2   0.010008 0.806819 0.514702 0.178504
C39   C     C_2   0.930905 0.313588 0.441366 0.333211
C40   C     C_3   0.279432 0.730721 0.971696 0.490607
C41   C     C_2   0.986104 0.311304 0.507115 0.278632
C42   C     C_2   0.929273 0.242123 0.448686 0.339801
C43   C     C_2   0.991647 0.197866 0.474456 0.278520
C44   C     C_3   0.314105 0.761985 0.024861 0.491792
C45   C     C_3   0.216106 0.772326 0.028523 0.492793
C46   C     C_1   0.373848 0.627301 0.248712 -0.092628
C47   C     C_1   0.123661 0.874567 0.751299 -0.102039
C48   C     C_3   0.255443 0.679071 0.030351 0.463668
C49   C     C_3   0.240284 0.823299 0.970116 0.204954
C50   C     C_1   0.335852 0.665216 0.173867 0.281303
C51   C     C_1   0.160465 0.837486 0.826160 0.290946
C52   C     C_2   0.757143 0.489929 0.445638 -0.193841
F1    F     F_    0.382355 0.773042 0.050638 -0.550857
F2    F     F_    0.113261 0.730296 0.949302 -0.532588
F3    F     F_    0.263603 0.604023 0.062126 -0.532709
F4    F     F_    0.656952 0.435624 0.432359 -0.627624
F5    F     F_    0.700822 0.571527 0.479884 -0.613067
F6    F     F_    0.698789 0.134477 0.064103 -0.559159
F7    F     F_    0.891031 0.189157 0.052012 -0.558389
F8    F     F_    0.749645 0.160926 0.945035 -0.545821
F9    F     F_    0.311708 0.709313 0.941991 -0.539833
F10   F     F_    0.942027 0.752396 0.416276 -0.619192
F11   F     F_    0.944626 0.770969 0.580578 -0.628265
F12   F     F_    0.183848 0.793998 0.058073 -0.547217
H1    H     H_    0.624760 0.301802 0.952594 0.227568
H2    H     H_    0.066622 0.829409 0.463128 0.380472
H3    H     H_    0.845502 0.370431 0.327100 0.358300
H4    H     H_    0.073011 0.248070 0.622504 0.371788
H5    H     H_    0.828662 0.258804 0.418749 0.359298
H6    H     H_    0.093890 0.186874 0.505643 0.371323
H7    H     H_    0.260062 0.901303 0.986530 0.386334
H8    H     H_    0.869266 0.467735 0.618503 0.378957
H9    H     H_    0.754441 0.498769 0.391501 0.160613
H10   H     H_    0.721353 0.385599 0.004765 0.370024
H11   H     H_    0.848848 0.355495 0.984260 0.379191
H12   H     H_    0.301876 0.482412 0.672608 0.353347
H13   H     H_    0.129435 0.549581 0.377192 0.372923
H14   H     H_    0.321986 0.590737 0.580768 0.356403
H15   H     H_    0.307488 0.411674 0.494562 0.372087
H16   H     H_    0.019922 0.629774 0.676301 0.388413
O1    O     O_R   0.590490 0.448940 0.499990 -0.578464
O2    O     O_R   0.034710 0.555670 0.569560 -0.576288
O3    O     O_R   0.874770 0.534770 0.430450 -0.615175
O4    O     O_R   0.590420 0.551070 0.499980 -0.568028
O5    O     O_R   0.944330 0.465210 0.569580 -0.613241
O6    O     O_R   0.965290 0.444330 0.430440 -0.555053
O7    O     O_R   0.034850 0.374760 0.569570 -0.634722
O8    O     O_R   0.055670 0.534790 0.430420 -0.631061
O9    O     O_R   0.125230 0.465230 0.569550 -0.552640
O10   O     O_R   0.438430 0.510550 0.376780 -0.588806
O11   O     O_R   0.438360 0.612680 0.376770 -0.604720
O12   O     O_R   0.948920 0.909510 0.500030 -0.554342
O13   O     O_R   0.409580 0.448930 0.500020 -0.639605
O14   O     O_R   0.409510 0.551060 0.500010 -0.553881
O15   O     O_R   0.561640 0.387320 0.623230 -0.598727
O16   O     O_R   0.561570 0.489450 0.623220 -0.596667
O17   O     O_R   0.051050 0.909420 0.500010 -0.626999
O18   O     O_3   0.754210 0.334678 0.055633 -0.682508
O19   O     O_3   0.804275 0.361767 0.935261 -0.663011
O20   O     O_3   0.250184 0.491223 0.631045 -0.745954
O21   O     O_3   0.174944 0.552773 0.416567 -0.747768
O22   O     O_3   0.347070 0.566086 0.567832 -0.750556
O23   O     O_R   0.112670 0.938280 0.623210 -0.599611
O24   O     O_3   0.295127 0.428394 0.522441 -0.760917
O25   O     O_3   0.011919 0.618277 0.635705 -0.729668
O26   O     O_3   0.056313 0.785039 0.497936 -0.744271
O27   O     O_3   0.878151 0.380648 0.368679 -0.753024
O28   O     O_3   0.030445 0.241915 0.583140 -0.751702
O29   O     O_3   0.866230 0.220759 0.431781 -0.743486
O30   O     O_3   0.049342 0.227124 0.477551 -0.759066
O31   O     O_3   0.231590 0.899361 0.937144 -0.632804
O32   O     O_3   0.824439 0.460975 0.582511 -0.698917
O33   O     O_R   0.010540 0.938370 0.623230 -0.586835
O34   O     O_R   0.051080 0.090340 0.499970 -0.638338
O35   O     O_R   0.948950 0.090430 0.499990 -0.552795
O36   O     O_R   0.989460 0.061480 0.376770 -0.605912
O37   O     O_R   0.887330 0.061570 0.376790 -0.591219
O38   O     O_R   0.965150 0.625240 0.430430 -0.571549
Zn1   Zn    Zn3+2 0.500050 0.431810 0.500010 1.113406
Zn2   Zn    Zn3+2 0.499950 0.568190 0.499990 1.129444
Zn3   Zn    Zn3+2 0.068190 0.999870 0.499990 1.070342
Zn4   Zn    Zn3+2 0.931810 0.999990 0.500010 1.156524
Zn5   Zn    Zn3+2 0.953560 0.546450 0.407100 1.123185
Zn6   Zn    Zn3+2 0.046440 0.453550 0.592900 1.121737

loop_
_geom_bond_atom_site_label_1
_geom_bond_atom_site_label_2
_ccdc_geom_bond_type
C44   C49   S    
C48   F3    S    
H8    O32   S    
C11   C18   S    
C30   O2    A    
C23   C45   S    
C41   O28   S    
H14   O22   S    
C6    F6    S    
H13   O21   S    
C35   C36   D    
C12   C48   S    
H10   O18   S    
C4    C46   S    
C1    O4    A    
C7    C11   S    
C2    O32   S    
C34   C51   S    
C28   O15   A    
C1    C5    S    
C35   C37   S    
C33   O8    A    
C33   O9    A    
O7    Zn6   S    
C25   C38   S    
C6    C14   S    
C1    O1    A    
C31   O3    A    
O5    Zn6   S    
C40   C48   S    
C31   O5    A    
O17   Zn3   S    
H6    O30   S    
O34   Zn3   S    
H5    O29   S    
C44   F1    S    
C9    C19   T    
O33   Zn4   S    
C7    C17   S    
H7    O31   S    
C32   C41   S    
C43   O30   S    
C42   O29   S    
C25   O12   A    
C17   O18   S    
C9    C29   S    
C49   O31   S    
C4    O11   A    
C21   O21   S    
C16   C24   S    
O35   Zn4   S    
C13   C14   S    
C14   C17   S    
O14   Zn2   S    
H2    O26   S    
O8    Zn5   S    
C36   F10   S    
O2    Zn6   S    
C37   F11   S    
C39   C42   S    
C4    O10   A    
O36   Zn3   S    
C39   C41   D    
C52   H9    S    
C47   C51   T    
C30   O38   A    
O15   Zn1   S    
C32   O7    A    
C29   O37   A    
H16   O25   S    
C8    C18   T    
C40   F9    S    
C2    C31   S    
C24   O24   S    
C38   O26   S    
C10   F8    S    
O37   Zn4   S    
C6    C10   S    
C37   C38   D    
C35   O25   S    
O12   Zn4   S    
C26   O23   A    
C7    H1    S    
C3    F4    S    
C20   O20   S    
C45   C49   S    
O4    Zn2   S    
C23   C34   S    
C32   O6    A    
H11   O19   S    
C16   O13   A    
C2    C52   D    
C26   C47   S    
C25   O17   A    
C29   O36   A    
C20   C22   S    
C11   C15   S    
C13   C15   S    
C8    C28   S    
C34   C40   S    
H15   O24   S    
C42   C43   D    
O23   Zn3   S    
C23   F2    S    
C15   C17   S    
O1    Zn1   S    
C34   C49   S    
C23   C48   S    
C14   C19   S    
O16   Zn2   S    
C15   O19   S    
C12   C45   S    
C3    C5    D    
C10   C13   S    
C39   O27   S    
C12   C50   S    
C3    C52   S    
C6    C7    S    
C13   F7    S    
O9    Zn6   S    
C30   C36   S    
H12   O20   S    
O13   Zn1   S    
C46   C50   T    
C45   F12   S    
C16   O14   A    
C22   O22   S    
C5    F5    S    
C28   O16   A    
O10   Zn1   S    
C26   O33   A    
C12   C44   S    
H3    O27   S    
C22   C24   D    
O38   Zn5   S    
C10   C11   S    
C27   O34   A    
C27   C43   S    
C40   C44   S    
C21   C33   S    
C20   C21   D    
O6    Zn5   S    
O11   Zn2   S    
H4    O28   S    
O3    Zn5   S    
C27   O35   A    
