data_mof_unit_24190.cif
_audit_creation_date              2012-12-10T16:51:18-0500
_audit_creation_method            fapswitch 2.2
_symmetry_space_group_name_H-M    P1
_symmetry_Int_Tables_number       1
_space_group_crystal_system       triclinic
_cell_length_a                    27.808428
_cell_length_b                    8.733151
_cell_length_c                    7.424853
_cell_angle_alpha                 102.884143
_cell_angle_beta                  94.189689
_cell_angle_gamma                 92.61552
_cell_volume                      1749.50879331

loop_
_atom_site_label
_atom_site_type_symbol
_atom_type_description
_atom_site_fract_x
_atom_site_fract_y
_atom_site_fract_z
_atom_type_partial_charge
C1    C     C_R   0.497940 0.200099 0.454463 0.863951
C2    C     C_R   0.502015 0.799909 0.545558 0.888679
C3    C     C_R   0.101946 0.499544 0.523076 -0.037102
C4    C     C_R   0.897649 0.495063 0.464778 -0.036646
C5    C     C_R   0.125188 0.358035 0.503589 -0.046887
C6    C     C_R   0.874395 0.636669 0.485989 -0.046571
C7    C     C_R   0.097965 0.215310 0.443773 -0.147166
C8    C     C_R   0.901662 0.779347 0.545196 -0.146018
C9    C     C_R   0.130091 0.642347 0.550740 -0.023788
C10   C     C_R   0.869515 0.352150 0.436594 -0.024722
C11   C     C_R   0.354188 0.488230 0.506100 -0.156322
C12   C     C_R   0.645786 0.510574 0.492550 -0.091231
C13   C     C_R   0.971715 0.351882 0.452314 0.077482
C14   C     C_R   0.027896 0.642644 0.533863 0.077423
C15   C     C_R   0.976698 0.643194 0.530276 0.002144
C16   C     C_R   0.022924 0.351397 0.456375 0.002663
C17   C     C_R   0.948939 0.496831 0.479176 0.041294
C18   C     C_R   0.050663 0.497747 0.507655 0.041115
C19   C     C_R   0.942386 0.212915 0.438586 -0.094161
C20   C     C_R   0.057231 0.781456 0.546831 -0.094597
C21   C     C_R   0.892386 0.212192 0.426393 -0.112398
C22   C     C_R   0.107235 0.782173 0.559452 -0.113474
C23   C     C_R   0.407373 0.494659 0.501479 0.803369
C24   C     C_R   0.592636 0.505241 0.498425 0.860181
C25   C     C_R   0.048196 0.211742 0.403770 0.228733
C26   C     C_R   0.951482 0.782909 0.583506 0.228330
C27   C     C_2   0.490047 0.034542 0.434783 0.000108
C28   C     C_2   0.509832 0.965512 0.565344 0.015102
C29   C     C_R   0.175810 0.362348 0.523460 0.618293
C30   C     C_R   0.823763 0.632486 0.468478 0.619372
C31   C     C_R   0.180579 0.640437 0.555191 0.662027
C32   C     C_R   0.819038 0.354024 0.433371 0.668408
C33   C     C_R   0.285621 0.562272 0.684103 0.329746
C34   C     C_R   0.713665 0.436481 0.310443 0.282733
C35   C     C_R   0.335162 0.557496 0.672509 -0.176358
C36   C     C_R   0.664261 0.443015 0.324277 -0.256853
C37   C     C_R   0.322364 0.419093 0.347095 -0.094124
C38   C     C_R   0.678228 0.576280 0.651084 -0.097212
C39   C     C_R   0.271815 0.429042 0.356295 -0.040432
C40   C     C_R   0.728562 0.563073 0.639902 -0.074529
C41   C     C_R   0.253671 0.499474 0.527037 0.223375
C42   C     C_R   0.746096 0.495398 0.467029 0.273263
Cu1   Cu    Cu3+1 0.505380 0.517380 0.684380 1.059888
Cu2   Cu    Cu3+1 0.494620 0.482620 0.315620 1.038536
H1    H     H_    0.462232 0.378231 0.948226 0.242047
H2    H     H_    0.537765 0.621776 0.051777 0.247903
H3    H     H_    0.115966 0.106660 0.406979 0.201499
H4    H     H_    0.883712 0.888050 0.582624 0.203314
H5    H     H_    0.640116 0.393251 0.201850 0.206807
H6    H     H_    0.358982 0.609814 0.795023 0.212892
H7    H     H_    0.871750 0.101567 0.413918 0.196202
H8    H     H_    0.127893 0.892682 0.571520 0.196698
H9    H     H_    0.957289 0.103683 0.447915 0.200135
H10   H     H_    0.042324 0.890500 0.536701 0.200327
N1    N     N_R   0.202409 0.501607 0.541974 -0.440854
N2    N     N_R   0.797221 0.493072 0.449349 -0.440782
N3    N     N_2   0.486510 0.456430 0.038510 -0.189392
N4    N     N_2   0.513490 0.543570 0.961490 -0.183973
O1    O     O_R   0.503500 0.286120 0.619780 -0.576879
O2    O     O_R   0.496500 0.713880 0.380220 -0.569029
O3    O     O_R   0.494410 0.256780 0.308360 -0.551666
O4    O     O_R   0.505590 0.743220 0.691640 -0.531425
O5    O     O_R   0.434810 0.514700 0.655690 -0.587782
O6    O     O_R   0.565190 0.485300 0.344310 -0.604358
O7    O     O_R   0.425720 0.485350 0.344280 -0.575029
O8    O     O_R   0.574280 0.514650 0.655720 -0.547444
O9    O     O_2   0.198367 0.227853 0.517227 -0.512898
O10   O     O_2   0.801151 0.767230 0.477766 -0.510606
O11   O     O_2   0.792024 0.218737 0.418824 -0.467933
O12   O     O_2   0.207605 0.775502 0.568475 -0.474398
C43   C     C_2   0.341947 0.332202 0.174849 0.409280
H11   H     H_    0.370027 0.251201 0.183612 0.110929
O13   O     O_2   0.328171 0.353997 0.023203 -0.527027
C44   C     C_2   0.660526 0.661173 0.827871 0.419056
H12   H     H_    0.673955 0.635929 0.958439 0.074071
O14   O     O_2   0.632403 0.764723 0.829455 -0.477318
C45   C     C_2   0.237926 0.360772 0.189745 0.536336
H13   H     H_    0.246357 0.255737 0.091294 0.120538
O15   O     O_2   0.200613 0.422636 0.158925 -0.517090
C46   C     C_2   0.762763 0.624393 0.807921 0.465890
H14   H     H_    0.753719 0.721711 0.916163 0.092453
O16   O     O_2   0.800949 0.564541 0.829880 -0.506214
Br1   Br    Br    0.735564 0.345690 0.073294 -0.414088
Br2   Br    Br    0.262803 0.654961 0.919149 -0.356614
Br3   Br    Br    0.022798 0.024583 0.225527 -0.466969
Br4   Br    Br    0.977158 0.970567 0.760320 -0.466324
Br5   Br    Br    0.442937 0.932208 0.233042 -0.455240
Br6   Br    Br    0.556767 0.068125 0.767610 -0.380667

loop_
_geom_bond_atom_site_label_1
_geom_bond_atom_site_label_2
_ccdc_geom_bond_type
C8    C26   A    
C14   C18   A    
C34   C42   A    
Cu1   O5    S    
C39   C41   A    
C45   H13   S    
Cu2   O6    S    
H1    N3    S    
C44   O14   D    
C39   C45   S    
C19   C21   A    
C1    O1    A    
C2    O2    A    
C23   O5    A    
C3    C18   A    
C11   C37   A    
C41   N1    S    
Cu1   N4    S    
C42   N2    S    
C29   O9    S    
C31   O12   S    
C28   Br6   S    
C40   C46   S    
C12   C36   A    
Cu1   O1    S    
C19   H9    S    
C40   C42   A    
C24   O6    A    
H2    N4    S    
Cu2   O7    S    
C5    C29   A    
C45   O15   D    
C10   C21   A    
C44   H12   S    
C13   C19   A    
C14   C20   A    
C20   H10   S    
C43   O13   D    
C15   C26   A    
C6    C8    A    
C29   N1    A    
C30   N2    A    
C7    H3    S    
Cu1   Cu2   S    
C8    H4    S    
C3    C9    A    
C5    C7    A    
Cu2   N3    S    
C26   Br4   S    
C35   H6    S    
C25   Br3   S    
C27   Br5   S    
C4    C17   A    
C46   O16   D    
C6    C30   A    
C20   C22   A    
C37   C43   S    
C4    C6    A    
C34   Br1   S    
C4    C10   A    
C21   H7    S    
C22   H8    S    
C38   C44   S    
C16   C25   A    
C15   C17   A    
C46   H14   S    
C3    C5    A    
C1    O3    A    
C32   O11   S    
C24   O8    A    
Cu2   O3    S    
C12   C24   S    
C7    C25   A    
C13   C17   A    
C33   C41   A    
C23   O7    A    
C11   C35   A    
C43   H11   S    
C37   C39   A    
C38   C40   A    
N3    N4    D    
Cu2   O2    S    
Cu1   O8    S    
C11   C23   S    
C33   C35   A    
C34   C36   A    
C12   C38   A    
C9    C22   A    
C33   Br2   S    
C9    C31   A    
C10   C32   A    
C16   C18   A    
C13   C16   A    
C27   C28   D    
C1    C27   S    
C14   C15   A    
C2    C28   S    
C31   N1    A    
C32   N2    A    
C30   O10   S    
C36   H5    S    
C2    O4    A    
Cu1   O4    S    
