data_mof_unit_66487.cif
_audit_creation_date              2012-12-10T16:51:55-0500
_audit_creation_method            fapswitch 2.2
_symmetry_space_group_name_H-M    P1
_symmetry_Int_Tables_number       1
_space_group_crystal_system       triclinic
_cell_length_a                    18.390523
_cell_length_b                    18.269763
_cell_length_c                    18.448767
_cell_angle_alpha                 90.881794
_cell_angle_beta                  119.714238
_cell_angle_gamma                 119.341752
_cell_volume                      4411.37534047

loop_
_atom_site_label
_atom_site_type_symbol
_atom_type_description
_atom_site_fract_x
_atom_site_fract_y
_atom_site_fract_z
_atom_type_partial_charge
C1    C     C_R   0.776921 0.638776 0.638572 0.860789
C2    C     C_2   0.112244 0.307631 0.309256 -0.276154
C3    C     C_2   0.426810 0.163216 0.720716 -0.191432
C4    C     C_R   0.222847 0.361453 0.361832 0.862880
C5    C     C_2   0.495326 0.196726 0.808880 -0.350793
C6    C     C_2   0.416181 0.220302 0.666501 0.444721
C7    C     C_2   0.498335 0.303541 0.691963 -0.400936
C8    C     C_2   0.056040 0.778738 0.718871 -0.148003
C9    C     C_2   0.112420 0.803434 0.807694 -0.281875
C10   C     C_2   0.943634 0.720090 0.662756 -0.145005
C11   C     C_2   0.887713 0.696639 0.695559 -0.281662
C12   C     C_3   0.569146 0.766987 0.835277 -0.188097
C13   C     C_2   0.475609 0.164631 0.253499 -0.233564
C14   C     C_2   0.519850 0.198258 0.211889 -0.343842
C15   C     C_2   0.489230 0.224114 0.319017 0.438862
C16   C     C_R   0.498171 0.637293 0.360165 0.872969
C17   C     C_2   0.499863 0.300604 0.307293 -0.415471
C18   C     C_2   0.430020 0.767278 0.209537 -0.176904
C19   C     C_2   0.496392 0.799895 0.187643 -0.332574
C20   C     C_2   0.421211 0.702415 0.256323 0.209284
C21   C     C_2   0.500116 0.695885 0.307690 -0.334824
C22   C     C_R   0.499767 0.139042 0.861873 0.916307
C23   C     C_3   0.593896 0.792398 0.766689 -0.223709
C24   C     C_R   0.499780 0.860806 0.137836 0.876236
C25   C     C_R   0.777257 0.138731 0.138302 0.874475
C26   C     C_R   0.223176 0.861278 0.861612 0.846571
C27   C     C_R   0.503125 0.141515 0.143566 0.898129
C28   C     C_R   0.497753 0.360832 0.638026 0.925563
C29   C     C_R   0.500346 0.858435 0.858518 0.857170
C30   C     C_R   0.501574 0.358382 0.361285 0.913725
C31   C     C_R   0.499831 0.641732 0.641506 0.822902
C32   C     C_3   0.475103 0.673016 0.766145 -0.138578
C33   C     C_3   0.406810 0.708120 0.732988 -0.241666
C34   C     C_3   0.524906 0.826030 0.733753 0.495396
C35   C     C_3   0.500762 0.801291 0.801458 -0.083505
C36   C     C_3   0.431139 0.733373 0.664132 -0.181772
C37   C     C_3   0.499697 0.699272 0.698401 -0.029070
C38   C     C_2   0.943774 0.162166 0.223044 -0.143612
C39   C     C_2   0.887909 0.195543 0.191109 -0.284953
C40   C     C_2   0.056093 0.218206 0.276759 -0.117209
H1    H     H_    0.330241 0.674233 0.720120 0.167012
H2    H     H_    0.428683 0.093101 0.239238 0.193056
H3    H     H_    0.454445 0.608785 0.778608 0.154431
H4    H     H_    0.574844 0.269542 0.231714 0.163203
H5    H     H_    0.500146 0.319461 0.251911 0.124138
H6    H     H_    0.376573 0.785625 0.189163 0.202449
H7    H     H_    0.546044 0.778409 0.201746 0.159515
H8    H     H_    0.571867 0.737641 0.315102 0.140148
H9    H     H_    0.625586 0.781157 0.906062 0.176981
H10   H     H_    0.670380 0.826746 0.779305 0.173812
H11   H     H_    0.375129 0.719858 0.593423 0.187987
H12   H     H_    0.078450 0.344318 0.299348 0.157265
H13   H     H_    0.906279 0.090588 0.208669 0.186341
H14   H     H_    0.921938 0.265998 0.201699 0.157136
H15   H     H_    0.093315 0.183853 0.290594 0.201289
H16   H     H_    0.198367 0.033966 0.551378 0.360575
H17   H     H_    0.450264 0.055834 0.378162 0.359462
H18   H     H_    0.601610 0.986495 0.627294 0.402640
H19   H     H_    0.373117 0.091348 0.687380 0.204861
H20   H     H_    0.545276 0.268055 0.844600 0.158253
H21   H     H_    0.572074 0.330205 0.753527 0.135258
H22   H     H_    0.093133 0.801247 0.685008 0.184663
H23   H     H_    0.078651 0.780617 0.843806 0.156436
H24   H     H_    0.906118 0.696491 0.591551 0.183462
H25   H     H_    0.921837 0.720563 0.765706 0.154537
I1    I     I_    0.274948 0.621801 0.233563 -0.296677
O1    O     O_3   0.500000 0.500000 0.500000 -0.526647
O2    O     O_R   0.270900 0.886160 0.946260 -0.641662
O3    O     O_R   0.560160 0.177420 0.117340 -0.648344
O4    O     O_R   0.729180 0.615300 0.675360 -0.640545
O5    O     O_R   0.440020 0.882760 0.822680 -0.605776
O6    O     O_R   0.439990 0.057240 0.117340 -0.639942
O7    O     O_R   0.560190 0.882760 0.942820 -0.649047
O8    O     O_R   0.729270 0.053840 0.113900 -0.637275
O9    O     O_R   0.270910 0.884750 0.824690 -0.644601
O10   O     O_R   0.560170 0.175430 0.946260 -0.645999
O11   O     O_R   0.440000 0.886160 0.115330 -0.639300
O12   O     O_R   0.439910 0.615300 0.386140 -0.602482
O13   O     O_R   0.270820 0.446200 0.386140 -0.636170
O14   O     O_R   0.560090 0.613880 0.384720 -0.647385
O15   O     O_R   0.439920 0.324620 0.553780 -0.537705
O16   O     O_R   0.560100 0.442800 0.382710 -0.650432
O17   O     O_R   0.560070 0.617290 0.677370 -0.642598
O18   O     O_R   0.439930 0.322630 0.382710 -0.581269
O19   O     O_R   0.439900 0.617290 0.557220 -0.633195
O20   O     O_2   0.268202 0.242695 0.559246 -0.283330
O21   O     O_2   0.285099 0.142657 0.489093 -0.232977
O22   O     O_3   0.203976 0.086574 0.575832 -0.535484
O23   O     O_R   0.560080 0.446200 0.675360 -0.655604
O24   O     O_2   0.568862 0.269219 0.493739 -0.273625
O25   O     O_2   0.386374 0.150532 0.391061 -0.245096
O26   O     O_3   0.516357 0.113643 0.420983 -0.514240
O27   O     O_2   0.470445 0.936668 0.676184 -0.273933
O28   O     O_2   0.650562 0.005082 0.796759 -0.310384
O29   O     O_3   0.584962 0.928794 0.637019 -0.541812
O30   O     O_R   0.729180 0.613880 0.553780 -0.638861
O31   O     O_R   0.270820 0.324620 0.384720 -0.615279
O32   O     O_3   0.500090 0.000040 0.000040 -0.508953
O33   O     O_R   0.440010 0.053840 0.824690 -0.616170
O34   O     O_R   0.560180 0.884750 0.113900 -0.645865
O35   O     O_R   0.729260 0.175430 0.115330 -0.638669
S1    S     S_3+6 0.291579 0.173840 0.569293 0.065431
S2    S     S_3+6 0.489606 0.190346 0.408954 0.073750
S3    S     S_3+6 0.558357 0.928339 0.712082 0.031788
Zn1   Zn    Zn3+2 0.414150 0.543930 0.458110 1.012703
Zn2   Zn    Zn3+2 0.585850 0.541910 0.456060 0.985692
Zn3   Zn    Zn3+2 0.414160 0.370220 0.456060 1.109614
Zn4   Zn    Zn3+2 0.585840 0.543930 0.629770 0.992879
Zn5   Zn    Zn3+2 0.585940 0.956110 0.041940 0.990769
Zn6   Zn    Zn3+2 0.585930 0.129820 0.043980 0.996406
Zn7   Zn    Zn3+2 0.414240 0.958130 0.043980 0.977788
Zn8   Zn    Zn3+2 0.414250 0.956110 0.870280 1.024833

loop_
_geom_bond_atom_site_label_1
_geom_bond_atom_site_label_2
_ccdc_geom_bond_type
O15   Zn3   S    
C16   C21   S    
C31   O19   A    
H17   O26   S    
C1    C11   S    
C22   O10   A    
C3    C6    S    
C25   O35   A    
O18   Zn3   S    
O8    Zn5   S    
C12   H9    S    
C12   C23   S    
O9    Zn8   S    
O12   Zn1   S    
O32   Zn6   S    
C20   I1    S    
C36   C37   S    
C17   H5    S    
C25   O8    A    
C38   C39   D    
C19   H7    S    
O1    Zn4   S    
H16   O22   S    
C39   H14   S    
C29   O7    A    
O14   Zn2   S    
C33   C36   S    
C31   O17   A    
O17   Zn4   S    
O13   Zn1   S    
C34   C35   S    
O11   Zn7   S    
C7    H21   S    
O26   S2    S    
C5    C22   S    
C8    C9    D    
C28   O23   A    
O32   Zn7   S    
C14   C27   S    
C18   C20   S    
C27   O3    A    
C21   H8    S    
C40   H15   S    
C6    S1    S    
O6    Zn7   S    
O28   S3    D    
O34   Zn5   S    
O32   Zn5   S    
C9    H23   S    
C4    O31   A    
C12   C32   S    
C17   C30   S    
O19   Zn1   S    
C18   H6    S    
O27   S3    D    
C13   H2    S    
C9    C26   S    
C10   H24   S    
O32   Zn8   S    
C4    O13   A    
C18   C19   D    
C23   H10   S    
O35   Zn6   S    
C23   C37   S    
C34   S3    S    
C7    C28   S    
C31   C37   S    
C16   O14   A    
O2    Zn7   S    
C30   O16   A    
C2    C4    S    
H18   O29   S    
O21   S1    D    
O3    Zn6   S    
C23   C34   S    
O5    Zn8   S    
C26   O9    A    
C32   C37   S    
C12   C35   S    
C36   H11   S    
C2    H12   S    
C8    C10   S    
C13   C15   S    
O20   S1    D    
O29   S3    S    
C14   H4    S    
C15   C17   D    
O30   Zn2   S    
C22   O33   A    
C5    H20   S    
C28   O15   A    
C24   O34   A    
O1    Zn1   S    
O25   S2    D    
C3    C5    D    
O22   S1    S    
O1    Zn2   S    
O7    Zn5   S    
C6    C7    D    
C29   C35   S    
C1    O4    A    
C33   H1    S    
C32   C33   S    
C19   C24   S    
C26   O2    A    
O4    Zn4   S    
C25   C39   S    
C38   C40   S    
O1    Zn3   S    
C38   H13   S    
C1    O30   A    
O33   Zn8   S    
O23   Zn4   S    
C33   C35   S    
C32   H3    S    
C16   O12   A    
O16   Zn2   S    
C30   O18   A    
O24   S2    D    
C10   C11   D    
O31   Zn3   S    
C2    C40   D    
C24   O11   A    
C20   C21   D    
C34   C36   S    
O10   Zn6   S    
C15   S2    S    
C13   C14   D    
C27   O6    A    
C11   H25   S    
C8    H22   S    
C29   O5    A    
C3    H19   S    
